data_str_m2_o10_o17_pcu_sym.44
_audit_creation_date              2020-01-03
_audit_creation_method            'Materials Studio'
_symmetry_space_group_name_H-M    'P1'
_symmetry_Int_Tables_number       1
_symmetry_cell_setting            triclinic
loop_
_symmetry_equiv_pos_as_xyz
  x,y,z
_cell_length_a                    29.9846
_cell_length_b                    26.1287
_cell_length_c                    22.3987
_cell_angle_alpha                 103.0472
_cell_angle_beta                  94.3507
_cell_angle_gamma                 92.8986
loop_
_atom_site_label
_atom_site_type_symbol
_atom_site_fract_x
_atom_site_fract_y
_atom_site_fract_z
_atom_site_U_iso_or_equiv
_atom_site_adp_type
_atom_site_occupancy
Br1    Br    0.38073   0.27901   0.22058   0.00000  Uiso   1.00
Br2    Br    0.11927   0.05432   0.11275   0.00000  Uiso   1.00
Br3    Br    0.43786   0.00489   0.08299   0.00000  Uiso   1.00
Br4    Br    0.06214   0.32844   0.25034   0.00000  Uiso   1.00
C5     C     0.24865   0.06670   0.15117   0.00000  Uiso   1.00
C6     C     0.09017   0.11837   0.14409   0.00000  Uiso   1.00
C7     C     0.38345   0.16816   0.16464   0.00000  Uiso   1.00
C8     C     0.11655   0.16517   0.16869   0.00000  Uiso   1.00
C9     C     0.40240   0.12120   0.14017   0.00000  Uiso   1.00
C10    C     0.09760   0.21213   0.19316   0.00000  Uiso   1.00
C11    C     0.44913   0.11954   0.14083   0.00000  Uiso   1.00
C12    C     0.05087   0.21379   0.19250   0.00000  Uiso   1.00
C13    C     0.47643   0.16682   0.16597   0.00000  Uiso   1.00
C14    C     0.02357   0.16651   0.16736   0.00000  Uiso   1.00
C15    C     0.45664   0.21451   0.18983   0.00000  Uiso   1.00
C16    C     0.25135   0.26663   0.18217   0.00000  Uiso   1.00
C17    C     0.04336   0.11883   0.14351   0.00000  Uiso   1.00
C18    C     0.46961   0.07235   0.11772   0.00000  Uiso   1.00
C19    C     0.03039   0.26098   0.21561   0.00000  Uiso   1.00
C20    C     0.01598   0.07261   0.11933   0.00000  Uiso   1.00
C21    C     0.48402   0.26072   0.21400   0.00000  Uiso   1.00
C22    C     0.24778   0.01093   0.14240   0.00000  Uiso   1.00
C23    C     0.25222   0.32241   0.19094   0.00000  Uiso   1.00
C24    C     0.16463   0.16602   0.16730   0.00000  Uiso   1.00
C25    C     0.33537   0.16732   0.16603   0.00000  Uiso   1.00
C26    C     0.40983   0.21497   0.18924   0.00000  Uiso   1.00
Cu27   Cu    0.25501   0.17246   0.22813   0.00000  Uiso   1.00
Cu28   Cu    0.24500   0.16087   0.10521   0.00000  Uiso   1.00
F29    F     0.37436   0.07754   0.11730   0.00000  Uiso   1.00
F30    F     0.12564   0.25579   0.21603   0.00000  Uiso   1.00
F31    F     0.24218   0.31520   0.08323   0.00000  Uiso   1.00
F32    F     0.25782   0.01814   0.25010   0.00000  Uiso   1.00
F33    F     0.20659   0.11916   0.30853   0.00000  Uiso   1.00
F34    F     0.29341   0.21417   0.02481   0.00000  Uiso   1.00
H35    H     0.03019   0.03573   0.10112   0.00000  Uiso   1.00
H36    H     0.46981   0.29761   0.23222   0.00000  Uiso   1.00
N37    N     0.23745   0.15214   0.01284   0.00000  Uiso   1.00
N38    N     0.26256   0.18119   0.32049   0.00000  Uiso   1.00
O39    O     0.25326   0.09538   0.20659   0.00000  Uiso   1.00
O40    O     0.24675   0.23796   0.12674   0.00000  Uiso   1.00
O41    O     0.24480   0.08559   0.10279   0.00000  Uiso   1.00
O42    O     0.25520   0.24774   0.23055   0.00000  Uiso   1.00
O43    O     0.18936   0.17155   0.21857   0.00000  Uiso   1.00
O44    O     0.31065   0.16179   0.11476   0.00000  Uiso   1.00
O45    O     0.18090   0.16176   0.11477   0.00000  Uiso   1.00
O46    O     0.31910   0.17157   0.21857   0.00000  Uiso   1.00
Br47   Br    0.88073   0.27901   0.22058   0.00000  Uiso   1.00
Br48   Br    0.61927   0.05432   0.11275   0.00000  Uiso   1.00
Br49   Br    0.93786   0.00489   0.08299   0.00000  Uiso   1.00
Br50   Br    0.56214   0.32844   0.25034   0.00000  Uiso   1.00
C51    C     0.74865   0.06670   0.15117   0.00000  Uiso   1.00
C52    C     0.59017   0.11837   0.14409   0.00000  Uiso   1.00
C53    C     0.88345   0.16816   0.16464   0.00000  Uiso   1.00
C54    C     0.61655   0.16517   0.16869   0.00000  Uiso   1.00
C55    C     0.90240   0.12120   0.14017   0.00000  Uiso   1.00
C56    C     0.59760   0.21213   0.19316   0.00000  Uiso   1.00
C57    C     0.94913   0.11954   0.14083   0.00000  Uiso   1.00
C58    C     0.55087   0.21379   0.19250   0.00000  Uiso   1.00
C59    C     0.97643   0.16682   0.16597   0.00000  Uiso   1.00
C60    C     0.52357   0.16651   0.16736   0.00000  Uiso   1.00
C61    C     0.95664   0.21451   0.18983   0.00000  Uiso   1.00
C62    C     0.75135   0.26663   0.18217   0.00000  Uiso   1.00
C63    C     0.54336   0.11883   0.14351   0.00000  Uiso   1.00
C64    C     0.96961   0.07235   0.11772   0.00000  Uiso   1.00
C65    C     0.53039   0.26098   0.21561   0.00000  Uiso   1.00
C66    C     0.51598   0.07261   0.11933   0.00000  Uiso   1.00
C67    C     0.98402   0.26072   0.21400   0.00000  Uiso   1.00
C68    C     0.74778   0.01093   0.14240   0.00000  Uiso   1.00
C69    C     0.75222   0.32241   0.19094   0.00000  Uiso   1.00
C70    C     0.66463   0.16602   0.16730   0.00000  Uiso   1.00
C71    C     0.83537   0.16732   0.16603   0.00000  Uiso   1.00
C72    C     0.90983   0.21497   0.18924   0.00000  Uiso   1.00
Cu73   Cu    0.75501   0.17246   0.22813   0.00000  Uiso   1.00
Cu74   Cu    0.74500   0.16087   0.10521   0.00000  Uiso   1.00
F75    F     0.87436   0.07754   0.11730   0.00000  Uiso   1.00
F76    F     0.62564   0.25579   0.21603   0.00000  Uiso   1.00
F77    F     0.74218   0.31520   0.08323   0.00000  Uiso   1.00
F78    F     0.75782   0.01814   0.25010   0.00000  Uiso   1.00
F79    F     0.70659   0.11916   0.30853   0.00000  Uiso   1.00
F80    F     0.79341   0.21417   0.02481   0.00000  Uiso   1.00
H81    H     0.53019   0.03573   0.10112   0.00000  Uiso   1.00
H82    H     0.96981   0.29761   0.23222   0.00000  Uiso   1.00
N83    N     0.73745   0.15214   0.01284   0.00000  Uiso   1.00
N84    N     0.76256   0.18119   0.32049   0.00000  Uiso   1.00
O85    O     0.75326   0.09538   0.20659   0.00000  Uiso   1.00
O86    O     0.74675   0.23796   0.12674   0.00000  Uiso   1.00
O87    O     0.74480   0.08559   0.10279   0.00000  Uiso   1.00
O88    O     0.75520   0.24774   0.23055   0.00000  Uiso   1.00
O89    O     0.68936   0.17155   0.21857   0.00000  Uiso   1.00
O90    O     0.81065   0.16179   0.11476   0.00000  Uiso   1.00
O91    O     0.68090   0.16176   0.11477   0.00000  Uiso   1.00
O92    O     0.81910   0.17157   0.21857   0.00000  Uiso   1.00
Br93   Br    0.38073   0.61234   0.22058   0.00000  Uiso   1.00
Br94   Br    0.11927   0.38766   0.11275   0.00000  Uiso   1.00
Br95   Br    0.43786   0.33823   0.08299   0.00000  Uiso   1.00
Br96   Br    0.06214   0.66177   0.25034   0.00000  Uiso   1.00
C97    C     0.24865   0.40004   0.15117   0.00000  Uiso   1.00
C98    C     0.09017   0.45170   0.14409   0.00000  Uiso   1.00
C99    C     0.38345   0.50150   0.16464   0.00000  Uiso   1.00
C100   C     0.11655   0.49850   0.16869   0.00000  Uiso   1.00
C101   C     0.40240   0.45454   0.14017   0.00000  Uiso   1.00
C102   C     0.09760   0.54546   0.19316   0.00000  Uiso   1.00
C103   C     0.44913   0.45288   0.14083   0.00000  Uiso   1.00
C104   C     0.05087   0.54713   0.19250   0.00000  Uiso   1.00
C105   C     0.47643   0.50016   0.16597   0.00000  Uiso   1.00
C106   C     0.02357   0.49984   0.16736   0.00000  Uiso   1.00
C107   C     0.45664   0.54784   0.18983   0.00000  Uiso   1.00
C108   C     0.25135   0.59996   0.18217   0.00000  Uiso   1.00
C109   C     0.04336   0.45216   0.14351   0.00000  Uiso   1.00
C110   C     0.46961   0.40568   0.11772   0.00000  Uiso   1.00
C111   C     0.03039   0.59432   0.21561   0.00000  Uiso   1.00
C112   C     0.01598   0.40595   0.11933   0.00000  Uiso   1.00
C113   C     0.48402   0.59405   0.21400   0.00000  Uiso   1.00
C114   C     0.24778   0.34426   0.14240   0.00000  Uiso   1.00
C115   C     0.25222   0.65574   0.19094   0.00000  Uiso   1.00
C116   C     0.16463   0.49935   0.16730   0.00000  Uiso   1.00
C117   C     0.33537   0.50065   0.16603   0.00000  Uiso   1.00
C118   C     0.40983   0.54830   0.18924   0.00000  Uiso   1.00
Cu119  Cu    0.25501   0.50579   0.22813   0.00000  Uiso   1.00
Cu120  Cu    0.24500   0.49421   0.10521   0.00000  Uiso   1.00
F121   F     0.37436   0.41087   0.11730   0.00000  Uiso   1.00
F122   F     0.12564   0.58913   0.21603   0.00000  Uiso   1.00
F123   F     0.24218   0.64853   0.08323   0.00000  Uiso   1.00
F124   F     0.25782   0.35147   0.25010   0.00000  Uiso   1.00
F125   F     0.20659   0.45249   0.30853   0.00000  Uiso   1.00
F126   F     0.29341   0.54751   0.02481   0.00000  Uiso   1.00
H127   H     0.03019   0.36906   0.10112   0.00000  Uiso   1.00
H128   H     0.46981   0.63094   0.23222   0.00000  Uiso   1.00
N129   N     0.23745   0.48547   0.01284   0.00000  Uiso   1.00
N130   N     0.26256   0.51453   0.32049   0.00000  Uiso   1.00
O131   O     0.25326   0.42871   0.20659   0.00000  Uiso   1.00
O132   O     0.24675   0.57129   0.12674   0.00000  Uiso   1.00
O133   O     0.24480   0.41892   0.10279   0.00000  Uiso   1.00
O134   O     0.25520   0.58108   0.23055   0.00000  Uiso   1.00
O135   O     0.18936   0.50488   0.21857   0.00000  Uiso   1.00
O136   O     0.31065   0.49512   0.11476   0.00000  Uiso   1.00
O137   O     0.18090   0.49510   0.11477   0.00000  Uiso   1.00
O138   O     0.31910   0.50490   0.21857   0.00000  Uiso   1.00
Br139  Br    0.88073   0.61234   0.22058   0.00000  Uiso   1.00
Br140  Br    0.61927   0.38766   0.11275   0.00000  Uiso   1.00
Br141  Br    0.93786   0.33823   0.08299   0.00000  Uiso   1.00
Br142  Br    0.56214   0.66177   0.25034   0.00000  Uiso   1.00
C143   C     0.74865   0.40004   0.15117   0.00000  Uiso   1.00
C144   C     0.59017   0.45170   0.14409   0.00000  Uiso   1.00
C145   C     0.88345   0.50150   0.16464   0.00000  Uiso   1.00
C146   C     0.61655   0.49850   0.16869   0.00000  Uiso   1.00
C147   C     0.90240   0.45454   0.14017   0.00000  Uiso   1.00
C148   C     0.59760   0.54546   0.19316   0.00000  Uiso   1.00
C149   C     0.94913   0.45288   0.14083   0.00000  Uiso   1.00
C150   C     0.55087   0.54713   0.19250   0.00000  Uiso   1.00
C151   C     0.97643   0.50016   0.16597   0.00000  Uiso   1.00
C152   C     0.52357   0.49984   0.16736   0.00000  Uiso   1.00
C153   C     0.95664   0.54784   0.18983   0.00000  Uiso   1.00
C154   C     0.75135   0.59996   0.18217   0.00000  Uiso   1.00
C155   C     0.54336   0.45216   0.14351   0.00000  Uiso   1.00
C156   C     0.96961   0.40568   0.11772   0.00000  Uiso   1.00
C157   C     0.53039   0.59432   0.21561   0.00000  Uiso   1.00
C158   C     0.51598   0.40595   0.11933   0.00000  Uiso   1.00
C159   C     0.98402   0.59405   0.21400   0.00000  Uiso   1.00
C160   C     0.74778   0.34426   0.14240   0.00000  Uiso   1.00
C161   C     0.75222   0.65574   0.19094   0.00000  Uiso   1.00
C162   C     0.66463   0.49935   0.16730   0.00000  Uiso   1.00
C163   C     0.83537   0.50065   0.16603   0.00000  Uiso   1.00
C164   C     0.90983   0.54830   0.18924   0.00000  Uiso   1.00
Cu165  Cu    0.75501   0.50579   0.22813   0.00000  Uiso   1.00
Cu166  Cu    0.74500   0.49421   0.10521   0.00000  Uiso   1.00
F167   F     0.87436   0.41087   0.11730   0.00000  Uiso   1.00
F168   F     0.62564   0.58913   0.21603   0.00000  Uiso   1.00
F169   F     0.74218   0.64853   0.08323   0.00000  Uiso   1.00
F170   F     0.75782   0.35147   0.25010   0.00000  Uiso   1.00
F171   F     0.70659   0.45249   0.30853   0.00000  Uiso   1.00
F172   F     0.79341   0.54751   0.02481   0.00000  Uiso   1.00
H173   H     0.53019   0.36906   0.10112   0.00000  Uiso   1.00
H174   H     0.96981   0.63094   0.23222   0.00000  Uiso   1.00
N175   N     0.73745   0.48547   0.01284   0.00000  Uiso   1.00
N176   N     0.76256   0.51453   0.32049   0.00000  Uiso   1.00
O177   O     0.75326   0.42871   0.20659   0.00000  Uiso   1.00
O178   O     0.74675   0.57129   0.12674   0.00000  Uiso   1.00
O179   O     0.74480   0.41892   0.10279   0.00000  Uiso   1.00
O180   O     0.75520   0.58108   0.23055   0.00000  Uiso   1.00
O181   O     0.68936   0.50488   0.21857   0.00000  Uiso   1.00
O182   O     0.81065   0.49512   0.11476   0.00000  Uiso   1.00
O183   O     0.68090   0.49510   0.11477   0.00000  Uiso   1.00
O184   O     0.81910   0.50490   0.21857   0.00000  Uiso   1.00
Br185  Br    0.38073   0.94568   0.22058   0.00000  Uiso   1.00
Br186  Br    0.11927   0.72099   0.11275   0.00000  Uiso   1.00
Br187  Br    0.43786   0.67156   0.08299   0.00000  Uiso   1.00
Br188  Br    0.06214   0.99511   0.25034   0.00000  Uiso   1.00
C189   C     0.24865   0.73337   0.15117   0.00000  Uiso   1.00
C190   C     0.09017   0.78503   0.14409   0.00000  Uiso   1.00
C191   C     0.38345   0.83483   0.16464   0.00000  Uiso   1.00
C192   C     0.11655   0.83184   0.16869   0.00000  Uiso   1.00
C193   C     0.40240   0.78787   0.14017   0.00000  Uiso   1.00
C194   C     0.09760   0.87880   0.19316   0.00000  Uiso   1.00
C195   C     0.44913   0.78621   0.14083   0.00000  Uiso   1.00
C196   C     0.05087   0.88046   0.19250   0.00000  Uiso   1.00
C197   C     0.47643   0.83349   0.16597   0.00000  Uiso   1.00
C198   C     0.02357   0.83318   0.16736   0.00000  Uiso   1.00
C199   C     0.45664   0.88117   0.18983   0.00000  Uiso   1.00
C200   C     0.25135   0.93330   0.18217   0.00000  Uiso   1.00
C201   C     0.04336   0.78549   0.14351   0.00000  Uiso   1.00
C202   C     0.46961   0.73902   0.11772   0.00000  Uiso   1.00
C203   C     0.03039   0.92765   0.21561   0.00000  Uiso   1.00
C204   C     0.01598   0.73928   0.11933   0.00000  Uiso   1.00
C205   C     0.48402   0.92739   0.21400   0.00000  Uiso   1.00
C206   C     0.24778   0.67759   0.14240   0.00000  Uiso   1.00
C207   C     0.25222   0.98907   0.19094   0.00000  Uiso   1.00
C208   C     0.16463   0.83268   0.16730   0.00000  Uiso   1.00
C209   C     0.33537   0.83398   0.16603   0.00000  Uiso   1.00
C210   C     0.40983   0.88163   0.18924   0.00000  Uiso   1.00
Cu211  Cu    0.25501   0.83913   0.22813   0.00000  Uiso   1.00
Cu212  Cu    0.24500   0.82754   0.10521   0.00000  Uiso   1.00
F213   F     0.37436   0.74421   0.11730   0.00000  Uiso   1.00
F214   F     0.12564   0.92246   0.21603   0.00000  Uiso   1.00
F215   F     0.24218   0.98186   0.08323   0.00000  Uiso   1.00
F216   F     0.25782   0.68480   0.25010   0.00000  Uiso   1.00
F217   F     0.20659   0.78583   0.30853   0.00000  Uiso   1.00
F218   F     0.29341   0.88084   0.02481   0.00000  Uiso   1.00
H219   H     0.03019   0.70239   0.10112   0.00000  Uiso   1.00
H220   H     0.46981   0.96427   0.23222   0.00000  Uiso   1.00
N221   N     0.23745   0.81881   0.01284   0.00000  Uiso   1.00
N222   N     0.26256   0.84786   0.32049   0.00000  Uiso   1.00
O223   O     0.25326   0.76204   0.20659   0.00000  Uiso   1.00
O224   O     0.24675   0.90462   0.12674   0.00000  Uiso   1.00
O225   O     0.24480   0.75226   0.10279   0.00000  Uiso   1.00
O226   O     0.25520   0.91441   0.23055   0.00000  Uiso   1.00
O227   O     0.18936   0.83821   0.21857   0.00000  Uiso   1.00
O228   O     0.31065   0.82845   0.11476   0.00000  Uiso   1.00
O229   O     0.18090   0.82843   0.11477   0.00000  Uiso   1.00
O230   O     0.31910   0.83824   0.21857   0.00000  Uiso   1.00
Br231  Br    0.88073   0.94568   0.22058   0.00000  Uiso   1.00
Br232  Br    0.61927   0.72099   0.11275   0.00000  Uiso   1.00
Br233  Br    0.93786   0.67156   0.08299   0.00000  Uiso   1.00
Br234  Br    0.56214   0.99511   0.25034   0.00000  Uiso   1.00
C235   C     0.74865   0.73337   0.15117   0.00000  Uiso   1.00
C236   C     0.59017   0.78503   0.14409   0.00000  Uiso   1.00
C237   C     0.88345   0.83483   0.16464   0.00000  Uiso   1.00
C238   C     0.61655   0.83184   0.16869   0.00000  Uiso   1.00
C239   C     0.90240   0.78787   0.14017   0.00000  Uiso   1.00
C240   C     0.59760   0.87880   0.19316   0.00000  Uiso   1.00
C241   C     0.94913   0.78621   0.14083   0.00000  Uiso   1.00
C242   C     0.55087   0.88046   0.19250   0.00000  Uiso   1.00
C243   C     0.97643   0.83349   0.16597   0.00000  Uiso   1.00
C244   C     0.52357   0.83318   0.16736   0.00000  Uiso   1.00
C245   C     0.95664   0.88117   0.18983   0.00000  Uiso   1.00
C246   C     0.75135   0.93330   0.18217   0.00000  Uiso   1.00
C247   C     0.54336   0.78549   0.14351   0.00000  Uiso   1.00
C248   C     0.96961   0.73902   0.11772   0.00000  Uiso   1.00
C249   C     0.53039   0.92765   0.21561   0.00000  Uiso   1.00
C250   C     0.51598   0.73928   0.11933   0.00000  Uiso   1.00
C251   C     0.98402   0.92739   0.21400   0.00000  Uiso   1.00
C252   C     0.74778   0.67759   0.14240   0.00000  Uiso   1.00
C253   C     0.75222   0.98907   0.19094   0.00000  Uiso   1.00
C254   C     0.66463   0.83268   0.16730   0.00000  Uiso   1.00
C255   C     0.83537   0.83398   0.16603   0.00000  Uiso   1.00
C256   C     0.90983   0.88163   0.18924   0.00000  Uiso   1.00
Cu257  Cu    0.75501   0.83913   0.22813   0.00000  Uiso   1.00
Cu258  Cu    0.74500   0.82754   0.10521   0.00000  Uiso   1.00
F259   F     0.87436   0.74421   0.11730   0.00000  Uiso   1.00
F260   F     0.62564   0.92246   0.21603   0.00000  Uiso   1.00
F261   F     0.74218   0.98186   0.08323   0.00000  Uiso   1.00
F262   F     0.75782   0.68480   0.25010   0.00000  Uiso   1.00
F263   F     0.70659   0.78583   0.30853   0.00000  Uiso   1.00
F264   F     0.79341   0.88084   0.02481   0.00000  Uiso   1.00
H265   H     0.53019   0.70239   0.10112   0.00000  Uiso   1.00
H266   H     0.96981   0.96427   0.23222   0.00000  Uiso   1.00
N267   N     0.73745   0.81881   0.01284   0.00000  Uiso   1.00
N268   N     0.76256   0.84786   0.32049   0.00000  Uiso   1.00
O269   O     0.75326   0.76204   0.20659   0.00000  Uiso   1.00
O270   O     0.74675   0.90462   0.12674   0.00000  Uiso   1.00
O271   O     0.74480   0.75226   0.10279   0.00000  Uiso   1.00
O272   O     0.75520   0.91441   0.23055   0.00000  Uiso   1.00
O273   O     0.68936   0.83821   0.21857   0.00000  Uiso   1.00
O274   O     0.81065   0.82845   0.11476   0.00000  Uiso   1.00
O275   O     0.68090   0.82843   0.11477   0.00000  Uiso   1.00
O276   O     0.81910   0.83824   0.21857   0.00000  Uiso   1.00
Br277  Br    0.38073   0.27901   0.55391   0.00000  Uiso   1.00
Br278  Br    0.11927   0.05432   0.44609   0.00000  Uiso   1.00
Br279  Br    0.43786   0.00489   0.41633   0.00000  Uiso   1.00
Br280  Br    0.06214   0.32844   0.58367   0.00000  Uiso   1.00
C281   C     0.24865   0.06670   0.48450   0.00000  Uiso   1.00
C282   C     0.09017   0.11837   0.47743   0.00000  Uiso   1.00
C283   C     0.38345   0.16816   0.49797   0.00000  Uiso   1.00
C284   C     0.11655   0.16517   0.50203   0.00000  Uiso   1.00
C285   C     0.40240   0.12120   0.47351   0.00000  Uiso   1.00
C286   C     0.09760   0.21213   0.52649   0.00000  Uiso   1.00
C287   C     0.44913   0.11954   0.47417   0.00000  Uiso   1.00
C288   C     0.05087   0.21379   0.52583   0.00000  Uiso   1.00
C289   C     0.47643   0.16682   0.49931   0.00000  Uiso   1.00
C290   C     0.02357   0.16651   0.50069   0.00000  Uiso   1.00
C291   C     0.45664   0.21451   0.52316   0.00000  Uiso   1.00
C292   C     0.25135   0.26663   0.51550   0.00000  Uiso   1.00
C293   C     0.04336   0.11883   0.47684   0.00000  Uiso   1.00
C294   C     0.46961   0.07235   0.45105   0.00000  Uiso   1.00
C295   C     0.03039   0.26098   0.54895   0.00000  Uiso   1.00
C296   C     0.01598   0.07261   0.45266   0.00000  Uiso   1.00
C297   C     0.48402   0.26072   0.54734   0.00000  Uiso   1.00
C298   C     0.24778   0.01093   0.47573   0.00000  Uiso   1.00
C299   C     0.25222   0.32241   0.52427   0.00000  Uiso   1.00
C300   C     0.16463   0.16602   0.50064   0.00000  Uiso   1.00
C301   C     0.33537   0.16732   0.49936   0.00000  Uiso   1.00
C302   C     0.40983   0.21497   0.52257   0.00000  Uiso   1.00
Cu303  Cu    0.25501   0.17246   0.56146   0.00000  Uiso   1.00
Cu304  Cu    0.24500   0.16087   0.43854   0.00000  Uiso   1.00
F305   F     0.37436   0.07754   0.45064   0.00000  Uiso   1.00
F306   F     0.12564   0.25579   0.54936   0.00000  Uiso   1.00
F307   F     0.24218   0.31520   0.41657   0.00000  Uiso   1.00
F308   F     0.25782   0.01814   0.58343   0.00000  Uiso   1.00
F309   F     0.20659   0.11916   0.64186   0.00000  Uiso   1.00
F310   F     0.29341   0.21417   0.35814   0.00000  Uiso   1.00
H311   H     0.03019   0.03573   0.43445   0.00000  Uiso   1.00
H312   H     0.46981   0.29761   0.56555   0.00000  Uiso   1.00
N313   N     0.23745   0.15214   0.34617   0.00000  Uiso   1.00
N314   N     0.26256   0.18119   0.65383   0.00000  Uiso   1.00
O315   O     0.25326   0.09538   0.53992   0.00000  Uiso   1.00
O316   O     0.24675   0.23796   0.46008   0.00000  Uiso   1.00
O317   O     0.24480   0.08559   0.43612   0.00000  Uiso   1.00
O318   O     0.25520   0.24774   0.56388   0.00000  Uiso   1.00
O319   O     0.18936   0.17155   0.55191   0.00000  Uiso   1.00
O320   O     0.31065   0.16179   0.44809   0.00000  Uiso   1.00
O321   O     0.18090   0.16176   0.44810   0.00000  Uiso   1.00
O322   O     0.31910   0.17157   0.55190   0.00000  Uiso   1.00
Br323  Br    0.88073   0.27901   0.55391   0.00000  Uiso   1.00
Br324  Br    0.61927   0.05432   0.44609   0.00000  Uiso   1.00
Br325  Br    0.93786   0.00489   0.41633   0.00000  Uiso   1.00
Br326  Br    0.56214   0.32844   0.58367   0.00000  Uiso   1.00
C327   C     0.74865   0.06670   0.48450   0.00000  Uiso   1.00
C328   C     0.59017   0.11837   0.47743   0.00000  Uiso   1.00
C329   C     0.88345   0.16816   0.49797   0.00000  Uiso   1.00
C330   C     0.61655   0.16517   0.50203   0.00000  Uiso   1.00
C331   C     0.90240   0.12120   0.47351   0.00000  Uiso   1.00
C332   C     0.59760   0.21213   0.52649   0.00000  Uiso   1.00
C333   C     0.94913   0.11954   0.47417   0.00000  Uiso   1.00
C334   C     0.55087   0.21379   0.52583   0.00000  Uiso   1.00
C335   C     0.97643   0.16682   0.49931   0.00000  Uiso   1.00
C336   C     0.52357   0.16651   0.50069   0.00000  Uiso   1.00
C337   C     0.95664   0.21451   0.52316   0.00000  Uiso   1.00
C338   C     0.75135   0.26663   0.51550   0.00000  Uiso   1.00
C339   C     0.54336   0.11883   0.47684   0.00000  Uiso   1.00
C340   C     0.96961   0.07235   0.45105   0.00000  Uiso   1.00
C341   C     0.53039   0.26098   0.54895   0.00000  Uiso   1.00
C342   C     0.51598   0.07261   0.45266   0.00000  Uiso   1.00
C343   C     0.98402   0.26072   0.54734   0.00000  Uiso   1.00
C344   C     0.74778   0.01093   0.47573   0.00000  Uiso   1.00
C345   C     0.75222   0.32241   0.52427   0.00000  Uiso   1.00
C346   C     0.66463   0.16602   0.50064   0.00000  Uiso   1.00
C347   C     0.83537   0.16732   0.49936   0.00000  Uiso   1.00
C348   C     0.90983   0.21497   0.52257   0.00000  Uiso   1.00
Cu349  Cu    0.75501   0.17246   0.56146   0.00000  Uiso   1.00
Cu350  Cu    0.74500   0.16087   0.43854   0.00000  Uiso   1.00
F351   F     0.87436   0.07754   0.45064   0.00000  Uiso   1.00
F352   F     0.62564   0.25579   0.54936   0.00000  Uiso   1.00
F353   F     0.74218   0.31520   0.41657   0.00000  Uiso   1.00
F354   F     0.75782   0.01814   0.58343   0.00000  Uiso   1.00
F355   F     0.70659   0.11916   0.64186   0.00000  Uiso   1.00
F356   F     0.79341   0.21417   0.35814   0.00000  Uiso   1.00
H357   H     0.53019   0.03573   0.43445   0.00000  Uiso   1.00
H358   H     0.96981   0.29761   0.56555   0.00000  Uiso   1.00
N359   N     0.73745   0.15214   0.34617   0.00000  Uiso   1.00
N360   N     0.76256   0.18119   0.65383   0.00000  Uiso   1.00
O361   O     0.75326   0.09538   0.53992   0.00000  Uiso   1.00
O362   O     0.74675   0.23796   0.46008   0.00000  Uiso   1.00
O363   O     0.74480   0.08559   0.43612   0.00000  Uiso   1.00
O364   O     0.75520   0.24774   0.56388   0.00000  Uiso   1.00
O365   O     0.68936   0.17155   0.55191   0.00000  Uiso   1.00
O366   O     0.81065   0.16179   0.44809   0.00000  Uiso   1.00
O367   O     0.68090   0.16176   0.44810   0.00000  Uiso   1.00
O368   O     0.81910   0.17157   0.55190   0.00000  Uiso   1.00
Br369  Br    0.38073   0.61234   0.55391   0.00000  Uiso   1.00
Br370  Br    0.11927   0.38766   0.44609   0.00000  Uiso   1.00
Br371  Br    0.43786   0.33823   0.41633   0.00000  Uiso   1.00
Br372  Br    0.06214   0.66177   0.58367   0.00000  Uiso   1.00
C373   C     0.24865   0.40004   0.48450   0.00000  Uiso   1.00
C374   C     0.09017   0.45170   0.47743   0.00000  Uiso   1.00
C375   C     0.38345   0.50150   0.49797   0.00000  Uiso   1.00
C376   C     0.11655   0.49850   0.50203   0.00000  Uiso   1.00
C377   C     0.40240   0.45454   0.47351   0.00000  Uiso   1.00
C378   C     0.09760   0.54546   0.52649   0.00000  Uiso   1.00
C379   C     0.44913   0.45288   0.47417   0.00000  Uiso   1.00
C380   C     0.05087   0.54713   0.52583   0.00000  Uiso   1.00
C381   C     0.47643   0.50016   0.49931   0.00000  Uiso   1.00
C382   C     0.02357   0.49984   0.50069   0.00000  Uiso   1.00
C383   C     0.45664   0.54784   0.52316   0.00000  Uiso   1.00
C384   C     0.25135   0.59996   0.51550   0.00000  Uiso   1.00
C385   C     0.04336   0.45216   0.47684   0.00000  Uiso   1.00
C386   C     0.46961   0.40568   0.45105   0.00000  Uiso   1.00
C387   C     0.03039   0.59432   0.54895   0.00000  Uiso   1.00
C388   C     0.01598   0.40595   0.45266   0.00000  Uiso   1.00
C389   C     0.48402   0.59405   0.54734   0.00000  Uiso   1.00
C390   C     0.24778   0.34426   0.47573   0.00000  Uiso   1.00
C391   C     0.25222   0.65574   0.52427   0.00000  Uiso   1.00
C392   C     0.16463   0.49935   0.50064   0.00000  Uiso   1.00
C393   C     0.33537   0.50065   0.49936   0.00000  Uiso   1.00
C394   C     0.40983   0.54830   0.52257   0.00000  Uiso   1.00
Cu395  Cu    0.25501   0.50579   0.56146   0.00000  Uiso   1.00
Cu396  Cu    0.24500   0.49421   0.43854   0.00000  Uiso   1.00
F397   F     0.37436   0.41087   0.45064   0.00000  Uiso   1.00
F398   F     0.12564   0.58913   0.54936   0.00000  Uiso   1.00
F399   F     0.24218   0.64853   0.41657   0.00000  Uiso   1.00
F400   F     0.25782   0.35147   0.58343   0.00000  Uiso   1.00
F401   F     0.20659   0.45249   0.64186   0.00000  Uiso   1.00
F402   F     0.29341   0.54751   0.35814   0.00000  Uiso   1.00
H403   H     0.03019   0.36906   0.43445   0.00000  Uiso   1.00
H404   H     0.46981   0.63094   0.56555   0.00000  Uiso   1.00
N405   N     0.23745   0.48547   0.34617   0.00000  Uiso   1.00
N406   N     0.26256   0.51453   0.65383   0.00000  Uiso   1.00
O407   O     0.25326   0.42871   0.53992   0.00000  Uiso   1.00
O408   O     0.24675   0.57129   0.46008   0.00000  Uiso   1.00
O409   O     0.24480   0.41892   0.43612   0.00000  Uiso   1.00
O410   O     0.25520   0.58108   0.56388   0.00000  Uiso   1.00
O411   O     0.18936   0.50488   0.55191   0.00000  Uiso   1.00
O412   O     0.31065   0.49512   0.44809   0.00000  Uiso   1.00
O413   O     0.18090   0.49510   0.44810   0.00000  Uiso   1.00
O414   O     0.31910   0.50490   0.55190   0.00000  Uiso   1.00
Br415  Br    0.88073   0.61234   0.55391   0.00000  Uiso   1.00
Br416  Br    0.61927   0.38766   0.44609   0.00000  Uiso   1.00
Br417  Br    0.93786   0.33823   0.41633   0.00000  Uiso   1.00
Br418  Br    0.56214   0.66177   0.58367   0.00000  Uiso   1.00
C419   C     0.74865   0.40004   0.48450   0.00000  Uiso   1.00
C420   C     0.59017   0.45170   0.47743   0.00000  Uiso   1.00
C421   C     0.88345   0.50150   0.49797   0.00000  Uiso   1.00
C422   C     0.61655   0.49850   0.50203   0.00000  Uiso   1.00
C423   C     0.90240   0.45454   0.47351   0.00000  Uiso   1.00
C424   C     0.59760   0.54546   0.52649   0.00000  Uiso   1.00
C425   C     0.94913   0.45288   0.47417   0.00000  Uiso   1.00
C426   C     0.55087   0.54713   0.52583   0.00000  Uiso   1.00
C427   C     0.97643   0.50016   0.49931   0.00000  Uiso   1.00
C428   C     0.52357   0.49984   0.50069   0.00000  Uiso   1.00
C429   C     0.95664   0.54784   0.52316   0.00000  Uiso   1.00
C430   C     0.75135   0.59996   0.51550   0.00000  Uiso   1.00
C431   C     0.54336   0.45216   0.47684   0.00000  Uiso   1.00
C432   C     0.96961   0.40568   0.45105   0.00000  Uiso   1.00
C433   C     0.53039   0.59432   0.54895   0.00000  Uiso   1.00
C434   C     0.51598   0.40595   0.45266   0.00000  Uiso   1.00
C435   C     0.98402   0.59405   0.54734   0.00000  Uiso   1.00
C436   C     0.74778   0.34426   0.47573   0.00000  Uiso   1.00
C437   C     0.75222   0.65574   0.52427   0.00000  Uiso   1.00
C438   C     0.66463   0.49935   0.50064   0.00000  Uiso   1.00
C439   C     0.83537   0.50065   0.49936   0.00000  Uiso   1.00
C440   C     0.90983   0.54830   0.52257   0.00000  Uiso   1.00
Cu441  Cu    0.75501   0.50579   0.56146   0.00000  Uiso   1.00
Cu442  Cu    0.74500   0.49421   0.43854   0.00000  Uiso   1.00
F443   F     0.87436   0.41087   0.45064   0.00000  Uiso   1.00
F444   F     0.62564   0.58913   0.54936   0.00000  Uiso   1.00
F445   F     0.74218   0.64853   0.41657   0.00000  Uiso   1.00
F446   F     0.75782   0.35147   0.58343   0.00000  Uiso   1.00
F447   F     0.70659   0.45249   0.64186   0.00000  Uiso   1.00
F448   F     0.79341   0.54751   0.35814   0.00000  Uiso   1.00
H449   H     0.53019   0.36906   0.43445   0.00000  Uiso   1.00
H450   H     0.96981   0.63094   0.56555   0.00000  Uiso   1.00
N451   N     0.73745   0.48547   0.34617   0.00000  Uiso   1.00
N452   N     0.76256   0.51453   0.65383   0.00000  Uiso   1.00
O453   O     0.75326   0.42871   0.53992   0.00000  Uiso   1.00
O454   O     0.74675   0.57129   0.46008   0.00000  Uiso   1.00
O455   O     0.74480   0.41892   0.43612   0.00000  Uiso   1.00
O456   O     0.75520   0.58108   0.56388   0.00000  Uiso   1.00
O457   O     0.68936   0.50488   0.55191   0.00000  Uiso   1.00
O458   O     0.81065   0.49512   0.44809   0.00000  Uiso   1.00
O459   O     0.68090   0.49510   0.44810   0.00000  Uiso   1.00
O460   O     0.81910   0.50490   0.55190   0.00000  Uiso   1.00
Br461  Br    0.38073   0.94568   0.55391   0.00000  Uiso   1.00
Br462  Br    0.11927   0.72099   0.44609   0.00000  Uiso   1.00
Br463  Br    0.43786   0.67156   0.41633   0.00000  Uiso   1.00
Br464  Br    0.06214   0.99511   0.58367   0.00000  Uiso   1.00
C465   C     0.24865   0.73337   0.48450   0.00000  Uiso   1.00
C466   C     0.09017   0.78503   0.47743   0.00000  Uiso   1.00
C467   C     0.38345   0.83483   0.49797   0.00000  Uiso   1.00
C468   C     0.11655   0.83184   0.50203   0.00000  Uiso   1.00
C469   C     0.40240   0.78787   0.47351   0.00000  Uiso   1.00
C470   C     0.09760   0.87880   0.52649   0.00000  Uiso   1.00
C471   C     0.44913   0.78621   0.47417   0.00000  Uiso   1.00
C472   C     0.05087   0.88046   0.52583   0.00000  Uiso   1.00
C473   C     0.47643   0.83349   0.49931   0.00000  Uiso   1.00
C474   C     0.02357   0.83318   0.50069   0.00000  Uiso   1.00
C475   C     0.45664   0.88117   0.52316   0.00000  Uiso   1.00
C476   C     0.25135   0.93330   0.51550   0.00000  Uiso   1.00
C477   C     0.04336   0.78549   0.47684   0.00000  Uiso   1.00
C478   C     0.46961   0.73902   0.45105   0.00000  Uiso   1.00
C479   C     0.03039   0.92765   0.54895   0.00000  Uiso   1.00
C480   C     0.01598   0.73928   0.45266   0.00000  Uiso   1.00
C481   C     0.48402   0.92739   0.54734   0.00000  Uiso   1.00
C482   C     0.24778   0.67759   0.47573   0.00000  Uiso   1.00
C483   C     0.25222   0.98907   0.52427   0.00000  Uiso   1.00
C484   C     0.16463   0.83268   0.50064   0.00000  Uiso   1.00
C485   C     0.33537   0.83398   0.49936   0.00000  Uiso   1.00
C486   C     0.40983   0.88163   0.52257   0.00000  Uiso   1.00
Cu487  Cu    0.25501   0.83913   0.56146   0.00000  Uiso   1.00
Cu488  Cu    0.24500   0.82754   0.43854   0.00000  Uiso   1.00
F489   F     0.37436   0.74421   0.45064   0.00000  Uiso   1.00
F490   F     0.12564   0.92246   0.54936   0.00000  Uiso   1.00
F491   F     0.24218   0.98186   0.41657   0.00000  Uiso   1.00
F492   F     0.25782   0.68480   0.58343   0.00000  Uiso   1.00
F493   F     0.20659   0.78583   0.64186   0.00000  Uiso   1.00
F494   F     0.29341   0.88084   0.35814   0.00000  Uiso   1.00
H495   H     0.03019   0.70239   0.43445   0.00000  Uiso   1.00
H496   H     0.46981   0.96427   0.56555   0.00000  Uiso   1.00
N497   N     0.23745   0.81881   0.34617   0.00000  Uiso   1.00
N498   N     0.26256   0.84786   0.65383   0.00000  Uiso   1.00
O499   O     0.25326   0.76204   0.53992   0.00000  Uiso   1.00
O500   O     0.24675   0.90462   0.46008   0.00000  Uiso   1.00
O501   O     0.24480   0.75226   0.43612   0.00000  Uiso   1.00
O502   O     0.25520   0.91441   0.56388   0.00000  Uiso   1.00
O503   O     0.18936   0.83821   0.55191   0.00000  Uiso   1.00
O504   O     0.31065   0.82845   0.44809   0.00000  Uiso   1.00
O505   O     0.18090   0.82843   0.44810   0.00000  Uiso   1.00
O506   O     0.31910   0.83824   0.55190   0.00000  Uiso   1.00
Br507  Br    0.88073   0.94568   0.55391   0.00000  Uiso   1.00
Br508  Br    0.61927   0.72099   0.44609   0.00000  Uiso   1.00
Br509  Br    0.93786   0.67156   0.41633   0.00000  Uiso   1.00
Br510  Br    0.56214   0.99511   0.58367   0.00000  Uiso   1.00
C511   C     0.74865   0.73337   0.48450   0.00000  Uiso   1.00
C512   C     0.59017   0.78503   0.47743   0.00000  Uiso   1.00
C513   C     0.88345   0.83483   0.49797   0.00000  Uiso   1.00
C514   C     0.61655   0.83184   0.50203   0.00000  Uiso   1.00
C515   C     0.90240   0.78787   0.47351   0.00000  Uiso   1.00
C516   C     0.59760   0.87880   0.52649   0.00000  Uiso   1.00
C517   C     0.94913   0.78621   0.47417   0.00000  Uiso   1.00
C518   C     0.55087   0.88046   0.52583   0.00000  Uiso   1.00
C519   C     0.97643   0.83349   0.49931   0.00000  Uiso   1.00
C520   C     0.52357   0.83318   0.50069   0.00000  Uiso   1.00
C521   C     0.95664   0.88117   0.52316   0.00000  Uiso   1.00
C522   C     0.75135   0.93330   0.51550   0.00000  Uiso   1.00
C523   C     0.54336   0.78549   0.47684   0.00000  Uiso   1.00
C524   C     0.96961   0.73902   0.45105   0.00000  Uiso   1.00
C525   C     0.53039   0.92765   0.54895   0.00000  Uiso   1.00
C526   C     0.51598   0.73928   0.45266   0.00000  Uiso   1.00
C527   C     0.98402   0.92739   0.54734   0.00000  Uiso   1.00
C528   C     0.74778   0.67759   0.47573   0.00000  Uiso   1.00
C529   C     0.75222   0.98907   0.52427   0.00000  Uiso   1.00
C530   C     0.66463   0.83268   0.50064   0.00000  Uiso   1.00
C531   C     0.83537   0.83398   0.49936   0.00000  Uiso   1.00
C532   C     0.90983   0.88163   0.52257   0.00000  Uiso   1.00
Cu533  Cu    0.75501   0.83913   0.56146   0.00000  Uiso   1.00
Cu534  Cu    0.74500   0.82754   0.43854   0.00000  Uiso   1.00
F535   F     0.87436   0.74421   0.45064   0.00000  Uiso   1.00
F536   F     0.62564   0.92246   0.54936   0.00000  Uiso   1.00
F537   F     0.74218   0.98186   0.41657   0.00000  Uiso   1.00
F538   F     0.75782   0.68480   0.58343   0.00000  Uiso   1.00
F539   F     0.70659   0.78583   0.64186   0.00000  Uiso   1.00
F540   F     0.79341   0.88084   0.35814   0.00000  Uiso   1.00
H541   H     0.53019   0.70239   0.43445   0.00000  Uiso   1.00
H542   H     0.96981   0.96427   0.56555   0.00000  Uiso   1.00
N543   N     0.73745   0.81881   0.34617   0.00000  Uiso   1.00
N544   N     0.76256   0.84786   0.65383   0.00000  Uiso   1.00
O545   O     0.75326   0.76204   0.53992   0.00000  Uiso   1.00
O546   O     0.74675   0.90462   0.46008   0.00000  Uiso   1.00
O547   O     0.74480   0.75226   0.43612   0.00000  Uiso   1.00
O548   O     0.75520   0.91441   0.56388   0.00000  Uiso   1.00
O549   O     0.68936   0.83821   0.55191   0.00000  Uiso   1.00
O550   O     0.81065   0.82845   0.44809   0.00000  Uiso   1.00
O551   O     0.68090   0.82843   0.44810   0.00000  Uiso   1.00
O552   O     0.81910   0.83824   0.55190   0.00000  Uiso   1.00
Br553  Br    0.38073   0.27901   0.88725   0.00000  Uiso   1.00
Br554  Br    0.11927   0.05432   0.77942   0.00000  Uiso   1.00
Br555  Br    0.43786   0.00489   0.74966   0.00000  Uiso   1.00
Br556  Br    0.06214   0.32844   0.91701   0.00000  Uiso   1.00
C557   C     0.24865   0.06670   0.81783   0.00000  Uiso   1.00
C558   C     0.09017   0.11837   0.81076   0.00000  Uiso   1.00
C559   C     0.38345   0.16816   0.83131   0.00000  Uiso   1.00
C560   C     0.11655   0.16517   0.83536   0.00000  Uiso   1.00
C561   C     0.40240   0.12120   0.80684   0.00000  Uiso   1.00
C562   C     0.09760   0.21213   0.85983   0.00000  Uiso   1.00
C563   C     0.44913   0.11954   0.80750   0.00000  Uiso   1.00
C564   C     0.05087   0.21379   0.85917   0.00000  Uiso   1.00
C565   C     0.47643   0.16682   0.83264   0.00000  Uiso   1.00
C566   C     0.02357   0.16651   0.83403   0.00000  Uiso   1.00
C567   C     0.45664   0.21451   0.85649   0.00000  Uiso   1.00
C568   C     0.25135   0.26663   0.84883   0.00000  Uiso   1.00
C569   C     0.04336   0.11883   0.81017   0.00000  Uiso   1.00
C570   C     0.46961   0.07235   0.78439   0.00000  Uiso   1.00
C571   C     0.03039   0.26098   0.88228   0.00000  Uiso   1.00
C572   C     0.01598   0.07261   0.78600   0.00000  Uiso   1.00
C573   C     0.48402   0.26072   0.88067   0.00000  Uiso   1.00
C574   C     0.24778   0.01093   0.80906   0.00000  Uiso   1.00
C575   C     0.25222   0.32241   0.85760   0.00000  Uiso   1.00
C576   C     0.16463   0.16602   0.83397   0.00000  Uiso   1.00
C577   C     0.33537   0.16732   0.83270   0.00000  Uiso   1.00
C578   C     0.40983   0.21497   0.85591   0.00000  Uiso   1.00
Cu579  Cu    0.25501   0.17246   0.89479   0.00000  Uiso   1.00
Cu580  Cu    0.24500   0.16087   0.77187   0.00000  Uiso   1.00
F581   F     0.37436   0.07754   0.78397   0.00000  Uiso   1.00
F582   F     0.12564   0.25579   0.88270   0.00000  Uiso   1.00
F583   F     0.24218   0.31520   0.74990   0.00000  Uiso   1.00
F584   F     0.25782   0.01814   0.91677   0.00000  Uiso   1.00
F585   F     0.20659   0.11916   0.97519   0.00000  Uiso   1.00
F586   F     0.29341   0.21417   0.69147   0.00000  Uiso   1.00
H587   H     0.03019   0.03573   0.76778   0.00000  Uiso   1.00
H588   H     0.46981   0.29761   0.89888   0.00000  Uiso   1.00
N589   N     0.23745   0.15214   0.67951   0.00000  Uiso   1.00
N590   N     0.26256   0.18119   0.98716   0.00000  Uiso   1.00
O591   O     0.25326   0.09538   0.87326   0.00000  Uiso   1.00
O592   O     0.24675   0.23796   0.79341   0.00000  Uiso   1.00
O593   O     0.24480   0.08559   0.76945   0.00000  Uiso   1.00
O594   O     0.25520   0.24774   0.89721   0.00000  Uiso   1.00
O595   O     0.18936   0.17155   0.88524   0.00000  Uiso   1.00
O596   O     0.31065   0.16179   0.78143   0.00000  Uiso   1.00
O597   O     0.18090   0.16176   0.78143   0.00000  Uiso   1.00
O598   O     0.31910   0.17157   0.88523   0.00000  Uiso   1.00
Br599  Br    0.88073   0.27901   0.88725   0.00000  Uiso   1.00
Br600  Br    0.61927   0.05432   0.77942   0.00000  Uiso   1.00
Br601  Br    0.93786   0.00489   0.74966   0.00000  Uiso   1.00
Br602  Br    0.56214   0.32844   0.91701   0.00000  Uiso   1.00
C603   C     0.74865   0.06670   0.81783   0.00000  Uiso   1.00
C604   C     0.59017   0.11837   0.81076   0.00000  Uiso   1.00
C605   C     0.88345   0.16816   0.83131   0.00000  Uiso   1.00
C606   C     0.61655   0.16517   0.83536   0.00000  Uiso   1.00
C607   C     0.90240   0.12120   0.80684   0.00000  Uiso   1.00
C608   C     0.59760   0.21213   0.85983   0.00000  Uiso   1.00
C609   C     0.94913   0.11954   0.80750   0.00000  Uiso   1.00
C610   C     0.55087   0.21379   0.85917   0.00000  Uiso   1.00
C611   C     0.97643   0.16682   0.83264   0.00000  Uiso   1.00
C612   C     0.52357   0.16651   0.83403   0.00000  Uiso   1.00
C613   C     0.95664   0.21451   0.85649   0.00000  Uiso   1.00
C614   C     0.75135   0.26663   0.84883   0.00000  Uiso   1.00
C615   C     0.54336   0.11883   0.81017   0.00000  Uiso   1.00
C616   C     0.96961   0.07235   0.78439   0.00000  Uiso   1.00
C617   C     0.53039   0.26098   0.88228   0.00000  Uiso   1.00
C618   C     0.51598   0.07261   0.78600   0.00000  Uiso   1.00
C619   C     0.98402   0.26072   0.88067   0.00000  Uiso   1.00
C620   C     0.74778   0.01093   0.80906   0.00000  Uiso   1.00
C621   C     0.75222   0.32241   0.85760   0.00000  Uiso   1.00
C622   C     0.66463   0.16602   0.83397   0.00000  Uiso   1.00
C623   C     0.83537   0.16732   0.83270   0.00000  Uiso   1.00
C624   C     0.90983   0.21497   0.85591   0.00000  Uiso   1.00
Cu625  Cu    0.75501   0.17246   0.89479   0.00000  Uiso   1.00
Cu626  Cu    0.74500   0.16087   0.77187   0.00000  Uiso   1.00
F627   F     0.87436   0.07754   0.78397   0.00000  Uiso   1.00
F628   F     0.62564   0.25579   0.88270   0.00000  Uiso   1.00
F629   F     0.74218   0.31520   0.74990   0.00000  Uiso   1.00
F630   F     0.75782   0.01814   0.91677   0.00000  Uiso   1.00
F631   F     0.70659   0.11916   0.97519   0.00000  Uiso   1.00
F632   F     0.79341   0.21417   0.69147   0.00000  Uiso   1.00
H633   H     0.53019   0.03573   0.76778   0.00000  Uiso   1.00
H634   H     0.96981   0.29761   0.89888   0.00000  Uiso   1.00
N635   N     0.73745   0.15214   0.67951   0.00000  Uiso   1.00
N636   N     0.76256   0.18119   0.98716   0.00000  Uiso   1.00
O637   O     0.75326   0.09538   0.87326   0.00000  Uiso   1.00
O638   O     0.74675   0.23796   0.79341   0.00000  Uiso   1.00
O639   O     0.74480   0.08559   0.76945   0.00000  Uiso   1.00
O640   O     0.75520   0.24774   0.89721   0.00000  Uiso   1.00
O641   O     0.68936   0.17155   0.88524   0.00000  Uiso   1.00
O642   O     0.81065   0.16179   0.78143   0.00000  Uiso   1.00
O643   O     0.68090   0.16176   0.78143   0.00000  Uiso   1.00
O644   O     0.81910   0.17157   0.88523   0.00000  Uiso   1.00
Br645  Br    0.38073   0.61234   0.88725   0.00000  Uiso   1.00
Br646  Br    0.11927   0.38766   0.77942   0.00000  Uiso   1.00
Br647  Br    0.43786   0.33823   0.74966   0.00000  Uiso   1.00
Br648  Br    0.06214   0.66177   0.91701   0.00000  Uiso   1.00
C649   C     0.24865   0.40004   0.81783   0.00000  Uiso   1.00
C650   C     0.09017   0.45170   0.81076   0.00000  Uiso   1.00
C651   C     0.38345   0.50150   0.83131   0.00000  Uiso   1.00
C652   C     0.11655   0.49850   0.83536   0.00000  Uiso   1.00
C653   C     0.40240   0.45454   0.80684   0.00000  Uiso   1.00
C654   C     0.09760   0.54546   0.85983   0.00000  Uiso   1.00
C655   C     0.44913   0.45288   0.80750   0.00000  Uiso   1.00
C656   C     0.05087   0.54713   0.85917   0.00000  Uiso   1.00
C657   C     0.47643   0.50016   0.83264   0.00000  Uiso   1.00
C658   C     0.02357   0.49984   0.83403   0.00000  Uiso   1.00
C659   C     0.45664   0.54784   0.85649   0.00000  Uiso   1.00
C660   C     0.25135   0.59996   0.84883   0.00000  Uiso   1.00
C661   C     0.04336   0.45216   0.81017   0.00000  Uiso   1.00
C662   C     0.46961   0.40568   0.78439   0.00000  Uiso   1.00
C663   C     0.03039   0.59432   0.88228   0.00000  Uiso   1.00
C664   C     0.01598   0.40595   0.78600   0.00000  Uiso   1.00
C665   C     0.48402   0.59405   0.88067   0.00000  Uiso   1.00
C666   C     0.24778   0.34426   0.80906   0.00000  Uiso   1.00
C667   C     0.25222   0.65574   0.85760   0.00000  Uiso   1.00
C668   C     0.16463   0.49935   0.83397   0.00000  Uiso   1.00
C669   C     0.33537   0.50065   0.83270   0.00000  Uiso   1.00
C670   C     0.40983   0.54830   0.85591   0.00000  Uiso   1.00
Cu671  Cu    0.25501   0.50579   0.89479   0.00000  Uiso   1.00
Cu672  Cu    0.24500   0.49421   0.77187   0.00000  Uiso   1.00
F673   F     0.37436   0.41087   0.78397   0.00000  Uiso   1.00
F674   F     0.12564   0.58913   0.88270   0.00000  Uiso   1.00
F675   F     0.24218   0.64853   0.74990   0.00000  Uiso   1.00
F676   F     0.25782   0.35147   0.91677   0.00000  Uiso   1.00
F677   F     0.20659   0.45249   0.97519   0.00000  Uiso   1.00
F678   F     0.29341   0.54751   0.69147   0.00000  Uiso   1.00
H679   H     0.03019   0.36906   0.76778   0.00000  Uiso   1.00
H680   H     0.46981   0.63094   0.89888   0.00000  Uiso   1.00
N681   N     0.23745   0.48547   0.67951   0.00000  Uiso   1.00
N682   N     0.26256   0.51453   0.98716   0.00000  Uiso   1.00
O683   O     0.25326   0.42871   0.87326   0.00000  Uiso   1.00
O684   O     0.24675   0.57129   0.79341   0.00000  Uiso   1.00
O685   O     0.24480   0.41892   0.76945   0.00000  Uiso   1.00
O686   O     0.25520   0.58108   0.89721   0.00000  Uiso   1.00
O687   O     0.18936   0.50488   0.88524   0.00000  Uiso   1.00
O688   O     0.31065   0.49512   0.78143   0.00000  Uiso   1.00
O689   O     0.18090   0.49510   0.78143   0.00000  Uiso   1.00
O690   O     0.31910   0.50490   0.88523   0.00000  Uiso   1.00
Br691  Br    0.88073   0.61234   0.88725   0.00000  Uiso   1.00
Br692  Br    0.61927   0.38766   0.77942   0.00000  Uiso   1.00
Br693  Br    0.93786   0.33823   0.74966   0.00000  Uiso   1.00
Br694  Br    0.56214   0.66177   0.91701   0.00000  Uiso   1.00
C695   C     0.74865   0.40004   0.81783   0.00000  Uiso   1.00
C696   C     0.59017   0.45170   0.81076   0.00000  Uiso   1.00
C697   C     0.88345   0.50150   0.83131   0.00000  Uiso   1.00
C698   C     0.61655   0.49850   0.83536   0.00000  Uiso   1.00
C699   C     0.90240   0.45454   0.80684   0.00000  Uiso   1.00
C700   C     0.59760   0.54546   0.85983   0.00000  Uiso   1.00
C701   C     0.94913   0.45288   0.80750   0.00000  Uiso   1.00
C702   C     0.55087   0.54713   0.85917   0.00000  Uiso   1.00
C703   C     0.97643   0.50016   0.83264   0.00000  Uiso   1.00
C704   C     0.52357   0.49984   0.83403   0.00000  Uiso   1.00
C705   C     0.95664   0.54784   0.85649   0.00000  Uiso   1.00
C706   C     0.75135   0.59996   0.84883   0.00000  Uiso   1.00
C707   C     0.54336   0.45216   0.81017   0.00000  Uiso   1.00
C708   C     0.96961   0.40568   0.78439   0.00000  Uiso   1.00
C709   C     0.53039   0.59432   0.88228   0.00000  Uiso   1.00
C710   C     0.51598   0.40595   0.78600   0.00000  Uiso   1.00
C711   C     0.98402   0.59405   0.88067   0.00000  Uiso   1.00
C712   C     0.74778   0.34426   0.80906   0.00000  Uiso   1.00
C713   C     0.75222   0.65574   0.85760   0.00000  Uiso   1.00
C714   C     0.66463   0.49935   0.83397   0.00000  Uiso   1.00
C715   C     0.83537   0.50065   0.83270   0.00000  Uiso   1.00
C716   C     0.90983   0.54830   0.85591   0.00000  Uiso   1.00
Cu717  Cu    0.75501   0.50579   0.89479   0.00000  Uiso   1.00
Cu718  Cu    0.74500   0.49421   0.77187   0.00000  Uiso   1.00
F719   F     0.87436   0.41087   0.78397   0.00000  Uiso   1.00
F720   F     0.62564   0.58913   0.88270   0.00000  Uiso   1.00
F721   F     0.74218   0.64853   0.74990   0.00000  Uiso   1.00
F722   F     0.75782   0.35147   0.91677   0.00000  Uiso   1.00
F723   F     0.70659   0.45249   0.97519   0.00000  Uiso   1.00
F724   F     0.79341   0.54751   0.69147   0.00000  Uiso   1.00
H725   H     0.53019   0.36906   0.76778   0.00000  Uiso   1.00
H726   H     0.96981   0.63094   0.89888   0.00000  Uiso   1.00
N727   N     0.73745   0.48547   0.67951   0.00000  Uiso   1.00
N728   N     0.76256   0.51453   0.98716   0.00000  Uiso   1.00
O729   O     0.75326   0.42871   0.87326   0.00000  Uiso   1.00
O730   O     0.74675   0.57129   0.79341   0.00000  Uiso   1.00
O731   O     0.74480   0.41892   0.76945   0.00000  Uiso   1.00
O732   O     0.75520   0.58108   0.89721   0.00000  Uiso   1.00
O733   O     0.68936   0.50488   0.88524   0.00000  Uiso   1.00
O734   O     0.81065   0.49512   0.78143   0.00000  Uiso   1.00
O735   O     0.68090   0.49510   0.78143   0.00000  Uiso   1.00
O736   O     0.81910   0.50490   0.88523   0.00000  Uiso   1.00
Br737  Br    0.38073   0.94568   0.88725   0.00000  Uiso   1.00
Br738  Br    0.11927   0.72099   0.77942   0.00000  Uiso   1.00
Br739  Br    0.43786   0.67156   0.74966   0.00000  Uiso   1.00
Br740  Br    0.06214   0.99511   0.91701   0.00000  Uiso   1.00
C741   C     0.24865   0.73337   0.81783   0.00000  Uiso   1.00
C742   C     0.09017   0.78503   0.81076   0.00000  Uiso   1.00
C743   C     0.38345   0.83483   0.83131   0.00000  Uiso   1.00
C744   C     0.11655   0.83184   0.83536   0.00000  Uiso   1.00
C745   C     0.40240   0.78787   0.80684   0.00000  Uiso   1.00
C746   C     0.09760   0.87880   0.85983   0.00000  Uiso   1.00
C747   C     0.44913   0.78621   0.80750   0.00000  Uiso   1.00
C748   C     0.05087   0.88046   0.85917   0.00000  Uiso   1.00
C749   C     0.47643   0.83349   0.83264   0.00000  Uiso   1.00
C750   C     0.02357   0.83318   0.83403   0.00000  Uiso   1.00
C751   C     0.45664   0.88117   0.85649   0.00000  Uiso   1.00
C752   C     0.25135   0.93330   0.84883   0.00000  Uiso   1.00
C753   C     0.04336   0.78549   0.81017   0.00000  Uiso   1.00
C754   C     0.46961   0.73902   0.78439   0.00000  Uiso   1.00
C755   C     0.03039   0.92765   0.88228   0.00000  Uiso   1.00
C756   C     0.01598   0.73928   0.78600   0.00000  Uiso   1.00
C757   C     0.48402   0.92739   0.88067   0.00000  Uiso   1.00
C758   C     0.24778   0.67759   0.80906   0.00000  Uiso   1.00
C759   C     0.25222   0.98907   0.85760   0.00000  Uiso   1.00
C760   C     0.16463   0.83268   0.83397   0.00000  Uiso   1.00
C761   C     0.33537   0.83398   0.83270   0.00000  Uiso   1.00
C762   C     0.40983   0.88163   0.85591   0.00000  Uiso   1.00
Cu763  Cu    0.25501   0.83913   0.89479   0.00000  Uiso   1.00
Cu764  Cu    0.24500   0.82754   0.77187   0.00000  Uiso   1.00
F765   F     0.37436   0.74421   0.78397   0.00000  Uiso   1.00
F766   F     0.12564   0.92246   0.88270   0.00000  Uiso   1.00
F767   F     0.24218   0.98186   0.74990   0.00000  Uiso   1.00
F768   F     0.25782   0.68480   0.91677   0.00000  Uiso   1.00
F769   F     0.20659   0.78583   0.97519   0.00000  Uiso   1.00
F770   F     0.29341   0.88084   0.69147   0.00000  Uiso   1.00
H771   H     0.03019   0.70239   0.76778   0.00000  Uiso   1.00
H772   H     0.46981   0.96427   0.89888   0.00000  Uiso   1.00
N773   N     0.23745   0.81881   0.67951   0.00000  Uiso   1.00
N774   N     0.26256   0.84786   0.98716   0.00000  Uiso   1.00
O775   O     0.25326   0.76204   0.87326   0.00000  Uiso   1.00
O776   O     0.24675   0.90462   0.79341   0.00000  Uiso   1.00
O777   O     0.24480   0.75226   0.76945   0.00000  Uiso   1.00
O778   O     0.25520   0.91441   0.89721   0.00000  Uiso   1.00
O779   O     0.18936   0.83821   0.88524   0.00000  Uiso   1.00
O780   O     0.31065   0.82845   0.78143   0.00000  Uiso   1.00
O781   O     0.18090   0.82843   0.78143   0.00000  Uiso   1.00
O782   O     0.31910   0.83824   0.88523   0.00000  Uiso   1.00
Br783  Br    0.88073   0.94568   0.88725   0.00000  Uiso   1.00
Br784  Br    0.61927   0.72099   0.77942   0.00000  Uiso   1.00
Br785  Br    0.93786   0.67156   0.74966   0.00000  Uiso   1.00
Br786  Br    0.56214   0.99511   0.91701   0.00000  Uiso   1.00
C787   C     0.74865   0.73337   0.81783   0.00000  Uiso   1.00
C788   C     0.59017   0.78503   0.81076   0.00000  Uiso   1.00
C789   C     0.88345   0.83483   0.83131   0.00000  Uiso   1.00
C790   C     0.61655   0.83184   0.83536   0.00000  Uiso   1.00
C791   C     0.90240   0.78787   0.80684   0.00000  Uiso   1.00
C792   C     0.59760   0.87880   0.85983   0.00000  Uiso   1.00
C793   C     0.94913   0.78621   0.80750   0.00000  Uiso   1.00
C794   C     0.55087   0.88046   0.85917   0.00000  Uiso   1.00
C795   C     0.97643   0.83349   0.83264   0.00000  Uiso   1.00
C796   C     0.52357   0.83318   0.83403   0.00000  Uiso   1.00
C797   C     0.95664   0.88117   0.85649   0.00000  Uiso   1.00
C798   C     0.75135   0.93330   0.84883   0.00000  Uiso   1.00
C799   C     0.54336   0.78549   0.81017   0.00000  Uiso   1.00
C800   C     0.96961   0.73902   0.78439   0.00000  Uiso   1.00
C801   C     0.53039   0.92765   0.88228   0.00000  Uiso   1.00
C802   C     0.51598   0.73928   0.78600   0.00000  Uiso   1.00
C803   C     0.98402   0.92739   0.88067   0.00000  Uiso   1.00
C804   C     0.74778   0.67759   0.80906   0.00000  Uiso   1.00
C805   C     0.75222   0.98907   0.85760   0.00000  Uiso   1.00
C806   C     0.66463   0.83268   0.83397   0.00000  Uiso   1.00
C807   C     0.83537   0.83398   0.83270   0.00000  Uiso   1.00
C808   C     0.90983   0.88163   0.85591   0.00000  Uiso   1.00
Cu809  Cu    0.75501   0.83913   0.89479   0.00000  Uiso   1.00
Cu810  Cu    0.74500   0.82754   0.77187   0.00000  Uiso   1.00
F811   F     0.87436   0.74421   0.78397   0.00000  Uiso   1.00
F812   F     0.62564   0.92246   0.88270   0.00000  Uiso   1.00
F813   F     0.74218   0.98186   0.74990   0.00000  Uiso   1.00
F814   F     0.75782   0.68480   0.91677   0.00000  Uiso   1.00
F815   F     0.70659   0.78583   0.97519   0.00000  Uiso   1.00
F816   F     0.79341   0.88084   0.69147   0.00000  Uiso   1.00
H817   H     0.53019   0.70239   0.76778   0.00000  Uiso   1.00
H818   H     0.96981   0.96427   0.89888   0.00000  Uiso   1.00
N819   N     0.73745   0.81881   0.67951   0.00000  Uiso   1.00
N820   N     0.76256   0.84786   0.98716   0.00000  Uiso   1.00
O821   O     0.75326   0.76204   0.87326   0.00000  Uiso   1.00
O822   O     0.74675   0.90462   0.79341   0.00000  Uiso   1.00
O823   O     0.74480   0.75226   0.76945   0.00000  Uiso   1.00
O824   O     0.75520   0.91441   0.89721   0.00000  Uiso   1.00
O825   O     0.68936   0.83821   0.88524   0.00000  Uiso   1.00
O826   O     0.81065   0.82845   0.78143   0.00000  Uiso   1.00
O827   O     0.68090   0.82843   0.78143   0.00000  Uiso   1.00
O828   O     0.81910   0.83824   0.88523   0.00000  Uiso   1.00
loop_
_geom_bond_atom_site_label_1
_geom_bond_atom_site_label_2
_geom_bond_distance
_geom_bond_site_symmetry_2
_ccdc_geom_bond_type
Br1    C26     1.940   .     S
Br2    C6      1.940   .     S
Br3    C18     1.928   .     S
Br4    C19     1.928   .     S
C5     O39     1.290   .     A
C5     O41     1.288   .     A
C5     C22     1.425   .     S
C6     C17     1.403   .     A
C6     C8      1.399   .     A
C7     C26     1.399   .     A
C7     C9      1.394   .     A
C7     C25     1.443   .     S
C8     C10     1.394   .     A
C8     C24     1.443   .     S
C9     F29     1.358   .     S
C9     C11     1.403   .     A
C10    F30     1.358   .     S
C10    C12     1.403   .     A
C11    C18     1.415   .     A
C11    C13     1.424   .     A
C12    C19     1.415   .     A
C12    C14     1.424   .     A
C13    C15     1.418   .     A
C13    C60     1.412   .     S
C14    C17     1.418   .     A
C14    C59     1.412   1_455 S
C15    C21     1.401   .     A
C15    C26     1.403   .     A
C16    O40     1.290   .     A
C16    C23     1.425   .     S
C16    O42     1.288   .     A
C17    C20     1.401   .     A
C18    C66     1.388   .     S
C19    C67     1.388   1_455 S
C20    H35     1.080   .     S
C20    C64     1.388   1_455 S
C21    H36     1.080   .     S
C21    C65     1.388   .     S
C22    C207    1.339   1_545 S
C22    F215    1.364   1_545 S
C23    C114    1.339   .     S
C23    F124    1.364   .     S
C24    O45     1.292   .     A
C24    O43     1.294   .     A
C25    O44     1.294   .     A
C25    O46     1.292   .     A
Cu27   O43     1.962   .     S
Cu27   O42     1.955   .     S
Cu27   O46     1.951   .     S
Cu27   N38     2.023   .     S
Cu27   Cu28    2.693   .     S
Cu27   O39     1.959   .     S
Cu28   N37     2.023   .     S
Cu28   O45     1.951   .     S
Cu28   O40     1.959   .     S
Cu28   O41     1.955   .     S
Cu28   O44     1.962   .     S
F31    C114    1.364   .     S
F32    C207    1.364   1_545 S
F33    N313    1.335   .     S
F34    N590    1.335   1_554 S
N37    F585    1.335   1_554 S
N37    N590    1.296   1_554 S
N38    N313    1.296   .     S
N38    F310    1.335   .     S
Br47   C72     1.940   .     S
Br48   C52     1.940   .     S
Br49   C64     1.928   .     S
Br50   C65     1.928   .     S
C51    O85     1.290   .     A
C51    O87     1.288   .     A
C51    C68     1.425   .     S
C52    C63     1.403   .     A
C52    C54     1.399   .     A
C53    C72     1.399   .     A
C53    C55     1.394   .     A
C53    C71     1.443   .     S
C54    C56     1.394   .     A
C54    C70     1.443   .     S
C55    F75     1.358   .     S
C55    C57     1.403   .     A
C56    F76     1.358   .     S
C56    C58     1.403   .     A
C57    C64     1.415   .     A
C57    C59     1.424   .     A
C58    C65     1.415   .     A
C58    C60     1.424   .     A
C59    C61     1.418   .     A
C59    C14     1.412   1_655 S
C60    C63     1.418   .     A
C61    C67     1.401   .     A
C61    C72     1.403   .     A
C62    O86     1.290   .     A
C62    C69     1.425   .     S
C62    O88     1.288   .     A
C63    C66     1.401   .     A
C64    C20     1.388   1_655 S
C66    H81     1.080   .     S
C67    H82     1.080   .     S
C67    C19     1.388   1_655 S
C68    C253    1.339   1_545 S
C68    F261    1.364   1_545 S
C69    C160    1.339   .     S
C69    F170    1.364   .     S
C70    O91     1.292   .     A
C70    O89     1.294   .     A
C71    O90     1.294   .     A
C71    O92     1.292   .     A
Cu73   O89     1.962   .     S
Cu73   O88     1.955   .     S
Cu73   O92     1.951   .     S
Cu73   N84     2.023   .     S
Cu73   Cu74    2.693   .     S
Cu73   O85     1.959   .     S
Cu74   N83     2.023   .     S
Cu74   O91     1.951   .     S
Cu74   O86     1.959   .     S
Cu74   O87     1.955   .     S
Cu74   O90     1.962   .     S
F77    C160    1.364   .     S
F78    C253    1.364   1_545 S
F79    N359    1.335   .     S
F80    N636    1.335   1_554 S
N83    F631    1.335   1_554 S
N83    N636    1.296   1_554 S
N84    N359    1.296   .     S
N84    F356    1.335   .     S
Br93   C118    1.940   .     S
Br94   C98     1.940   .     S
Br95   C110    1.928   .     S
Br96   C111    1.928   .     S
C97    O131    1.290   .     A
C97    O133    1.288   .     A
C97    C114    1.425   .     S
C98    C109    1.403   .     A
C98    C100    1.399   .     A
C99    C118    1.399   .     A
C99    C101    1.394   .     A
C99    C117    1.443   .     S
C100   C102    1.394   .     A
C100   C116    1.443   .     S
C101   F121    1.358   .     S
C101   C103    1.403   .     A
C102   F122    1.358   .     S
C102   C104    1.403   .     A
C103   C110    1.415   .     A
C103   C105    1.424   .     A
C104   C111    1.415   .     A
C104   C106    1.424   .     A
C105   C107    1.418   .     A
C105   C152    1.412   .     S
C106   C109    1.418   .     A
C106   C151    1.412   1_455 S
C107   C113    1.401   .     A
C107   C118    1.403   .     A
C108   O132    1.290   .     A
C108   C115    1.425   .     S
C108   O134    1.288   .     A
C109   C112    1.401   .     A
C110   C158    1.388   .     S
C111   C159    1.388   1_455 S
C112   H127    1.080   .     S
C112   C156    1.388   1_455 S
C113   H128    1.080   .     S
C113   C157    1.388   .     S
C115   C206    1.339   .     S
C115   F216    1.364   .     S
C116   O137    1.292   .     A
C116   O135    1.294   .     A
C117   O136    1.294   .     A
C117   O138    1.292   .     A
Cu119  O135    1.962   .     S
Cu119  O134    1.955   .     S
Cu119  O138    1.951   .     S
Cu119  N130    2.023   .     S
Cu119  Cu120   2.693   .     S
Cu119  O131    1.959   .     S
Cu120  N129    2.023   .     S
Cu120  O137    1.951   .     S
Cu120  O132    1.959   .     S
Cu120  O133    1.955   .     S
Cu120  O136    1.962   .     S
F123   C206    1.364   .     S
F125   N405    1.335   .     S
F126   N682    1.335   1_554 S
N129   F677    1.335   1_554 S
N129   N682    1.296   1_554 S
N130   N405    1.296   .     S
N130   F402    1.335   .     S
Br139  C164    1.940   .     S
Br140  C144    1.940   .     S
Br141  C156    1.928   .     S
Br142  C157    1.928   .     S
C143   O177    1.290   .     A
C143   O179    1.288   .     A
C143   C160    1.425   .     S
C144   C155    1.403   .     A
C144   C146    1.399   .     A
C145   C164    1.399   .     A
C145   C147    1.394   .     A
C145   C163    1.443   .     S
C146   C148    1.394   .     A
C146   C162    1.443   .     S
C147   F167    1.358   .     S
C147   C149    1.403   .     A
C148   F168    1.358   .     S
C148   C150    1.403   .     A
C149   C156    1.415   .     A
C149   C151    1.424   .     A
C150   C157    1.415   .     A
C150   C152    1.424   .     A
C151   C153    1.418   .     A
C151   C106    1.412   1_655 S
C152   C155    1.418   .     A
C153   C159    1.401   .     A
C153   C164    1.403   .     A
C154   O178    1.290   .     A
C154   C161    1.425   .     S
C154   O180    1.288   .     A
C155   C158    1.401   .     A
C156   C112    1.388   1_655 S
C158   H173    1.080   .     S
C159   H174    1.080   .     S
C159   C111    1.388   1_655 S
C161   C252    1.339   .     S
C161   F262    1.364   .     S
C162   O183    1.292   .     A
C162   O181    1.294   .     A
C163   O182    1.294   .     A
C163   O184    1.292   .     A
Cu165  O181    1.962   .     S
Cu165  O180    1.955   .     S
Cu165  O184    1.951   .     S
Cu165  N176    2.023   .     S
Cu165  Cu166   2.693   .     S
Cu165  O177    1.959   .     S
Cu166  N175    2.023   .     S
Cu166  O183    1.951   .     S
Cu166  O178    1.959   .     S
Cu166  O179    1.955   .     S
Cu166  O182    1.962   .     S
F169   C252    1.364   .     S
F171   N451    1.335   .     S
F172   N728    1.335   1_554 S
N175   F723    1.335   1_554 S
N175   N728    1.296   1_554 S
N176   N451    1.296   .     S
N176   F448    1.335   .     S
Br185  C210    1.940   .     S
Br186  C190    1.940   .     S
Br187  C202    1.928   .     S
Br188  C203    1.928   .     S
C189   O223    1.290   .     A
C189   O225    1.288   .     A
C189   C206    1.425   .     S
C190   C201    1.403   .     A
C190   C192    1.399   .     A
C191   C210    1.399   .     A
C191   C193    1.394   .     A
C191   C209    1.443   .     S
C192   C194    1.394   .     A
C192   C208    1.443   .     S
C193   F213    1.358   .     S
C193   C195    1.403   .     A
C194   F214    1.358   .     S
C194   C196    1.403   .     A
C195   C202    1.415   .     A
C195   C197    1.424   .     A
C196   C203    1.415   .     A
C196   C198    1.424   .     A
C197   C199    1.418   .     A
C197   C244    1.412   .     S
C198   C201    1.418   .     A
C198   C243    1.412   1_455 S
C199   C205    1.401   .     A
C199   C210    1.403   .     A
C200   O224    1.290   .     A
C200   C207    1.425   .     S
C200   O226    1.288   .     A
C201   C204    1.401   .     A
C202   C250    1.388   .     S
C203   C251    1.388   1_455 S
C204   H219    1.080   .     S
C204   C248    1.388   1_455 S
C205   H220    1.080   .     S
C205   C249    1.388   .     S
C207   C22     1.339   1_565 S
C207   F32     1.364   1_565 S
C208   O229    1.292   .     A
C208   O227    1.294   .     A
C209   O228    1.294   .     A
C209   O230    1.292   .     A
Cu211  O227    1.962   .     S
Cu211  O226    1.955   .     S
Cu211  O230    1.951   .     S
Cu211  N222    2.023   .     S
Cu211  Cu212   2.693   .     S
Cu211  O223    1.959   .     S
Cu212  N221    2.023   .     S
Cu212  O229    1.951   .     S
Cu212  O224    1.959   .     S
Cu212  O225    1.955   .     S
Cu212  O228    1.962   .     S
F215   C22     1.364   1_565 S
F217   N497    1.335   .     S
F218   N774    1.335   1_554 S
N221   F769    1.335   1_554 S
N221   N774    1.296   1_554 S
N222   N497    1.296   .     S
N222   F494    1.335   .     S
Br231  C256    1.940   .     S
Br232  C236    1.940   .     S
Br233  C248    1.928   .     S
Br234  C249    1.928   .     S
C235   O269    1.290   .     A
C235   O271    1.288   .     A
C235   C252    1.425   .     S
C236   C247    1.403   .     A
C236   C238    1.399   .     A
C237   C256    1.399   .     A
C237   C239    1.394   .     A
C237   C255    1.443   .     S
C238   C240    1.394   .     A
C238   C254    1.443   .     S
C239   F259    1.358   .     S
C239   C241    1.403   .     A
C240   F260    1.358   .     S
C240   C242    1.403   .     A
C241   C248    1.415   .     A
C241   C243    1.424   .     A
C242   C249    1.415   .     A
C242   C244    1.424   .     A
C243   C245    1.418   .     A
C243   C198    1.412   1_655 S
C244   C247    1.418   .     A
C245   C251    1.401   .     A
C245   C256    1.403   .     A
C246   O270    1.290   .     A
C246   C253    1.425   .     S
C246   O272    1.288   .     A
C247   C250    1.401   .     A
C248   C204    1.388   1_655 S
C250   H265    1.080   .     S
C251   H266    1.080   .     S
C251   C203    1.388   1_655 S
C253   C68     1.339   1_565 S
C253   F78     1.364   1_565 S
C254   O275    1.292   .     A
C254   O273    1.294   .     A
C255   O274    1.294   .     A
C255   O276    1.292   .     A
Cu257  O273    1.962   .     S
Cu257  O272    1.955   .     S
Cu257  O276    1.951   .     S
Cu257  N268    2.023   .     S
Cu257  Cu258   2.693   .     S
Cu257  O269    1.959   .     S
Cu258  N267    2.023   .     S
Cu258  O275    1.951   .     S
Cu258  O270    1.959   .     S
Cu258  O271    1.955   .     S
Cu258  O274    1.962   .     S
F261   C68     1.364   1_565 S
F263   N543    1.335   .     S
F264   N820    1.335   1_554 S
N267   F815    1.335   1_554 S
N267   N820    1.296   1_554 S
N268   N543    1.296   .     S
N268   F540    1.335   .     S
Br277  C302    1.940   .     S
Br278  C282    1.940   .     S
Br279  C294    1.928   .     S
Br280  C295    1.928   .     S
C281   O315    1.290   .     A
C281   O317    1.288   .     A
C281   C298    1.425   .     S
C282   C293    1.403   .     A
C282   C284    1.399   .     A
C283   C302    1.399   .     A
C283   C285    1.394   .     A
C283   C301    1.443   .     S
C284   C286    1.394   .     A
C284   C300    1.443   .     S
C285   F305    1.358   .     S
C285   C287    1.403   .     A
C286   F306    1.358   .     S
C286   C288    1.403   .     A
C287   C294    1.415   .     A
C287   C289    1.424   .     A
C288   C295    1.415   .     A
C288   C290    1.424   .     A
C289   C291    1.418   .     A
C289   C336    1.412   .     S
C290   C293    1.418   .     A
C290   C335    1.412   1_455 S
C291   C297    1.401   .     A
C291   C302    1.403   .     A
C292   O316    1.290   .     A
C292   C299    1.425   .     S
C292   O318    1.288   .     A
C293   C296    1.401   .     A
C294   C342    1.388   .     S
C295   C343    1.388   1_455 S
C296   H311    1.080   .     S
C296   C340    1.388   1_455 S
C297   H312    1.080   .     S
C297   C341    1.388   .     S
C298   C483    1.339   1_545 S
C298   F491    1.364   1_545 S
C299   C390    1.339   .     S
C299   F400    1.364   .     S
C300   O321    1.292   .     A
C300   O319    1.294   .     A
C301   O320    1.294   .     A
C301   O322    1.292   .     A
Cu303  O319    1.962   .     S
Cu303  O318    1.955   .     S
Cu303  O322    1.951   .     S
Cu303  N314    2.023   .     S
Cu303  Cu304   2.693   .     S
Cu303  O315    1.959   .     S
Cu304  N313    2.023   .     S
Cu304  O321    1.951   .     S
Cu304  O316    1.959   .     S
Cu304  O317    1.955   .     S
Cu304  O320    1.962   .     S
F307   C390    1.364   .     S
F308   C483    1.364   1_545 S
F309   N589    1.335   .     S
N314   N589    1.296   .     S
N314   F586    1.335   .     S
Br323  C348    1.940   .     S
Br324  C328    1.940   .     S
Br325  C340    1.928   .     S
Br326  C341    1.928   .     S
C327   O361    1.290   .     A
C327   O363    1.288   .     A
C327   C344    1.425   .     S
C328   C339    1.403   .     A
C328   C330    1.399   .     A
C329   C348    1.399   .     A
C329   C331    1.394   .     A
C329   C347    1.443   .     S
C330   C332    1.394   .     A
C330   C346    1.443   .     S
C331   F351    1.358   .     S
C331   C333    1.403   .     A
C332   F352    1.358   .     S
C332   C334    1.403   .     A
C333   C340    1.415   .     A
C333   C335    1.424   .     A
C334   C341    1.415   .     A
C334   C336    1.424   .     A
C335   C337    1.418   .     A
C335   C290    1.412   1_655 S
C336   C339    1.418   .     A
C337   C343    1.401   .     A
C337   C348    1.403   .     A
C338   O362    1.290   .     A
C338   C345    1.425   .     S
C338   O364    1.288   .     A
C339   C342    1.401   .     A
C340   C296    1.388   1_655 S
C342   H357    1.080   .     S
C343   H358    1.080   .     S
C343   C295    1.388   1_655 S
C344   C529    1.339   1_545 S
C344   F537    1.364   1_545 S
C345   C436    1.339   .     S
C345   F446    1.364   .     S
C346   O367    1.292   .     A
C346   O365    1.294   .     A
C347   O366    1.294   .     A
C347   O368    1.292   .     A
Cu349  O365    1.962   .     S
Cu349  O364    1.955   .     S
Cu349  O368    1.951   .     S
Cu349  N360    2.023   .     S
Cu349  Cu350   2.693   .     S
Cu349  O361    1.959   .     S
Cu350  N359    2.023   .     S
Cu350  O367    1.951   .     S
Cu350  O362    1.959   .     S
Cu350  O363    1.955   .     S
Cu350  O366    1.962   .     S
F353   C436    1.364   .     S
F354   C529    1.364   1_545 S
F355   N635    1.335   .     S
N360   N635    1.296   .     S
N360   F632    1.335   .     S
Br369  C394    1.940   .     S
Br370  C374    1.940   .     S
Br371  C386    1.928   .     S
Br372  C387    1.928   .     S
C373   O407    1.290   .     A
C373   O409    1.288   .     A
C373   C390    1.425   .     S
C374   C385    1.403   .     A
C374   C376    1.399   .     A
C375   C394    1.399   .     A
C375   C377    1.394   .     A
C375   C393    1.443   .     S
C376   C378    1.394   .     A
C376   C392    1.443   .     S
C377   F397    1.358   .     S
C377   C379    1.403   .     A
C378   F398    1.358   .     S
C378   C380    1.403   .     A
C379   C386    1.415   .     A
C379   C381    1.424   .     A
C380   C387    1.415   .     A
C380   C382    1.424   .     A
C381   C383    1.418   .     A
C381   C428    1.412   .     S
C382   C385    1.418   .     A
C382   C427    1.412   1_455 S
C383   C389    1.401   .     A
C383   C394    1.403   .     A
C384   O408    1.290   .     A
C384   C391    1.425   .     S
C384   O410    1.288   .     A
C385   C388    1.401   .     A
C386   C434    1.388   .     S
C387   C435    1.388   1_455 S
C388   H403    1.080   .     S
C388   C432    1.388   1_455 S
C389   H404    1.080   .     S
C389   C433    1.388   .     S
C391   C482    1.339   .     S
C391   F492    1.364   .     S
C392   O413    1.292   .     A
C392   O411    1.294   .     A
C393   O412    1.294   .     A
C393   O414    1.292   .     A
Cu395  O411    1.962   .     S
Cu395  O410    1.955   .     S
Cu395  O414    1.951   .     S
Cu395  N406    2.023   .     S
Cu395  Cu396   2.693   .     S
Cu395  O407    1.959   .     S
Cu396  N405    2.023   .     S
Cu396  O413    1.951   .     S
Cu396  O408    1.959   .     S
Cu396  O409    1.955   .     S
Cu396  O412    1.962   .     S
F399   C482    1.364   .     S
F401   N681    1.335   .     S
N406   N681    1.296   .     S
N406   F678    1.335   .     S
Br415  C440    1.940   .     S
Br416  C420    1.940   .     S
Br417  C432    1.928   .     S
Br418  C433    1.928   .     S
C419   O453    1.290   .     A
C419   O455    1.288   .     A
C419   C436    1.425   .     S
C420   C431    1.403   .     A
C420   C422    1.399   .     A
C421   C440    1.399   .     A
C421   C423    1.394   .     A
C421   C439    1.443   .     S
C422   C424    1.394   .     A
C422   C438    1.443   .     S
C423   F443    1.358   .     S
C423   C425    1.403   .     A
C424   F444    1.358   .     S
C424   C426    1.403   .     A
C425   C432    1.415   .     A
C425   C427    1.424   .     A
C426   C433    1.415   .     A
C426   C428    1.424   .     A
C427   C429    1.418   .     A
C427   C382    1.412   1_655 S
C428   C431    1.418   .     A
C429   C435    1.401   .     A
C429   C440    1.403   .     A
C430   O454    1.290   .     A
C430   C437    1.425   .     S
C430   O456    1.288   .     A
C431   C434    1.401   .     A
C432   C388    1.388   1_655 S
C434   H449    1.080   .     S
C435   H450    1.080   .     S
C435   C387    1.388   1_655 S
C437   C528    1.339   .     S
C437   F538    1.364   .     S
C438   O459    1.292   .     A
C438   O457    1.294   .     A
C439   O458    1.294   .     A
C439   O460    1.292   .     A
Cu441  O457    1.962   .     S
Cu441  O456    1.955   .     S
Cu441  O460    1.951   .     S
Cu441  N452    2.023   .     S
Cu441  Cu442   2.693   .     S
Cu441  O453    1.959   .     S
Cu442  N451    2.023   .     S
Cu442  O459    1.951   .     S
Cu442  O454    1.959   .     S
Cu442  O455    1.955   .     S
Cu442  O458    1.962   .     S
F445   C528    1.364   .     S
F447   N727    1.335   .     S
N452   N727    1.296   .     S
N452   F724    1.335   .     S
Br461  C486    1.940   .     S
Br462  C466    1.940   .     S
Br463  C478    1.928   .     S
Br464  C479    1.928   .     S
C465   O499    1.290   .     A
C465   O501    1.288   .     A
C465   C482    1.425   .     S
C466   C477    1.403   .     A
C466   C468    1.399   .     A
C467   C486    1.399   .     A
C467   C469    1.394   .     A
C467   C485    1.443   .     S
C468   C470    1.394   .     A
C468   C484    1.443   .     S
C469   F489    1.358   .     S
C469   C471    1.403   .     A
C470   F490    1.358   .     S
C470   C472    1.403   .     A
C471   C478    1.415   .     A
C471   C473    1.424   .     A
C472   C479    1.415   .     A
C472   C474    1.424   .     A
C473   C475    1.418   .     A
C473   C520    1.412   .     S
C474   C477    1.418   .     A
C474   C519    1.412   1_455 S
C475   C481    1.401   .     A
C475   C486    1.403   .     A
C476   O500    1.290   .     A
C476   C483    1.425   .     S
C476   O502    1.288   .     A
C477   C480    1.401   .     A
C478   C526    1.388   .     S
C479   C527    1.388   1_455 S
C480   H495    1.080   .     S
C480   C524    1.388   1_455 S
C481   H496    1.080   .     S
C481   C525    1.388   .     S
C483   C298    1.339   1_565 S
C483   F308    1.364   1_565 S
C484   O505    1.292   .     A
C484   O503    1.294   .     A
C485   O504    1.294   .     A
C485   O506    1.292   .     A
Cu487  O503    1.962   .     S
Cu487  O502    1.955   .     S
Cu487  O506    1.951   .     S
Cu487  N498    2.023   .     S
Cu487  Cu488   2.693   .     S
Cu487  O499    1.959   .     S
Cu488  N497    2.023   .     S
Cu488  O505    1.951   .     S
Cu488  O500    1.959   .     S
Cu488  O501    1.955   .     S
Cu488  O504    1.962   .     S
F491   C298    1.364   1_565 S
F493   N773    1.335   .     S
N498   N773    1.296   .     S
N498   F770    1.335   .     S
Br507  C532    1.940   .     S
Br508  C512    1.940   .     S
Br509  C524    1.928   .     S
Br510  C525    1.928   .     S
C511   O545    1.290   .     A
C511   O547    1.288   .     A
C511   C528    1.425   .     S
C512   C523    1.403   .     A
C512   C514    1.399   .     A
C513   C532    1.399   .     A
C513   C515    1.394   .     A
C513   C531    1.443   .     S
C514   C516    1.394   .     A
C514   C530    1.443   .     S
C515   F535    1.358   .     S
C515   C517    1.403   .     A
C516   F536    1.358   .     S
C516   C518    1.403   .     A
C517   C524    1.415   .     A
C517   C519    1.424   .     A
C518   C525    1.415   .     A
C518   C520    1.424   .     A
C519   C521    1.418   .     A
C519   C474    1.412   1_655 S
C520   C523    1.418   .     A
C521   C527    1.401   .     A
C521   C532    1.403   .     A
C522   O546    1.290   .     A
C522   C529    1.425   .     S
C522   O548    1.288   .     A
C523   C526    1.401   .     A
C524   C480    1.388   1_655 S
C526   H541    1.080   .     S
C527   H542    1.080   .     S
C527   C479    1.388   1_655 S
C529   C344    1.339   1_565 S
C529   F354    1.364   1_565 S
C530   O551    1.292   .     A
C530   O549    1.294   .     A
C531   O550    1.294   .     A
C531   O552    1.292   .     A
Cu533  O549    1.962   .     S
Cu533  O548    1.955   .     S
Cu533  O552    1.951   .     S
Cu533  N544    2.023   .     S
Cu533  Cu534   2.693   .     S
Cu533  O545    1.959   .     S
Cu534  N543    2.023   .     S
Cu534  O551    1.951   .     S
Cu534  O546    1.959   .     S
Cu534  O547    1.955   .     S
Cu534  O550    1.962   .     S
F537   C344    1.364   1_565 S
F539   N819    1.335   .     S
N544   N819    1.296   .     S
N544   F816    1.335   .     S
Br553  C578    1.940   .     S
Br554  C558    1.940   .     S
Br555  C570    1.928   .     S
Br556  C571    1.928   .     S
C557   O591    1.290   .     A
C557   O593    1.288   .     A
C557   C574    1.425   .     S
C558   C569    1.403   .     A
C558   C560    1.399   .     A
C559   C578    1.399   .     A
C559   C561    1.394   .     A
C559   C577    1.443   .     S
C560   C562    1.394   .     A
C560   C576    1.443   .     S
C561   F581    1.358   .     S
C561   C563    1.403   .     A
C562   F582    1.358   .     S
C562   C564    1.403   .     A
C563   C570    1.415   .     A
C563   C565    1.424   .     A
C564   C571    1.415   .     A
C564   C566    1.424   .     A
C565   C567    1.418   .     A
C565   C612    1.412   .     S
C566   C569    1.418   .     A
C566   C611    1.412   1_455 S
C567   C573    1.401   .     A
C567   C578    1.403   .     A
C568   O592    1.290   .     A
C568   C575    1.425   .     S
C568   O594    1.288   .     A
C569   C572    1.401   .     A
C570   C618    1.388   .     S
C571   C619    1.388   1_455 S
C572   H587    1.080   .     S
C572   C616    1.388   1_455 S
C573   H588    1.080   .     S
C573   C617    1.388   .     S
C574   C759    1.339   1_545 S
C574   F767    1.364   1_545 S
C575   C666    1.339   .     S
C575   F676    1.364   .     S
C576   O597    1.292   .     A
C576   O595    1.294   .     A
C577   O596    1.294   .     A
C577   O598    1.292   .     A
Cu579  O595    1.962   .     S
Cu579  O594    1.955   .     S
Cu579  O598    1.951   .     S
Cu579  N590    2.023   .     S
Cu579  Cu580   2.693   .     S
Cu579  O591    1.959   .     S
Cu580  N589    2.023   .     S
Cu580  O597    1.951   .     S
Cu580  O592    1.959   .     S
Cu580  O593    1.955   .     S
Cu580  O596    1.962   .     S
F583   C666    1.364   .     S
F584   C759    1.364   1_545 S
F585   N37     1.335   1_556 S
N590   N37     1.296   1_556 S
N590   F34     1.335   1_556 S
Br599  C624    1.940   .     S
Br600  C604    1.940   .     S
Br601  C616    1.928   .     S
Br602  C617    1.928   .     S
C603   O637    1.290   .     A
C603   O639    1.288   .     A
C603   C620    1.425   .     S
C604   C615    1.403   .     A
C604   C606    1.399   .     A
C605   C624    1.399   .     A
C605   C607    1.394   .     A
C605   C623    1.443   .     S
C606   C608    1.394   .     A
C606   C622    1.443   .     S
C607   F627    1.358   .     S
C607   C609    1.403   .     A
C608   F628    1.358   .     S
C608   C610    1.403   .     A
C609   C616    1.415   .     A
C609   C611    1.424   .     A
C610   C617    1.415   .     A
C610   C612    1.424   .     A
C611   C613    1.418   .     A
C611   C566    1.412   1_655 S
C612   C615    1.418   .     A
C613   C619    1.401   .     A
C613   C624    1.403   .     A
C614   O638    1.290   .     A
C614   C621    1.425   .     S
C614   O640    1.288   .     A
C615   C618    1.401   .     A
C616   C572    1.388   1_655 S
C618   H633    1.080   .     S
C619   H634    1.080   .     S
C619   C571    1.388   1_655 S
C620   C805    1.339   1_545 S
C620   F813    1.364   1_545 S
C621   C712    1.339   .     S
C621   F722    1.364   .     S
C622   O643    1.292   .     A
C622   O641    1.294   .     A
C623   O642    1.294   .     A
C623   O644    1.292   .     A
Cu625  O641    1.962   .     S
Cu625  O640    1.955   .     S
Cu625  O644    1.951   .     S
Cu625  N636    2.023   .     S
Cu625  Cu626   2.693   .     S
Cu625  O637    1.959   .     S
Cu626  N635    2.023   .     S
Cu626  O643    1.951   .     S
Cu626  O638    1.959   .     S
Cu626  O639    1.955   .     S
Cu626  O642    1.962   .     S
F629   C712    1.364   .     S
F630   C805    1.364   1_545 S
F631   N83     1.335   1_556 S
N636   N83     1.296   1_556 S
N636   F80     1.335   1_556 S
Br645  C670    1.940   .     S
Br646  C650    1.940   .     S
Br647  C662    1.928   .     S
Br648  C663    1.928   .     S
C649   O683    1.290   .     A
C649   O685    1.288   .     A
C649   C666    1.425   .     S
C650   C661    1.403   .     A
C650   C652    1.399   .     A
C651   C670    1.399   .     A
C651   C653    1.394   .     A
C651   C669    1.443   .     S
C652   C654    1.394   .     A
C652   C668    1.443   .     S
C653   F673    1.358   .     S
C653   C655    1.403   .     A
C654   F674    1.358   .     S
C654   C656    1.403   .     A
C655   C662    1.415   .     A
C655   C657    1.424   .     A
C656   C663    1.415   .     A
C656   C658    1.424   .     A
C657   C659    1.418   .     A
C657   C704    1.412   .     S
C658   C661    1.418   .     A
C658   C703    1.412   1_455 S
C659   C665    1.401   .     A
C659   C670    1.403   .     A
C660   O684    1.290   .     A
C660   C667    1.425   .     S
C660   O686    1.288   .     A
C661   C664    1.401   .     A
C662   C710    1.388   .     S
C663   C711    1.388   1_455 S
C664   H679    1.080   .     S
C664   C708    1.388   1_455 S
C665   H680    1.080   .     S
C665   C709    1.388   .     S
C667   C758    1.339   .     S
C667   F768    1.364   .     S
C668   O689    1.292   .     A
C668   O687    1.294   .     A
C669   O688    1.294   .     A
C669   O690    1.292   .     A
Cu671  O687    1.962   .     S
Cu671  O686    1.955   .     S
Cu671  O690    1.951   .     S
Cu671  N682    2.023   .     S
Cu671  Cu672   2.693   .     S
Cu671  O683    1.959   .     S
Cu672  N681    2.023   .     S
Cu672  O689    1.951   .     S
Cu672  O684    1.959   .     S
Cu672  O685    1.955   .     S
Cu672  O688    1.962   .     S
F675   C758    1.364   .     S
F677   N129    1.335   1_556 S
N682   N129    1.296   1_556 S
N682   F126    1.335   1_556 S
Br691  C716    1.940   .     S
Br692  C696    1.940   .     S
Br693  C708    1.928   .     S
Br694  C709    1.928   .     S
C695   O729    1.290   .     A
C695   O731    1.288   .     A
C695   C712    1.425   .     S
C696   C707    1.403   .     A
C696   C698    1.399   .     A
C697   C716    1.399   .     A
C697   C699    1.394   .     A
C697   C715    1.443   .     S
C698   C700    1.394   .     A
C698   C714    1.443   .     S
C699   F719    1.358   .     S
C699   C701    1.403   .     A
C700   F720    1.358   .     S
C700   C702    1.403   .     A
C701   C708    1.415   .     A
C701   C703    1.424   .     A
C702   C709    1.415   .     A
C702   C704    1.424   .     A
C703   C705    1.418   .     A
C703   C658    1.412   1_655 S
C704   C707    1.418   .     A
C705   C711    1.401   .     A
C705   C716    1.403   .     A
C706   O730    1.290   .     A
C706   C713    1.425   .     S
C706   O732    1.288   .     A
C707   C710    1.401   .     A
C708   C664    1.388   1_655 S
C710   H725    1.080   .     S
C711   H726    1.080   .     S
C711   C663    1.388   1_655 S
C713   C804    1.339   .     S
C713   F814    1.364   .     S
C714   O735    1.292   .     A
C714   O733    1.294   .     A
C715   O734    1.294   .     A
C715   O736    1.292   .     A
Cu717  O733    1.962   .     S
Cu717  O732    1.955   .     S
Cu717  O736    1.951   .     S
Cu717  N728    2.023   .     S
Cu717  Cu718   2.693   .     S
Cu717  O729    1.959   .     S
Cu718  N727    2.023   .     S
Cu718  O735    1.951   .     S
Cu718  O730    1.959   .     S
Cu718  O731    1.955   .     S
Cu718  O734    1.962   .     S
F721   C804    1.364   .     S
F723   N175    1.335   1_556 S
N728   N175    1.296   1_556 S
N728   F172    1.335   1_556 S
Br737  C762    1.940   .     S
Br738  C742    1.940   .     S
Br739  C754    1.928   .     S
Br740  C755    1.928   .     S
C741   O775    1.290   .     A
C741   O777    1.288   .     A
C741   C758    1.425   .     S
C742   C753    1.403   .     A
C742   C744    1.399   .     A
C743   C762    1.399   .     A
C743   C745    1.394   .     A
C743   C761    1.443   .     S
C744   C746    1.394   .     A
C744   C760    1.443   .     S
C745   F765    1.358   .     S
C745   C747    1.403   .     A
C746   F766    1.358   .     S
C746   C748    1.403   .     A
C747   C754    1.415   .     A
C747   C749    1.424   .     A
C748   C755    1.415   .     A
C748   C750    1.424   .     A
C749   C751    1.418   .     A
C749   C796    1.412   .     S
C750   C753    1.418   .     A
C750   C795    1.412   1_455 S
C751   C757    1.401   .     A
C751   C762    1.403   .     A
C752   O776    1.290   .     A
C752   C759    1.425   .     S
C752   O778    1.288   .     A
C753   C756    1.401   .     A
C754   C802    1.388   .     S
C755   C803    1.388   1_455 S
C756   H771    1.080   .     S
C756   C800    1.388   1_455 S
C757   H772    1.080   .     S
C757   C801    1.388   .     S
C759   C574    1.339   1_565 S
C759   F584    1.364   1_565 S
C760   O781    1.292   .     A
C760   O779    1.294   .     A
C761   O780    1.294   .     A
C761   O782    1.292   .     A
Cu763  O779    1.962   .     S
Cu763  O778    1.955   .     S
Cu763  O782    1.951   .     S
Cu763  N774    2.023   .     S
Cu763  Cu764   2.693   .     S
Cu763  O775    1.959   .     S
Cu764  N773    2.023   .     S
Cu764  O781    1.951   .     S
Cu764  O776    1.959   .     S
Cu764  O777    1.955   .     S
Cu764  O780    1.962   .     S
F767   C574    1.364   1_565 S
F769   N221    1.335   1_556 S
N774   N221    1.296   1_556 S
N774   F218    1.335   1_556 S
Br783  C808    1.940   .     S
Br784  C788    1.940   .     S
Br785  C800    1.928   .     S
Br786  C801    1.928   .     S
C787   O821    1.290   .     A
C787   O823    1.288   .     A
C787   C804    1.425   .     S
C788   C799    1.403   .     A
C788   C790    1.399   .     A
C789   C808    1.399   .     A
C789   C791    1.394   .     A
C789   C807    1.443   .     S
C790   C792    1.394   .     A
C790   C806    1.443   .     S
C791   F811    1.358   .     S
C791   C793    1.403   .     A
C792   F812    1.358   .     S
C792   C794    1.403   .     A
C793   C800    1.415   .     A
C793   C795    1.424   .     A
C794   C801    1.415   .     A
C794   C796    1.424   .     A
C795   C797    1.418   .     A
C795   C750    1.412   1_655 S
C796   C799    1.418   .     A
C797   C803    1.401   .     A
C797   C808    1.403   .     A
C798   O822    1.290   .     A
C798   C805    1.425   .     S
C798   O824    1.288   .     A
C799   C802    1.401   .     A
C800   C756    1.388   1_655 S
C802   H817    1.080   .     S
C803   H818    1.080   .     S
C803   C755    1.388   1_655 S
C805   C620    1.339   1_565 S
C805   F630    1.364   1_565 S
C806   O827    1.292   .     A
C806   O825    1.294   .     A
C807   O826    1.294   .     A
C807   O828    1.292   .     A
Cu809  O825    1.962   .     S
Cu809  O824    1.955   .     S
Cu809  O828    1.951   .     S
Cu809  N820    2.023   .     S
Cu809  Cu810   2.693   .     S
Cu809  O821    1.959   .     S
Cu810  N819    2.023   .     S
Cu810  O827    1.951   .     S
Cu810  O822    1.959   .     S
Cu810  O823    1.955   .     S
Cu810  O826    1.962   .     S
F813   C620    1.364   1_565 S
F815   N267    1.335   1_556 S
N820   N267    1.296   1_556 S
N820   F264    1.335   1_556 S
