data_str_m2_o10_o17_pcu_sym.45
_audit_creation_date              2020-01-03
_audit_creation_method            'Materials Studio'
_symmetry_space_group_name_H-M    'P1'
_symmetry_Int_Tables_number       1
_symmetry_cell_setting            triclinic
loop_
_symmetry_equiv_pos_as_xyz
  x,y,z
_cell_length_a                    29.8693
_cell_length_b                    26.1200
_cell_length_c                    22.5891
_cell_angle_alpha                 103.0974
_cell_angle_beta                  94.8958
_cell_angle_gamma                 92.9740
loop_
_atom_site_label
_atom_site_type_symbol
_atom_site_fract_x
_atom_site_fract_y
_atom_site_fract_z
_atom_site_U_iso_or_equiv
_atom_site_adp_type
_atom_site_occupancy
C1     C     0.24825   0.06662   0.15108   0.00000  Uiso   1.00
C2     C     0.09140   0.12005   0.16165   0.00000  Uiso   1.00
C3     C     0.38345   0.16556   0.16547   0.00000  Uiso   1.00
C4     C     0.11657   0.16783   0.16848   0.00000  Uiso   1.00
C5     C     0.40333   0.11795   0.14610   0.00000  Uiso   1.00
C6     C     0.09589   0.21564   0.17478   0.00000  Uiso   1.00
C7     C     0.45059   0.11775   0.15484   0.00000  Uiso   1.00
C8     C     0.04964   0.21582   0.18239   0.00000  Uiso   1.00
C9     C     0.47682   0.16640   0.17169   0.00000  Uiso   1.00
C10    C     0.02383   0.16715   0.17245   0.00000  Uiso   1.00
C11    C     0.45599   0.21436   0.18557   0.00000  Uiso   1.00
C12    C     0.25048   0.26660   0.18221   0.00000  Uiso   1.00
C13    C     0.04481   0.11917   0.16123   0.00000  Uiso   1.00
C14    C     0.47209   0.07035   0.14567   0.00000  Uiso   1.00
C15    C     0.02859   0.26318   0.19876   0.00000  Uiso   1.00
C16    C     0.38525   0.05581   0.05571   0.00000  Uiso   1.00
C17    C     0.34364   0.05842   0.01245   0.00000  Uiso   1.00
C18    C     0.35421   0.04336   0.27929   0.00000  Uiso   1.00
C19    C     0.10998   0.27619   0.11734   0.00000  Uiso   1.00
C20    C     0.12603   0.23800   0.06225   0.00000  Uiso   1.00
C21    C     0.11065   0.25161   0.00219   0.00000  Uiso   1.00
C22    C     0.17281   0.10604   0.30556   0.00000  Uiso   1.00
C23    C     0.01889   0.07113   0.14947   0.00000  Uiso   1.00
C24    C     0.15248   0.06279   0.33264   0.00000  Uiso   1.00
C25    C     0.10109   0.06275   0.32805   0.00000  Uiso   1.00
C26    C     0.32268   0.24268   0.00894   0.00000  Uiso   1.00
C27    C     0.36168   0.20803   0.01734   0.00000  Uiso   1.00
C28    C     0.40717   0.23447   0.01065   0.00000  Uiso   1.00
C29    C     0.48210   0.26241   0.20070   0.00000  Uiso   1.00
C30    C     0.24742   0.01053   0.14243   0.00000  Uiso   1.00
C31    C     0.24902   0.32244   0.19064   0.00000  Uiso   1.00
C32    C     0.16468   0.16715   0.16717   0.00000  Uiso   1.00
C33    C     0.33530   0.16606   0.16614   0.00000  Uiso   1.00
C34    C     0.40936   0.21339   0.18427   0.00000  Uiso   1.00
Cu35   Cu    0.25501   0.17246   0.22813   0.00000  Uiso   1.00
Cu36   Cu    0.24500   0.16087   0.10521   0.00000  Uiso   1.00
H37    H     0.39292   0.24989   0.19630   0.00000  Uiso   1.00
H38    H     0.41407   0.07858   0.04270   0.00000  Uiso   1.00
H39    H     0.31548   0.03171   0.01955   0.00000  Uiso   1.00
H40    H     0.33257   0.09895   0.02214   0.00000  Uiso   1.00
H41    H     0.36070   0.00098   0.26632   0.00000  Uiso   1.00
H42    H     0.38408   0.06759   0.27215   0.00000  Uiso   1.00
H43    H     0.32543   0.05084   0.24902   0.00000  Uiso   1.00
H44    H     0.12679   0.31589   0.12099   0.00000  Uiso   1.00
H45    H     0.07325   0.28018   0.10908   0.00000  Uiso   1.00
H46    H     0.16339   0.23919   0.06731   0.00000  Uiso   1.00
H47    H     0.11190   0.19736   0.05947   0.00000  Uiso   1.00
H48    H     0.10808   0.08353   0.15471   0.00000  Uiso   1.00
H49    H     0.07342   0.25270   0.32983   0.00000  Uiso   1.00
H50    H     0.12102   0.22126   0.29740   0.00000  Uiso   1.00
H51    H     0.12690   0.29002   0.00057   0.00000  Uiso   1.00
H52    H     0.16014   0.09655   0.25645   0.00000  Uiso   1.00
H53    H     0.16021   0.14474   0.32654   0.00000  Uiso   1.00
H54    H     0.16249   0.02431   0.30700   0.00000  Uiso   1.00
H55    H     0.16546   0.06844   0.04792   0.00000  Uiso   1.00
H56    H     0.08697   0.05369   0.27940   0.00000  Uiso   1.00
H57    H     0.09068   0.10175   0.01828   0.00000  Uiso   1.00
H58    H     0.08680   0.03272   0.01696   0.00000  Uiso   1.00
H59    H     0.45284   0.03259   0.13549   0.00000  Uiso   1.00
H60    H     0.33213   0.28204   0.03949   0.00000  Uiso   1.00
H61    H     0.31910   0.24965   0.29602   0.00000  Uiso   1.00
H62    H     0.36373   0.20091   0.06353   0.00000  Uiso   1.00
H63    H     0.35619   0.16951   0.31739   0.00000  Uiso   1.00
H64    H     0.40478   0.25393   0.30520   0.00000  Uiso   1.00
H65    H     0.43249   0.20458   0.00299   0.00000  Uiso   1.00
H66    H     0.41900   0.26450   0.05314   0.00000  Uiso   1.00
H67    H     0.04798   0.30088   0.20977   0.00000  Uiso   1.00
H68    H     0.03476   0.03414   0.14154   0.00000  Uiso   1.00
H69    H     0.46646   0.29941   0.21260   0.00000  Uiso   1.00
H70    H     0.24619   0.32014   0.09599   0.00000  Uiso   1.00
H71    H     0.24966   0.01274   0.23702   0.00000  Uiso   1.00
H72    H     0.39421   0.01439   0.04791   0.00000  Uiso   1.00
N73    N     0.23745   0.15214   0.01284   0.00000  Uiso   1.00
N74    N     0.26256   0.18119   0.32049   0.00000  Uiso   1.00
O75    O     0.25326   0.09538   0.20659   0.00000  Uiso   1.00
O76    O     0.12146   0.26124   0.17320   0.00000  Uiso   1.00
O77    O     0.22031   0.10604   0.30955   0.00000  Uiso   1.00
O78    O     0.28199   0.22458   0.02761   0.00000  Uiso   1.00
O79    O     0.24675   0.23796   0.12674   0.00000  Uiso   1.00
O80    O     0.24480   0.08559   0.10279   0.00000  Uiso   1.00
O81    O     0.25520   0.24774   0.23055   0.00000  Uiso   1.00
O82    O     0.18936   0.17155   0.21857   0.00000  Uiso   1.00
O83    O     0.31065   0.16179   0.11476   0.00000  Uiso   1.00
O84    O     0.18090   0.16176   0.11477   0.00000  Uiso   1.00
O85    O     0.31910   0.17157   0.21857   0.00000  Uiso   1.00
O86    O     0.37621   0.07272   0.11772   0.00000  Uiso   1.00
C87    C     0.74825   0.06662   0.15108   0.00000  Uiso   1.00
C88    C     0.59140   0.12005   0.16165   0.00000  Uiso   1.00
C89    C     0.88345   0.16556   0.16547   0.00000  Uiso   1.00
C90    C     0.61657   0.16783   0.16848   0.00000  Uiso   1.00
C91    C     0.90333   0.11795   0.14610   0.00000  Uiso   1.00
C92    C     0.59589   0.21564   0.17478   0.00000  Uiso   1.00
C93    C     0.95059   0.11775   0.15484   0.00000  Uiso   1.00
C94    C     0.54964   0.21582   0.18239   0.00000  Uiso   1.00
C95    C     0.97682   0.16640   0.17169   0.00000  Uiso   1.00
C96    C     0.52383   0.16715   0.17245   0.00000  Uiso   1.00
C97    C     0.95599   0.21436   0.18557   0.00000  Uiso   1.00
C98    C     0.75048   0.26660   0.18221   0.00000  Uiso   1.00
C99    C     0.54481   0.11917   0.16123   0.00000  Uiso   1.00
C100   C     0.97209   0.07035   0.14567   0.00000  Uiso   1.00
C101   C     0.52859   0.26318   0.19876   0.00000  Uiso   1.00
C102   C     0.88525   0.05581   0.05571   0.00000  Uiso   1.00
C103   C     0.84364   0.05842   0.01245   0.00000  Uiso   1.00
C104   C     0.85421   0.04336   0.27929   0.00000  Uiso   1.00
C105   C     0.60998   0.27619   0.11734   0.00000  Uiso   1.00
C106   C     0.62603   0.23800   0.06225   0.00000  Uiso   1.00
C107   C     0.61065   0.25161   0.00219   0.00000  Uiso   1.00
C108   C     0.67281   0.10604   0.30556   0.00000  Uiso   1.00
C109   C     0.51889   0.07113   0.14947   0.00000  Uiso   1.00
C110   C     0.65248   0.06279   0.33264   0.00000  Uiso   1.00
C111   C     0.60109   0.06275   0.32805   0.00000  Uiso   1.00
C112   C     0.82268   0.24268   0.00894   0.00000  Uiso   1.00
C113   C     0.86168   0.20803   0.01734   0.00000  Uiso   1.00
C114   C     0.90717   0.23447   0.01065   0.00000  Uiso   1.00
C115   C     0.98210   0.26241   0.20070   0.00000  Uiso   1.00
C116   C     0.74742   0.01053   0.14243   0.00000  Uiso   1.00
C117   C     0.74902   0.32244   0.19064   0.00000  Uiso   1.00
C118   C     0.66468   0.16715   0.16717   0.00000  Uiso   1.00
C119   C     0.83530   0.16606   0.16614   0.00000  Uiso   1.00
C120   C     0.90936   0.21339   0.18427   0.00000  Uiso   1.00
Cu121  Cu    0.75501   0.17246   0.22813   0.00000  Uiso   1.00
Cu122  Cu    0.74500   0.16087   0.10521   0.00000  Uiso   1.00
H123   H     0.89292   0.24989   0.19630   0.00000  Uiso   1.00
H124   H     0.91407   0.07858   0.04270   0.00000  Uiso   1.00
H125   H     0.81548   0.03171   0.01955   0.00000  Uiso   1.00
H126   H     0.83257   0.09895   0.02214   0.00000  Uiso   1.00
H127   H     0.86070   0.00098   0.26632   0.00000  Uiso   1.00
H128   H     0.88408   0.06759   0.27215   0.00000  Uiso   1.00
H129   H     0.82543   0.05084   0.24902   0.00000  Uiso   1.00
H130   H     0.62679   0.31589   0.12099   0.00000  Uiso   1.00
H131   H     0.57325   0.28018   0.10908   0.00000  Uiso   1.00
H132   H     0.66339   0.23919   0.06731   0.00000  Uiso   1.00
H133   H     0.61190   0.19736   0.05947   0.00000  Uiso   1.00
H134   H     0.60808   0.08353   0.15471   0.00000  Uiso   1.00
H135   H     0.57342   0.25270   0.32983   0.00000  Uiso   1.00
H136   H     0.62102   0.22126   0.29740   0.00000  Uiso   1.00
H137   H     0.62690   0.29002   0.00057   0.00000  Uiso   1.00
H138   H     0.66014   0.09655   0.25645   0.00000  Uiso   1.00
H139   H     0.66021   0.14474   0.32654   0.00000  Uiso   1.00
H140   H     0.66249   0.02431   0.30700   0.00000  Uiso   1.00
H141   H     0.66546   0.06844   0.04792   0.00000  Uiso   1.00
H142   H     0.58697   0.05369   0.27940   0.00000  Uiso   1.00
H143   H     0.59068   0.10175   0.01828   0.00000  Uiso   1.00
H144   H     0.58680   0.03272   0.01696   0.00000  Uiso   1.00
H145   H     0.95284   0.03259   0.13549   0.00000  Uiso   1.00
H146   H     0.83213   0.28204   0.03949   0.00000  Uiso   1.00
H147   H     0.81910   0.24965   0.29602   0.00000  Uiso   1.00
H148   H     0.86373   0.20091   0.06353   0.00000  Uiso   1.00
H149   H     0.85619   0.16951   0.31739   0.00000  Uiso   1.00
H150   H     0.90478   0.25393   0.30520   0.00000  Uiso   1.00
H151   H     0.93249   0.20458   0.00299   0.00000  Uiso   1.00
H152   H     0.91900   0.26450   0.05314   0.00000  Uiso   1.00
H153   H     0.54798   0.30088   0.20977   0.00000  Uiso   1.00
H154   H     0.53476   0.03414   0.14154   0.00000  Uiso   1.00
H155   H     0.96646   0.29941   0.21260   0.00000  Uiso   1.00
H156   H     0.74619   0.32014   0.09599   0.00000  Uiso   1.00
H157   H     0.74966   0.01274   0.23702   0.00000  Uiso   1.00
H158   H     0.89421   0.01439   0.04791   0.00000  Uiso   1.00
N159   N     0.73745   0.15214   0.01284   0.00000  Uiso   1.00
N160   N     0.76256   0.18119   0.32049   0.00000  Uiso   1.00
O161   O     0.75326   0.09538   0.20659   0.00000  Uiso   1.00
O162   O     0.62146   0.26124   0.17320   0.00000  Uiso   1.00
O163   O     0.72031   0.10604   0.30955   0.00000  Uiso   1.00
O164   O     0.78199   0.22458   0.02761   0.00000  Uiso   1.00
O165   O     0.74675   0.23796   0.12674   0.00000  Uiso   1.00
O166   O     0.74480   0.08559   0.10279   0.00000  Uiso   1.00
O167   O     0.75520   0.24774   0.23055   0.00000  Uiso   1.00
O168   O     0.68936   0.17155   0.21857   0.00000  Uiso   1.00
O169   O     0.81065   0.16179   0.11476   0.00000  Uiso   1.00
O170   O     0.68090   0.16176   0.11477   0.00000  Uiso   1.00
O171   O     0.81910   0.17157   0.21857   0.00000  Uiso   1.00
O172   O     0.87621   0.07272   0.11772   0.00000  Uiso   1.00
C173   C     0.24825   0.39995   0.15108   0.00000  Uiso   1.00
C174   C     0.09140   0.45338   0.16165   0.00000  Uiso   1.00
C175   C     0.38345   0.49889   0.16547   0.00000  Uiso   1.00
C176   C     0.11657   0.50116   0.16848   0.00000  Uiso   1.00
C177   C     0.40333   0.45128   0.14610   0.00000  Uiso   1.00
C178   C     0.09589   0.54897   0.17478   0.00000  Uiso   1.00
C179   C     0.45059   0.45108   0.15484   0.00000  Uiso   1.00
C180   C     0.04964   0.54916   0.18239   0.00000  Uiso   1.00
C181   C     0.47682   0.49973   0.17169   0.00000  Uiso   1.00
C182   C     0.02383   0.50049   0.17245   0.00000  Uiso   1.00
C183   C     0.45599   0.54769   0.18557   0.00000  Uiso   1.00
C184   C     0.25048   0.59993   0.18221   0.00000  Uiso   1.00
C185   C     0.04481   0.45250   0.16123   0.00000  Uiso   1.00
C186   C     0.47209   0.40368   0.14567   0.00000  Uiso   1.00
C187   C     0.02859   0.59651   0.19876   0.00000  Uiso   1.00
C188   C     0.38525   0.38915   0.05571   0.00000  Uiso   1.00
C189   C     0.34364   0.39175   0.01245   0.00000  Uiso   1.00
C190   C     0.35421   0.37669   0.27929   0.00000  Uiso   1.00
C191   C     0.10998   0.60952   0.11734   0.00000  Uiso   1.00
C192   C     0.12603   0.57134   0.06225   0.00000  Uiso   1.00
C193   C     0.11065   0.58494   0.00219   0.00000  Uiso   1.00
C194   C     0.17281   0.43938   0.30556   0.00000  Uiso   1.00
C195   C     0.01889   0.40446   0.14947   0.00000  Uiso   1.00
C196   C     0.15248   0.39613   0.33264   0.00000  Uiso   1.00
C197   C     0.10109   0.39609   0.32805   0.00000  Uiso   1.00
C198   C     0.32268   0.57601   0.00894   0.00000  Uiso   1.00
C199   C     0.36168   0.54136   0.01734   0.00000  Uiso   1.00
C200   C     0.40717   0.56781   0.01065   0.00000  Uiso   1.00
C201   C     0.48210   0.59574   0.20070   0.00000  Uiso   1.00
C202   C     0.24742   0.34386   0.14243   0.00000  Uiso   1.00
C203   C     0.24902   0.65577   0.19064   0.00000  Uiso   1.00
C204   C     0.16468   0.50048   0.16717   0.00000  Uiso   1.00
C205   C     0.33530   0.49939   0.16614   0.00000  Uiso   1.00
C206   C     0.40936   0.54672   0.18427   0.00000  Uiso   1.00
Cu207  Cu    0.25501   0.50579   0.22813   0.00000  Uiso   1.00
Cu208  Cu    0.24500   0.49421   0.10521   0.00000  Uiso   1.00
H209   H     0.39292   0.58322   0.19630   0.00000  Uiso   1.00
H210   H     0.41407   0.41191   0.04270   0.00000  Uiso   1.00
H211   H     0.31548   0.36504   0.01955   0.00000  Uiso   1.00
H212   H     0.33257   0.43228   0.02214   0.00000  Uiso   1.00
H213   H     0.36070   0.33432   0.26632   0.00000  Uiso   1.00
H214   H     0.38408   0.40092   0.27215   0.00000  Uiso   1.00
H215   H     0.32543   0.38418   0.24902   0.00000  Uiso   1.00
H216   H     0.12679   0.64922   0.12099   0.00000  Uiso   1.00
H217   H     0.07325   0.61351   0.10908   0.00000  Uiso   1.00
H218   H     0.16339   0.57252   0.06731   0.00000  Uiso   1.00
H219   H     0.11190   0.53069   0.05947   0.00000  Uiso   1.00
H220   H     0.10808   0.41686   0.15471   0.00000  Uiso   1.00
H221   H     0.07342   0.58603   0.32983   0.00000  Uiso   1.00
H222   H     0.12102   0.55459   0.29740   0.00000  Uiso   1.00
H223   H     0.12690   0.62335   0.00057   0.00000  Uiso   1.00
H224   H     0.16014   0.42988   0.25645   0.00000  Uiso   1.00
H225   H     0.16021   0.47808   0.32654   0.00000  Uiso   1.00
H226   H     0.16249   0.35764   0.30700   0.00000  Uiso   1.00
H227   H     0.16546   0.40178   0.04792   0.00000  Uiso   1.00
H228   H     0.08697   0.38702   0.27940   0.00000  Uiso   1.00
H229   H     0.09068   0.43508   0.01828   0.00000  Uiso   1.00
H230   H     0.08680   0.36605   0.01696   0.00000  Uiso   1.00
H231   H     0.45284   0.36592   0.13549   0.00000  Uiso   1.00
H232   H     0.33213   0.61537   0.03949   0.00000  Uiso   1.00
H233   H     0.31910   0.58298   0.29602   0.00000  Uiso   1.00
H234   H     0.36373   0.53424   0.06353   0.00000  Uiso   1.00
H235   H     0.35619   0.50284   0.31739   0.00000  Uiso   1.00
H236   H     0.40478   0.58727   0.30520   0.00000  Uiso   1.00
H237   H     0.43249   0.53791   0.00299   0.00000  Uiso   1.00
H238   H     0.41900   0.59783   0.05314   0.00000  Uiso   1.00
H239   H     0.04798   0.63421   0.20977   0.00000  Uiso   1.00
H240   H     0.03476   0.36747   0.14154   0.00000  Uiso   1.00
H241   H     0.46646   0.63274   0.21260   0.00000  Uiso   1.00
H242   H     0.24619   0.65347   0.09599   0.00000  Uiso   1.00
H243   H     0.24966   0.34607   0.23702   0.00000  Uiso   1.00
H244   H     0.39421   0.34772   0.04791   0.00000  Uiso   1.00
N245   N     0.23745   0.48547   0.01284   0.00000  Uiso   1.00
N246   N     0.26256   0.51453   0.32049   0.00000  Uiso   1.00
O247   O     0.25326   0.42871   0.20659   0.00000  Uiso   1.00
O248   O     0.12146   0.59457   0.17320   0.00000  Uiso   1.00
O249   O     0.22031   0.43937   0.30955   0.00000  Uiso   1.00
O250   O     0.28199   0.55791   0.02761   0.00000  Uiso   1.00
O251   O     0.24675   0.57129   0.12674   0.00000  Uiso   1.00
O252   O     0.24480   0.41892   0.10279   0.00000  Uiso   1.00
O253   O     0.25520   0.58108   0.23055   0.00000  Uiso   1.00
O254   O     0.18936   0.50488   0.21857   0.00000  Uiso   1.00
O255   O     0.31065   0.49512   0.11476   0.00000  Uiso   1.00
O256   O     0.18090   0.49510   0.11477   0.00000  Uiso   1.00
O257   O     0.31910   0.50490   0.21857   0.00000  Uiso   1.00
O258   O     0.37621   0.40605   0.11772   0.00000  Uiso   1.00
C259   C     0.74825   0.39995   0.15108   0.00000  Uiso   1.00
C260   C     0.59140   0.45338   0.16165   0.00000  Uiso   1.00
C261   C     0.88345   0.49889   0.16547   0.00000  Uiso   1.00
C262   C     0.61657   0.50116   0.16848   0.00000  Uiso   1.00
C263   C     0.90333   0.45128   0.14610   0.00000  Uiso   1.00
C264   C     0.59589   0.54897   0.17478   0.00000  Uiso   1.00
C265   C     0.95059   0.45108   0.15484   0.00000  Uiso   1.00
C266   C     0.54964   0.54916   0.18239   0.00000  Uiso   1.00
C267   C     0.97682   0.49973   0.17169   0.00000  Uiso   1.00
C268   C     0.52383   0.50049   0.17245   0.00000  Uiso   1.00
C269   C     0.95599   0.54769   0.18557   0.00000  Uiso   1.00
C270   C     0.75048   0.59993   0.18221   0.00000  Uiso   1.00
C271   C     0.54481   0.45250   0.16123   0.00000  Uiso   1.00
C272   C     0.97209   0.40368   0.14567   0.00000  Uiso   1.00
C273   C     0.52859   0.59651   0.19876   0.00000  Uiso   1.00
C274   C     0.88525   0.38915   0.05571   0.00000  Uiso   1.00
C275   C     0.84364   0.39175   0.01245   0.00000  Uiso   1.00
C276   C     0.85421   0.37669   0.27929   0.00000  Uiso   1.00
C277   C     0.60998   0.60952   0.11734   0.00000  Uiso   1.00
C278   C     0.62603   0.57134   0.06225   0.00000  Uiso   1.00
C279   C     0.61065   0.58494   0.00219   0.00000  Uiso   1.00
C280   C     0.67281   0.43938   0.30556   0.00000  Uiso   1.00
C281   C     0.51889   0.40446   0.14947   0.00000  Uiso   1.00
C282   C     0.65248   0.39613   0.33264   0.00000  Uiso   1.00
C283   C     0.60109   0.39609   0.32805   0.00000  Uiso   1.00
C284   C     0.82268   0.57601   0.00894   0.00000  Uiso   1.00
C285   C     0.86168   0.54136   0.01734   0.00000  Uiso   1.00
C286   C     0.90717   0.56781   0.01065   0.00000  Uiso   1.00
C287   C     0.98210   0.59574   0.20070   0.00000  Uiso   1.00
C288   C     0.74742   0.34386   0.14243   0.00000  Uiso   1.00
C289   C     0.74902   0.65577   0.19064   0.00000  Uiso   1.00
C290   C     0.66468   0.50048   0.16717   0.00000  Uiso   1.00
C291   C     0.83530   0.49939   0.16614   0.00000  Uiso   1.00
C292   C     0.90936   0.54672   0.18427   0.00000  Uiso   1.00
Cu293  Cu    0.75501   0.50579   0.22813   0.00000  Uiso   1.00
Cu294  Cu    0.74500   0.49421   0.10521   0.00000  Uiso   1.00
H295   H     0.89292   0.58322   0.19630   0.00000  Uiso   1.00
H296   H     0.91407   0.41191   0.04270   0.00000  Uiso   1.00
H297   H     0.81548   0.36504   0.01955   0.00000  Uiso   1.00
H298   H     0.83257   0.43228   0.02214   0.00000  Uiso   1.00
H299   H     0.86070   0.33432   0.26632   0.00000  Uiso   1.00
H300   H     0.88408   0.40092   0.27215   0.00000  Uiso   1.00
H301   H     0.82543   0.38418   0.24902   0.00000  Uiso   1.00
H302   H     0.62679   0.64922   0.12099   0.00000  Uiso   1.00
H303   H     0.57325   0.61351   0.10908   0.00000  Uiso   1.00
H304   H     0.66339   0.57252   0.06731   0.00000  Uiso   1.00
H305   H     0.61190   0.53069   0.05947   0.00000  Uiso   1.00
H306   H     0.60808   0.41686   0.15471   0.00000  Uiso   1.00
H307   H     0.57342   0.58603   0.32983   0.00000  Uiso   1.00
H308   H     0.62102   0.55459   0.29740   0.00000  Uiso   1.00
H309   H     0.62690   0.62335   0.00057   0.00000  Uiso   1.00
H310   H     0.66014   0.42988   0.25645   0.00000  Uiso   1.00
H311   H     0.66021   0.47808   0.32654   0.00000  Uiso   1.00
H312   H     0.66249   0.35764   0.30700   0.00000  Uiso   1.00
H313   H     0.66546   0.40178   0.04792   0.00000  Uiso   1.00
H314   H     0.58697   0.38702   0.27940   0.00000  Uiso   1.00
H315   H     0.59068   0.43508   0.01828   0.00000  Uiso   1.00
H316   H     0.58680   0.36605   0.01696   0.00000  Uiso   1.00
H317   H     0.95284   0.36592   0.13549   0.00000  Uiso   1.00
H318   H     0.83213   0.61537   0.03949   0.00000  Uiso   1.00
H319   H     0.81910   0.58298   0.29602   0.00000  Uiso   1.00
H320   H     0.86373   0.53424   0.06353   0.00000  Uiso   1.00
H321   H     0.85619   0.50284   0.31739   0.00000  Uiso   1.00
H322   H     0.90478   0.58727   0.30520   0.00000  Uiso   1.00
H323   H     0.93249   0.53791   0.00299   0.00000  Uiso   1.00
H324   H     0.91900   0.59783   0.05314   0.00000  Uiso   1.00
H325   H     0.54798   0.63421   0.20977   0.00000  Uiso   1.00
H326   H     0.53476   0.36747   0.14154   0.00000  Uiso   1.00
H327   H     0.96646   0.63274   0.21260   0.00000  Uiso   1.00
H328   H     0.74619   0.65347   0.09599   0.00000  Uiso   1.00
H329   H     0.74966   0.34607   0.23702   0.00000  Uiso   1.00
H330   H     0.89421   0.34772   0.04791   0.00000  Uiso   1.00
N331   N     0.73745   0.48547   0.01284   0.00000  Uiso   1.00
N332   N     0.76256   0.51453   0.32049   0.00000  Uiso   1.00
O333   O     0.75326   0.42871   0.20659   0.00000  Uiso   1.00
O334   O     0.62146   0.59457   0.17320   0.00000  Uiso   1.00
O335   O     0.72031   0.43937   0.30955   0.00000  Uiso   1.00
O336   O     0.78199   0.55791   0.02761   0.00000  Uiso   1.00
O337   O     0.74675   0.57129   0.12674   0.00000  Uiso   1.00
O338   O     0.74480   0.41892   0.10279   0.00000  Uiso   1.00
O339   O     0.75520   0.58108   0.23055   0.00000  Uiso   1.00
O340   O     0.68936   0.50488   0.21857   0.00000  Uiso   1.00
O341   O     0.81065   0.49512   0.11476   0.00000  Uiso   1.00
O342   O     0.68090   0.49510   0.11477   0.00000  Uiso   1.00
O343   O     0.81910   0.50490   0.21857   0.00000  Uiso   1.00
O344   O     0.87621   0.40605   0.11772   0.00000  Uiso   1.00
C345   C     0.24825   0.73329   0.15108   0.00000  Uiso   1.00
C346   C     0.09140   0.78672   0.16165   0.00000  Uiso   1.00
C347   C     0.38345   0.83222   0.16547   0.00000  Uiso   1.00
C348   C     0.11657   0.83450   0.16848   0.00000  Uiso   1.00
C349   C     0.40333   0.78461   0.14610   0.00000  Uiso   1.00
C350   C     0.09589   0.88231   0.17478   0.00000  Uiso   1.00
C351   C     0.45059   0.78442   0.15484   0.00000  Uiso   1.00
C352   C     0.04964   0.88249   0.18239   0.00000  Uiso   1.00
C353   C     0.47682   0.83306   0.17169   0.00000  Uiso   1.00
C354   C     0.02383   0.83382   0.17245   0.00000  Uiso   1.00
C355   C     0.45599   0.88103   0.18557   0.00000  Uiso   1.00
C356   C     0.25048   0.93327   0.18221   0.00000  Uiso   1.00
C357   C     0.04481   0.78583   0.16123   0.00000  Uiso   1.00
C358   C     0.47209   0.73702   0.14567   0.00000  Uiso   1.00
C359   C     0.02859   0.92985   0.19876   0.00000  Uiso   1.00
C360   C     0.38525   0.72248   0.05571   0.00000  Uiso   1.00
C361   C     0.34364   0.72509   0.01245   0.00000  Uiso   1.00
C362   C     0.35421   0.71003   0.27929   0.00000  Uiso   1.00
C363   C     0.10998   0.94285   0.11734   0.00000  Uiso   1.00
C364   C     0.12603   0.90467   0.06225   0.00000  Uiso   1.00
C365   C     0.11065   0.91827   0.00219   0.00000  Uiso   1.00
C366   C     0.17281   0.77271   0.30556   0.00000  Uiso   1.00
C367   C     0.01889   0.73779   0.14947   0.00000  Uiso   1.00
C368   C     0.15248   0.72946   0.33264   0.00000  Uiso   1.00
C369   C     0.10109   0.72942   0.32805   0.00000  Uiso   1.00
C370   C     0.32268   0.90934   0.00894   0.00000  Uiso   1.00
C371   C     0.36168   0.87469   0.01734   0.00000  Uiso   1.00
C372   C     0.40717   0.90114   0.01065   0.00000  Uiso   1.00
C373   C     0.48210   0.92908   0.20070   0.00000  Uiso   1.00
C374   C     0.24742   0.67720   0.14243   0.00000  Uiso   1.00
C375   C     0.24902   0.98910   0.19064   0.00000  Uiso   1.00
C376   C     0.16468   0.83381   0.16717   0.00000  Uiso   1.00
C377   C     0.33530   0.83272   0.16614   0.00000  Uiso   1.00
C378   C     0.40936   0.88005   0.18427   0.00000  Uiso   1.00
Cu379  Cu    0.25501   0.83913   0.22813   0.00000  Uiso   1.00
Cu380  Cu    0.24500   0.82754   0.10521   0.00000  Uiso   1.00
H381   H     0.39292   0.91655   0.19630   0.00000  Uiso   1.00
H382   H     0.41407   0.74525   0.04270   0.00000  Uiso   1.00
H383   H     0.31548   0.69837   0.01955   0.00000  Uiso   1.00
H384   H     0.33257   0.76561   0.02214   0.00000  Uiso   1.00
H385   H     0.36070   0.66765   0.26632   0.00000  Uiso   1.00
H386   H     0.38408   0.73425   0.27215   0.00000  Uiso   1.00
H387   H     0.32543   0.71751   0.24902   0.00000  Uiso   1.00
H388   H     0.12679   0.98256   0.12099   0.00000  Uiso   1.00
H389   H     0.07325   0.94685   0.10908   0.00000  Uiso   1.00
H390   H     0.16339   0.90585   0.06731   0.00000  Uiso   1.00
H391   H     0.11190   0.86403   0.05947   0.00000  Uiso   1.00
H392   H     0.10808   0.75020   0.15471   0.00000  Uiso   1.00
H393   H     0.07342   0.91936   0.32983   0.00000  Uiso   1.00
H394   H     0.12102   0.88793   0.29740   0.00000  Uiso   1.00
H395   H     0.12690   0.95669   0.00057   0.00000  Uiso   1.00
H396   H     0.16014   0.76322   0.25645   0.00000  Uiso   1.00
H397   H     0.16021   0.81141   0.32654   0.00000  Uiso   1.00
H398   H     0.16249   0.69098   0.30700   0.00000  Uiso   1.00
H399   H     0.16546   0.73511   0.04792   0.00000  Uiso   1.00
H400   H     0.08697   0.72035   0.27940   0.00000  Uiso   1.00
H401   H     0.09068   0.76842   0.01828   0.00000  Uiso   1.00
H402   H     0.08680   0.69939   0.01696   0.00000  Uiso   1.00
H403   H     0.45284   0.69926   0.13549   0.00000  Uiso   1.00
H404   H     0.33213   0.94871   0.03949   0.00000  Uiso   1.00
H405   H     0.31910   0.91631   0.29602   0.00000  Uiso   1.00
H406   H     0.36373   0.86757   0.06353   0.00000  Uiso   1.00
H407   H     0.35619   0.83618   0.31739   0.00000  Uiso   1.00
H408   H     0.40478   0.92060   0.30520   0.00000  Uiso   1.00
H409   H     0.43249   0.87124   0.00299   0.00000  Uiso   1.00
H410   H     0.41900   0.93116   0.05314   0.00000  Uiso   1.00
H411   H     0.04798   0.96754   0.20977   0.00000  Uiso   1.00
H412   H     0.03476   0.70081   0.14154   0.00000  Uiso   1.00
H413   H     0.46646   0.96607   0.21260   0.00000  Uiso   1.00
H414   H     0.24619   0.98680   0.09599   0.00000  Uiso   1.00
H415   H     0.24966   0.67941   0.23702   0.00000  Uiso   1.00
H416   H     0.39421   0.68106   0.04791   0.00000  Uiso   1.00
N417   N     0.23745   0.81881   0.01284   0.00000  Uiso   1.00
N418   N     0.26256   0.84786   0.32049   0.00000  Uiso   1.00
O419   O     0.25326   0.76204   0.20659   0.00000  Uiso   1.00
O420   O     0.12146   0.92790   0.17320   0.00000  Uiso   1.00
O421   O     0.22031   0.77270   0.30955   0.00000  Uiso   1.00
O422   O     0.28199   0.89125   0.02761   0.00000  Uiso   1.00
O423   O     0.24675   0.90462   0.12674   0.00000  Uiso   1.00
O424   O     0.24480   0.75226   0.10279   0.00000  Uiso   1.00
O425   O     0.25520   0.91441   0.23055   0.00000  Uiso   1.00
O426   O     0.18936   0.83821   0.21857   0.00000  Uiso   1.00
O427   O     0.31065   0.82845   0.11476   0.00000  Uiso   1.00
O428   O     0.18090   0.82843   0.11477   0.00000  Uiso   1.00
O429   O     0.31910   0.83824   0.21857   0.00000  Uiso   1.00
O430   O     0.37621   0.73939   0.11772   0.00000  Uiso   1.00
C431   C     0.74825   0.73329   0.15108   0.00000  Uiso   1.00
C432   C     0.59140   0.78672   0.16165   0.00000  Uiso   1.00
C433   C     0.88345   0.83222   0.16547   0.00000  Uiso   1.00
C434   C     0.61657   0.83450   0.16848   0.00000  Uiso   1.00
C435   C     0.90333   0.78461   0.14610   0.00000  Uiso   1.00
C436   C     0.59589   0.88231   0.17478   0.00000  Uiso   1.00
C437   C     0.95059   0.78442   0.15484   0.00000  Uiso   1.00
C438   C     0.54964   0.88249   0.18239   0.00000  Uiso   1.00
C439   C     0.97682   0.83306   0.17169   0.00000  Uiso   1.00
C440   C     0.52383   0.83382   0.17245   0.00000  Uiso   1.00
C441   C     0.95599   0.88103   0.18557   0.00000  Uiso   1.00
C442   C     0.75048   0.93327   0.18221   0.00000  Uiso   1.00
C443   C     0.54481   0.78583   0.16123   0.00000  Uiso   1.00
C444   C     0.97209   0.73702   0.14567   0.00000  Uiso   1.00
C445   C     0.52859   0.92985   0.19876   0.00000  Uiso   1.00
C446   C     0.88525   0.72248   0.05571   0.00000  Uiso   1.00
C447   C     0.84364   0.72509   0.01245   0.00000  Uiso   1.00
C448   C     0.85421   0.71003   0.27929   0.00000  Uiso   1.00
C449   C     0.60998   0.94285   0.11734   0.00000  Uiso   1.00
C450   C     0.62603   0.90467   0.06225   0.00000  Uiso   1.00
C451   C     0.61065   0.91827   0.00219   0.00000  Uiso   1.00
C452   C     0.67281   0.77271   0.30556   0.00000  Uiso   1.00
C453   C     0.51889   0.73779   0.14947   0.00000  Uiso   1.00
C454   C     0.65248   0.72946   0.33264   0.00000  Uiso   1.00
C455   C     0.60109   0.72942   0.32805   0.00000  Uiso   1.00
C456   C     0.82268   0.90934   0.00894   0.00000  Uiso   1.00
C457   C     0.86168   0.87469   0.01734   0.00000  Uiso   1.00
C458   C     0.90717   0.90114   0.01065   0.00000  Uiso   1.00
C459   C     0.98210   0.92908   0.20070   0.00000  Uiso   1.00
C460   C     0.74742   0.67720   0.14243   0.00000  Uiso   1.00
C461   C     0.74902   0.98910   0.19064   0.00000  Uiso   1.00
C462   C     0.66468   0.83381   0.16717   0.00000  Uiso   1.00
C463   C     0.83530   0.83272   0.16614   0.00000  Uiso   1.00
C464   C     0.90936   0.88005   0.18427   0.00000  Uiso   1.00
Cu465  Cu    0.75501   0.83913   0.22813   0.00000  Uiso   1.00
Cu466  Cu    0.74500   0.82754   0.10521   0.00000  Uiso   1.00
H467   H     0.89292   0.91655   0.19630   0.00000  Uiso   1.00
H468   H     0.91407   0.74525   0.04270   0.00000  Uiso   1.00
H469   H     0.81548   0.69837   0.01955   0.00000  Uiso   1.00
H470   H     0.83257   0.76561   0.02214   0.00000  Uiso   1.00
H471   H     0.86070   0.66765   0.26632   0.00000  Uiso   1.00
H472   H     0.88408   0.73425   0.27215   0.00000  Uiso   1.00
H473   H     0.82543   0.71751   0.24902   0.00000  Uiso   1.00
H474   H     0.62679   0.98256   0.12099   0.00000  Uiso   1.00
H475   H     0.57325   0.94685   0.10908   0.00000  Uiso   1.00
H476   H     0.66339   0.90585   0.06731   0.00000  Uiso   1.00
H477   H     0.61190   0.86403   0.05947   0.00000  Uiso   1.00
H478   H     0.60808   0.75020   0.15471   0.00000  Uiso   1.00
H479   H     0.57342   0.91936   0.32983   0.00000  Uiso   1.00
H480   H     0.62102   0.88793   0.29740   0.00000  Uiso   1.00
H481   H     0.62690   0.95669   0.00057   0.00000  Uiso   1.00
H482   H     0.66014   0.76322   0.25645   0.00000  Uiso   1.00
H483   H     0.66021   0.81141   0.32654   0.00000  Uiso   1.00
H484   H     0.66249   0.69098   0.30700   0.00000  Uiso   1.00
H485   H     0.66546   0.73511   0.04792   0.00000  Uiso   1.00
H486   H     0.58697   0.72035   0.27940   0.00000  Uiso   1.00
H487   H     0.59068   0.76842   0.01828   0.00000  Uiso   1.00
H488   H     0.58680   0.69939   0.01696   0.00000  Uiso   1.00
H489   H     0.95284   0.69926   0.13549   0.00000  Uiso   1.00
H490   H     0.83213   0.94871   0.03949   0.00000  Uiso   1.00
H491   H     0.81910   0.91631   0.29602   0.00000  Uiso   1.00
H492   H     0.86373   0.86757   0.06353   0.00000  Uiso   1.00
H493   H     0.85619   0.83618   0.31739   0.00000  Uiso   1.00
H494   H     0.90478   0.92060   0.30520   0.00000  Uiso   1.00
H495   H     0.93249   0.87124   0.00299   0.00000  Uiso   1.00
H496   H     0.91900   0.93116   0.05314   0.00000  Uiso   1.00
H497   H     0.54798   0.96754   0.20977   0.00000  Uiso   1.00
H498   H     0.53476   0.70081   0.14154   0.00000  Uiso   1.00
H499   H     0.96646   0.96607   0.21260   0.00000  Uiso   1.00
H500   H     0.74619   0.98680   0.09599   0.00000  Uiso   1.00
H501   H     0.74966   0.67941   0.23702   0.00000  Uiso   1.00
H502   H     0.89421   0.68106   0.04791   0.00000  Uiso   1.00
N503   N     0.73745   0.81881   0.01284   0.00000  Uiso   1.00
N504   N     0.76256   0.84786   0.32049   0.00000  Uiso   1.00
O505   O     0.75326   0.76204   0.20659   0.00000  Uiso   1.00
O506   O     0.62146   0.92790   0.17320   0.00000  Uiso   1.00
O507   O     0.72031   0.77270   0.30955   0.00000  Uiso   1.00
O508   O     0.78199   0.89125   0.02761   0.00000  Uiso   1.00
O509   O     0.74675   0.90462   0.12674   0.00000  Uiso   1.00
O510   O     0.74480   0.75226   0.10279   0.00000  Uiso   1.00
O511   O     0.75520   0.91441   0.23055   0.00000  Uiso   1.00
O512   O     0.68936   0.83821   0.21857   0.00000  Uiso   1.00
O513   O     0.81065   0.82845   0.11476   0.00000  Uiso   1.00
O514   O     0.68090   0.82843   0.11477   0.00000  Uiso   1.00
O515   O     0.81910   0.83824   0.21857   0.00000  Uiso   1.00
O516   O     0.87621   0.73939   0.11772   0.00000  Uiso   1.00
C517   C     0.24825   0.06662   0.48442   0.00000  Uiso   1.00
C518   C     0.09140   0.12005   0.49498   0.00000  Uiso   1.00
C519   C     0.38345   0.16556   0.49881   0.00000  Uiso   1.00
C520   C     0.11657   0.16783   0.50181   0.00000  Uiso   1.00
C521   C     0.40333   0.11795   0.47943   0.00000  Uiso   1.00
C522   C     0.09589   0.21564   0.50812   0.00000  Uiso   1.00
C523   C     0.45059   0.11775   0.48817   0.00000  Uiso   1.00
C524   C     0.04964   0.21582   0.51572   0.00000  Uiso   1.00
C525   C     0.47682   0.16640   0.50502   0.00000  Uiso   1.00
C526   C     0.02383   0.16715   0.50578   0.00000  Uiso   1.00
C527   C     0.45599   0.21436   0.51890   0.00000  Uiso   1.00
C528   C     0.25048   0.26660   0.51555   0.00000  Uiso   1.00
C529   C     0.04481   0.11917   0.49456   0.00000  Uiso   1.00
C530   C     0.47209   0.07035   0.47900   0.00000  Uiso   1.00
C531   C     0.02859   0.26318   0.53210   0.00000  Uiso   1.00
C532   C     0.38525   0.05581   0.38905   0.00000  Uiso   1.00
C533   C     0.34364   0.05842   0.34578   0.00000  Uiso   1.00
C534   C     0.35421   0.04336   0.61263   0.00000  Uiso   1.00
C535   C     0.10998   0.27619   0.45068   0.00000  Uiso   1.00
C536   C     0.12603   0.23800   0.39558   0.00000  Uiso   1.00
C537   C     0.11065   0.25161   0.33552   0.00000  Uiso   1.00
C538   C     0.17281   0.10604   0.63890   0.00000  Uiso   1.00
C539   C     0.01889   0.07113   0.48280   0.00000  Uiso   1.00
C540   C     0.15248   0.06279   0.66598   0.00000  Uiso   1.00
C541   C     0.10109   0.06275   0.66138   0.00000  Uiso   1.00
C542   C     0.32268   0.24268   0.34227   0.00000  Uiso   1.00
C543   C     0.36168   0.20803   0.35067   0.00000  Uiso   1.00
C544   C     0.40717   0.23447   0.34398   0.00000  Uiso   1.00
C545   C     0.48210   0.26241   0.53403   0.00000  Uiso   1.00
C546   C     0.24742   0.01053   0.47577   0.00000  Uiso   1.00
C547   C     0.24902   0.32244   0.52398   0.00000  Uiso   1.00
C548   C     0.16468   0.16715   0.50051   0.00000  Uiso   1.00
C549   C     0.33530   0.16606   0.49947   0.00000  Uiso   1.00
C550   C     0.40936   0.21339   0.51760   0.00000  Uiso   1.00
Cu551  Cu    0.25501   0.17246   0.56146   0.00000  Uiso   1.00
Cu552  Cu    0.24500   0.16087   0.43854   0.00000  Uiso   1.00
H553   H     0.39292   0.24989   0.52964   0.00000  Uiso   1.00
H554   H     0.41407   0.07858   0.37603   0.00000  Uiso   1.00
H555   H     0.31548   0.03171   0.35288   0.00000  Uiso   1.00
H556   H     0.33257   0.09895   0.35548   0.00000  Uiso   1.00
H557   H     0.36070   0.00098   0.59965   0.00000  Uiso   1.00
H558   H     0.38408   0.06759   0.60548   0.00000  Uiso   1.00
H559   H     0.32543   0.05084   0.58235   0.00000  Uiso   1.00
H560   H     0.12679   0.31589   0.45433   0.00000  Uiso   1.00
H561   H     0.07325   0.28018   0.44241   0.00000  Uiso   1.00
H562   H     0.16339   0.23919   0.40064   0.00000  Uiso   1.00
H563   H     0.11190   0.19736   0.39280   0.00000  Uiso   1.00
H564   H     0.10808   0.08353   0.48805   0.00000  Uiso   1.00
H565   H     0.07342   0.25270   0.66316   0.00000  Uiso   1.00
H566   H     0.12102   0.22126   0.63073   0.00000  Uiso   1.00
H567   H     0.12690   0.29002   0.33390   0.00000  Uiso   1.00
H568   H     0.16014   0.09655   0.58978   0.00000  Uiso   1.00
H569   H     0.16021   0.14474   0.65988   0.00000  Uiso   1.00
H570   H     0.16249   0.02431   0.64034   0.00000  Uiso   1.00
H571   H     0.16546   0.06844   0.38125   0.00000  Uiso   1.00
H572   H     0.08697   0.05369   0.61273   0.00000  Uiso   1.00
H573   H     0.09068   0.10175   0.35161   0.00000  Uiso   1.00
H574   H     0.08680   0.03272   0.35029   0.00000  Uiso   1.00
H575   H     0.45284   0.03259   0.46882   0.00000  Uiso   1.00
H576   H     0.33213   0.28204   0.37282   0.00000  Uiso   1.00
H577   H     0.31910   0.24965   0.62935   0.00000  Uiso   1.00
H578   H     0.36373   0.20091   0.39686   0.00000  Uiso   1.00
H579   H     0.35619   0.16951   0.65073   0.00000  Uiso   1.00
H580   H     0.40478   0.25393   0.63853   0.00000  Uiso   1.00
H581   H     0.43249   0.20458   0.33632   0.00000  Uiso   1.00
H582   H     0.41900   0.26450   0.38647   0.00000  Uiso   1.00
H583   H     0.04798   0.30088   0.54310   0.00000  Uiso   1.00
H584   H     0.03476   0.03414   0.47487   0.00000  Uiso   1.00
H585   H     0.46646   0.29941   0.54593   0.00000  Uiso   1.00
H586   H     0.24619   0.32014   0.42932   0.00000  Uiso   1.00
H587   H     0.24966   0.01274   0.57036   0.00000  Uiso   1.00
H588   H     0.39421   0.01439   0.38124   0.00000  Uiso   1.00
N589   N     0.23745   0.15214   0.34617   0.00000  Uiso   1.00
N590   N     0.26256   0.18119   0.65383   0.00000  Uiso   1.00
O591   O     0.25326   0.09538   0.53992   0.00000  Uiso   1.00
O592   O     0.12146   0.26124   0.50654   0.00000  Uiso   1.00
O593   O     0.22031   0.10604   0.64288   0.00000  Uiso   1.00
O594   O     0.28199   0.22458   0.36094   0.00000  Uiso   1.00
O595   O     0.24675   0.23796   0.46008   0.00000  Uiso   1.00
O596   O     0.24480   0.08559   0.43612   0.00000  Uiso   1.00
O597   O     0.25520   0.24774   0.56388   0.00000  Uiso   1.00
O598   O     0.18936   0.17155   0.55191   0.00000  Uiso   1.00
O599   O     0.31065   0.16179   0.44809   0.00000  Uiso   1.00
O600   O     0.18090   0.16176   0.44810   0.00000  Uiso   1.00
O601   O     0.31910   0.17157   0.55190   0.00000  Uiso   1.00
O602   O     0.37621   0.07272   0.45105   0.00000  Uiso   1.00
C603   C     0.74825   0.06662   0.48442   0.00000  Uiso   1.00
C604   C     0.59140   0.12005   0.49498   0.00000  Uiso   1.00
C605   C     0.88345   0.16556   0.49881   0.00000  Uiso   1.00
C606   C     0.61657   0.16783   0.50181   0.00000  Uiso   1.00
C607   C     0.90333   0.11795   0.47943   0.00000  Uiso   1.00
C608   C     0.59589   0.21564   0.50812   0.00000  Uiso   1.00
C609   C     0.95059   0.11775   0.48817   0.00000  Uiso   1.00
C610   C     0.54964   0.21582   0.51572   0.00000  Uiso   1.00
C611   C     0.97682   0.16640   0.50502   0.00000  Uiso   1.00
C612   C     0.52383   0.16715   0.50578   0.00000  Uiso   1.00
C613   C     0.95599   0.21436   0.51890   0.00000  Uiso   1.00
C614   C     0.75048   0.26660   0.51555   0.00000  Uiso   1.00
C615   C     0.54481   0.11917   0.49456   0.00000  Uiso   1.00
C616   C     0.97209   0.07035   0.47900   0.00000  Uiso   1.00
C617   C     0.52859   0.26318   0.53210   0.00000  Uiso   1.00
C618   C     0.88525   0.05581   0.38905   0.00000  Uiso   1.00
C619   C     0.84364   0.05842   0.34578   0.00000  Uiso   1.00
C620   C     0.85421   0.04336   0.61263   0.00000  Uiso   1.00
C621   C     0.60998   0.27619   0.45068   0.00000  Uiso   1.00
C622   C     0.62603   0.23800   0.39558   0.00000  Uiso   1.00
C623   C     0.61065   0.25161   0.33552   0.00000  Uiso   1.00
C624   C     0.67281   0.10604   0.63890   0.00000  Uiso   1.00
C625   C     0.51889   0.07113   0.48280   0.00000  Uiso   1.00
C626   C     0.65248   0.06279   0.66598   0.00000  Uiso   1.00
C627   C     0.60109   0.06275   0.66138   0.00000  Uiso   1.00
C628   C     0.82268   0.24268   0.34227   0.00000  Uiso   1.00
C629   C     0.86168   0.20803   0.35067   0.00000  Uiso   1.00
C630   C     0.90717   0.23447   0.34398   0.00000  Uiso   1.00
C631   C     0.98210   0.26241   0.53403   0.00000  Uiso   1.00
C632   C     0.74742   0.01053   0.47577   0.00000  Uiso   1.00
C633   C     0.74902   0.32244   0.52398   0.00000  Uiso   1.00
C634   C     0.66468   0.16715   0.50051   0.00000  Uiso   1.00
C635   C     0.83530   0.16606   0.49947   0.00000  Uiso   1.00
C636   C     0.90936   0.21339   0.51760   0.00000  Uiso   1.00
Cu637  Cu    0.75501   0.17246   0.56146   0.00000  Uiso   1.00
Cu638  Cu    0.74500   0.16087   0.43854   0.00000  Uiso   1.00
H639   H     0.89292   0.24989   0.52964   0.00000  Uiso   1.00
H640   H     0.91407   0.07858   0.37603   0.00000  Uiso   1.00
H641   H     0.81548   0.03171   0.35288   0.00000  Uiso   1.00
H642   H     0.83257   0.09895   0.35548   0.00000  Uiso   1.00
H643   H     0.86070   0.00098   0.59965   0.00000  Uiso   1.00
H644   H     0.88408   0.06759   0.60548   0.00000  Uiso   1.00
H645   H     0.82543   0.05084   0.58235   0.00000  Uiso   1.00
H646   H     0.62679   0.31589   0.45433   0.00000  Uiso   1.00
H647   H     0.57325   0.28018   0.44241   0.00000  Uiso   1.00
H648   H     0.66339   0.23919   0.40064   0.00000  Uiso   1.00
H649   H     0.61190   0.19736   0.39280   0.00000  Uiso   1.00
H650   H     0.60808   0.08353   0.48805   0.00000  Uiso   1.00
H651   H     0.57342   0.25270   0.66316   0.00000  Uiso   1.00
H652   H     0.62102   0.22126   0.63073   0.00000  Uiso   1.00
H653   H     0.62690   0.29002   0.33390   0.00000  Uiso   1.00
H654   H     0.66014   0.09655   0.58978   0.00000  Uiso   1.00
H655   H     0.66021   0.14474   0.65988   0.00000  Uiso   1.00
H656   H     0.66249   0.02431   0.64034   0.00000  Uiso   1.00
H657   H     0.66546   0.06844   0.38125   0.00000  Uiso   1.00
H658   H     0.58697   0.05369   0.61273   0.00000  Uiso   1.00
H659   H     0.59068   0.10175   0.35161   0.00000  Uiso   1.00
H660   H     0.58680   0.03272   0.35029   0.00000  Uiso   1.00
H661   H     0.95284   0.03259   0.46882   0.00000  Uiso   1.00
H662   H     0.83213   0.28204   0.37282   0.00000  Uiso   1.00
H663   H     0.81910   0.24965   0.62935   0.00000  Uiso   1.00
H664   H     0.86373   0.20091   0.39686   0.00000  Uiso   1.00
H665   H     0.85619   0.16951   0.65073   0.00000  Uiso   1.00
H666   H     0.90478   0.25393   0.63853   0.00000  Uiso   1.00
H667   H     0.93249   0.20458   0.33632   0.00000  Uiso   1.00
H668   H     0.91900   0.26450   0.38647   0.00000  Uiso   1.00
H669   H     0.54798   0.30088   0.54310   0.00000  Uiso   1.00
H670   H     0.53476   0.03414   0.47487   0.00000  Uiso   1.00
H671   H     0.96646   0.29941   0.54593   0.00000  Uiso   1.00
H672   H     0.74619   0.32014   0.42932   0.00000  Uiso   1.00
H673   H     0.74966   0.01274   0.57036   0.00000  Uiso   1.00
H674   H     0.89421   0.01439   0.38124   0.00000  Uiso   1.00
N675   N     0.73745   0.15214   0.34617   0.00000  Uiso   1.00
N676   N     0.76256   0.18119   0.65383   0.00000  Uiso   1.00
O677   O     0.75326   0.09538   0.53992   0.00000  Uiso   1.00
O678   O     0.62146   0.26124   0.50654   0.00000  Uiso   1.00
O679   O     0.72031   0.10604   0.64288   0.00000  Uiso   1.00
O680   O     0.78199   0.22458   0.36094   0.00000  Uiso   1.00
O681   O     0.74675   0.23796   0.46008   0.00000  Uiso   1.00
O682   O     0.74480   0.08559   0.43612   0.00000  Uiso   1.00
O683   O     0.75520   0.24774   0.56388   0.00000  Uiso   1.00
O684   O     0.68936   0.17155   0.55191   0.00000  Uiso   1.00
O685   O     0.81065   0.16179   0.44809   0.00000  Uiso   1.00
O686   O     0.68090   0.16176   0.44810   0.00000  Uiso   1.00
O687   O     0.81910   0.17157   0.55190   0.00000  Uiso   1.00
O688   O     0.87621   0.07272   0.45105   0.00000  Uiso   1.00
C689   C     0.24825   0.39995   0.48442   0.00000  Uiso   1.00
C690   C     0.09140   0.45338   0.49498   0.00000  Uiso   1.00
C691   C     0.38345   0.49889   0.49881   0.00000  Uiso   1.00
C692   C     0.11657   0.50116   0.50181   0.00000  Uiso   1.00
C693   C     0.40333   0.45128   0.47943   0.00000  Uiso   1.00
C694   C     0.09589   0.54897   0.50812   0.00000  Uiso   1.00
C695   C     0.45059   0.45108   0.48817   0.00000  Uiso   1.00
C696   C     0.04964   0.54916   0.51572   0.00000  Uiso   1.00
C697   C     0.47682   0.49973   0.50502   0.00000  Uiso   1.00
C698   C     0.02383   0.50049   0.50578   0.00000  Uiso   1.00
C699   C     0.45599   0.54769   0.51890   0.00000  Uiso   1.00
C700   C     0.25048   0.59993   0.51555   0.00000  Uiso   1.00
C701   C     0.04481   0.45250   0.49456   0.00000  Uiso   1.00
C702   C     0.47209   0.40368   0.47900   0.00000  Uiso   1.00
C703   C     0.02859   0.59651   0.53210   0.00000  Uiso   1.00
C704   C     0.38525   0.38915   0.38905   0.00000  Uiso   1.00
C705   C     0.34364   0.39175   0.34578   0.00000  Uiso   1.00
C706   C     0.35421   0.37669   0.61263   0.00000  Uiso   1.00
C707   C     0.10998   0.60952   0.45068   0.00000  Uiso   1.00
C708   C     0.12603   0.57134   0.39558   0.00000  Uiso   1.00
C709   C     0.11065   0.58494   0.33552   0.00000  Uiso   1.00
C710   C     0.17281   0.43938   0.63890   0.00000  Uiso   1.00
C711   C     0.01889   0.40446   0.48280   0.00000  Uiso   1.00
C712   C     0.15248   0.39613   0.66598   0.00000  Uiso   1.00
C713   C     0.10109   0.39609   0.66138   0.00000  Uiso   1.00
C714   C     0.32268   0.57601   0.34227   0.00000  Uiso   1.00
C715   C     0.36168   0.54136   0.35067   0.00000  Uiso   1.00
C716   C     0.40717   0.56781   0.34398   0.00000  Uiso   1.00
C717   C     0.48210   0.59574   0.53403   0.00000  Uiso   1.00
C718   C     0.24742   0.34386   0.47577   0.00000  Uiso   1.00
C719   C     0.24902   0.65577   0.52398   0.00000  Uiso   1.00
C720   C     0.16468   0.50048   0.50051   0.00000  Uiso   1.00
C721   C     0.33530   0.49939   0.49947   0.00000  Uiso   1.00
C722   C     0.40936   0.54672   0.51760   0.00000  Uiso   1.00
Cu723  Cu    0.25501   0.50579   0.56146   0.00000  Uiso   1.00
Cu724  Cu    0.24500   0.49421   0.43854   0.00000  Uiso   1.00
H725   H     0.39292   0.58322   0.52964   0.00000  Uiso   1.00
H726   H     0.41407   0.41191   0.37603   0.00000  Uiso   1.00
H727   H     0.31548   0.36504   0.35288   0.00000  Uiso   1.00
H728   H     0.33257   0.43228   0.35548   0.00000  Uiso   1.00
H729   H     0.36070   0.33432   0.59965   0.00000  Uiso   1.00
H730   H     0.38408   0.40092   0.60548   0.00000  Uiso   1.00
H731   H     0.32543   0.38418   0.58235   0.00000  Uiso   1.00
H732   H     0.12679   0.64922   0.45433   0.00000  Uiso   1.00
H733   H     0.07325   0.61351   0.44241   0.00000  Uiso   1.00
H734   H     0.16339   0.57252   0.40064   0.00000  Uiso   1.00
H735   H     0.11190   0.53069   0.39280   0.00000  Uiso   1.00
H736   H     0.10808   0.41686   0.48805   0.00000  Uiso   1.00
H737   H     0.07342   0.58603   0.66316   0.00000  Uiso   1.00
H738   H     0.12102   0.55459   0.63073   0.00000  Uiso   1.00
H739   H     0.12690   0.62335   0.33390   0.00000  Uiso   1.00
H740   H     0.16014   0.42988   0.58978   0.00000  Uiso   1.00
H741   H     0.16021   0.47808   0.65988   0.00000  Uiso   1.00
H742   H     0.16249   0.35764   0.64034   0.00000  Uiso   1.00
H743   H     0.16546   0.40178   0.38125   0.00000  Uiso   1.00
H744   H     0.08697   0.38702   0.61273   0.00000  Uiso   1.00
H745   H     0.09068   0.43508   0.35161   0.00000  Uiso   1.00
H746   H     0.08680   0.36605   0.35029   0.00000  Uiso   1.00
H747   H     0.45284   0.36592   0.46882   0.00000  Uiso   1.00
H748   H     0.33213   0.61537   0.37282   0.00000  Uiso   1.00
H749   H     0.31910   0.58298   0.62935   0.00000  Uiso   1.00
H750   H     0.36373   0.53424   0.39686   0.00000  Uiso   1.00
H751   H     0.35619   0.50284   0.65073   0.00000  Uiso   1.00
H752   H     0.40478   0.58727   0.63853   0.00000  Uiso   1.00
H753   H     0.43249   0.53791   0.33632   0.00000  Uiso   1.00
H754   H     0.41900   0.59783   0.38647   0.00000  Uiso   1.00
H755   H     0.04798   0.63421   0.54310   0.00000  Uiso   1.00
H756   H     0.03476   0.36747   0.47487   0.00000  Uiso   1.00
H757   H     0.46646   0.63274   0.54593   0.00000  Uiso   1.00
H758   H     0.24619   0.65347   0.42932   0.00000  Uiso   1.00
H759   H     0.24966   0.34607   0.57036   0.00000  Uiso   1.00
H760   H     0.39421   0.34772   0.38124   0.00000  Uiso   1.00
N761   N     0.23745   0.48547   0.34617   0.00000  Uiso   1.00
N762   N     0.26256   0.51453   0.65383   0.00000  Uiso   1.00
O763   O     0.25326   0.42871   0.53992   0.00000  Uiso   1.00
O764   O     0.12146   0.59457   0.50654   0.00000  Uiso   1.00
O765   O     0.22031   0.43937   0.64288   0.00000  Uiso   1.00
O766   O     0.28199   0.55791   0.36094   0.00000  Uiso   1.00
O767   O     0.24675   0.57129   0.46008   0.00000  Uiso   1.00
O768   O     0.24480   0.41892   0.43612   0.00000  Uiso   1.00
O769   O     0.25520   0.58108   0.56388   0.00000  Uiso   1.00
O770   O     0.18936   0.50488   0.55191   0.00000  Uiso   1.00
O771   O     0.31065   0.49512   0.44809   0.00000  Uiso   1.00
O772   O     0.18090   0.49510   0.44810   0.00000  Uiso   1.00
O773   O     0.31910   0.50490   0.55190   0.00000  Uiso   1.00
O774   O     0.37621   0.40605   0.45105   0.00000  Uiso   1.00
C775   C     0.74825   0.39995   0.48442   0.00000  Uiso   1.00
C776   C     0.59140   0.45338   0.49498   0.00000  Uiso   1.00
C777   C     0.88345   0.49889   0.49881   0.00000  Uiso   1.00
C778   C     0.61657   0.50116   0.50181   0.00000  Uiso   1.00
C779   C     0.90333   0.45128   0.47943   0.00000  Uiso   1.00
C780   C     0.59589   0.54897   0.50812   0.00000  Uiso   1.00
C781   C     0.95059   0.45108   0.48817   0.00000  Uiso   1.00
C782   C     0.54964   0.54916   0.51572   0.00000  Uiso   1.00
C783   C     0.97682   0.49973   0.50502   0.00000  Uiso   1.00
C784   C     0.52383   0.50049   0.50578   0.00000  Uiso   1.00
C785   C     0.95599   0.54769   0.51890   0.00000  Uiso   1.00
C786   C     0.75048   0.59993   0.51555   0.00000  Uiso   1.00
C787   C     0.54481   0.45250   0.49456   0.00000  Uiso   1.00
C788   C     0.97209   0.40368   0.47900   0.00000  Uiso   1.00
C789   C     0.52859   0.59651   0.53210   0.00000  Uiso   1.00
C790   C     0.88525   0.38915   0.38905   0.00000  Uiso   1.00
C791   C     0.84364   0.39175   0.34578   0.00000  Uiso   1.00
C792   C     0.85421   0.37669   0.61263   0.00000  Uiso   1.00
C793   C     0.60998   0.60952   0.45068   0.00000  Uiso   1.00
C794   C     0.62603   0.57134   0.39558   0.00000  Uiso   1.00
C795   C     0.61065   0.58494   0.33552   0.00000  Uiso   1.00
C796   C     0.67281   0.43938   0.63890   0.00000  Uiso   1.00
C797   C     0.51889   0.40446   0.48280   0.00000  Uiso   1.00
C798   C     0.65248   0.39613   0.66598   0.00000  Uiso   1.00
C799   C     0.60109   0.39609   0.66138   0.00000  Uiso   1.00
C800   C     0.82268   0.57601   0.34227   0.00000  Uiso   1.00
C801   C     0.86168   0.54136   0.35067   0.00000  Uiso   1.00
C802   C     0.90717   0.56781   0.34398   0.00000  Uiso   1.00
C803   C     0.98210   0.59574   0.53403   0.00000  Uiso   1.00
C804   C     0.74742   0.34386   0.47577   0.00000  Uiso   1.00
C805   C     0.74902   0.65577   0.52398   0.00000  Uiso   1.00
C806   C     0.66468   0.50048   0.50051   0.00000  Uiso   1.00
C807   C     0.83530   0.49939   0.49947   0.00000  Uiso   1.00
C808   C     0.90936   0.54672   0.51760   0.00000  Uiso   1.00
Cu809  Cu    0.75501   0.50579   0.56146   0.00000  Uiso   1.00
Cu810  Cu    0.74500   0.49421   0.43854   0.00000  Uiso   1.00
H811   H     0.89292   0.58322   0.52964   0.00000  Uiso   1.00
H812   H     0.91407   0.41191   0.37603   0.00000  Uiso   1.00
H813   H     0.81548   0.36504   0.35288   0.00000  Uiso   1.00
H814   H     0.83257   0.43228   0.35548   0.00000  Uiso   1.00
H815   H     0.86070   0.33432   0.59965   0.00000  Uiso   1.00
H816   H     0.88408   0.40092   0.60548   0.00000  Uiso   1.00
H817   H     0.82543   0.38418   0.58235   0.00000  Uiso   1.00
H818   H     0.62679   0.64922   0.45433   0.00000  Uiso   1.00
H819   H     0.57325   0.61351   0.44241   0.00000  Uiso   1.00
H820   H     0.66339   0.57252   0.40064   0.00000  Uiso   1.00
H821   H     0.61190   0.53069   0.39280   0.00000  Uiso   1.00
H822   H     0.60808   0.41686   0.48805   0.00000  Uiso   1.00
H823   H     0.57342   0.58603   0.66316   0.00000  Uiso   1.00
H824   H     0.62102   0.55459   0.63073   0.00000  Uiso   1.00
H825   H     0.62690   0.62335   0.33390   0.00000  Uiso   1.00
H826   H     0.66014   0.42988   0.58978   0.00000  Uiso   1.00
H827   H     0.66021   0.47808   0.65988   0.00000  Uiso   1.00
H828   H     0.66249   0.35764   0.64034   0.00000  Uiso   1.00
H829   H     0.66546   0.40178   0.38125   0.00000  Uiso   1.00
H830   H     0.58697   0.38702   0.61273   0.00000  Uiso   1.00
H831   H     0.59068   0.43508   0.35161   0.00000  Uiso   1.00
H832   H     0.58680   0.36605   0.35029   0.00000  Uiso   1.00
H833   H     0.95284   0.36592   0.46882   0.00000  Uiso   1.00
H834   H     0.83213   0.61537   0.37282   0.00000  Uiso   1.00
H835   H     0.81910   0.58298   0.62935   0.00000  Uiso   1.00
H836   H     0.86373   0.53424   0.39686   0.00000  Uiso   1.00
H837   H     0.85619   0.50284   0.65073   0.00000  Uiso   1.00
H838   H     0.90478   0.58727   0.63853   0.00000  Uiso   1.00
H839   H     0.93249   0.53791   0.33632   0.00000  Uiso   1.00
H840   H     0.91900   0.59783   0.38647   0.00000  Uiso   1.00
H841   H     0.54798   0.63421   0.54310   0.00000  Uiso   1.00
H842   H     0.53476   0.36747   0.47487   0.00000  Uiso   1.00
H843   H     0.96646   0.63274   0.54593   0.00000  Uiso   1.00
H844   H     0.74619   0.65347   0.42932   0.00000  Uiso   1.00
H845   H     0.74966   0.34607   0.57036   0.00000  Uiso   1.00
H846   H     0.89421   0.34772   0.38124   0.00000  Uiso   1.00
N847   N     0.73745   0.48547   0.34617   0.00000  Uiso   1.00
N848   N     0.76256   0.51453   0.65383   0.00000  Uiso   1.00
O849   O     0.75326   0.42871   0.53992   0.00000  Uiso   1.00
O850   O     0.62146   0.59457   0.50654   0.00000  Uiso   1.00
O851   O     0.72031   0.43937   0.64288   0.00000  Uiso   1.00
O852   O     0.78199   0.55791   0.36094   0.00000  Uiso   1.00
O853   O     0.74675   0.57129   0.46008   0.00000  Uiso   1.00
O854   O     0.74480   0.41892   0.43612   0.00000  Uiso   1.00
O855   O     0.75520   0.58108   0.56388   0.00000  Uiso   1.00
O856   O     0.68936   0.50488   0.55191   0.00000  Uiso   1.00
O857   O     0.81065   0.49512   0.44809   0.00000  Uiso   1.00
O858   O     0.68090   0.49510   0.44810   0.00000  Uiso   1.00
O859   O     0.81910   0.50490   0.55190   0.00000  Uiso   1.00
O860   O     0.87621   0.40605   0.45105   0.00000  Uiso   1.00
C861   C     0.24825   0.73329   0.48442   0.00000  Uiso   1.00
C862   C     0.09140   0.78672   0.49498   0.00000  Uiso   1.00
C863   C     0.38345   0.83222   0.49881   0.00000  Uiso   1.00
C864   C     0.11657   0.83450   0.50181   0.00000  Uiso   1.00
C865   C     0.40333   0.78461   0.47943   0.00000  Uiso   1.00
C866   C     0.09589   0.88231   0.50812   0.00000  Uiso   1.00
C867   C     0.45059   0.78442   0.48817   0.00000  Uiso   1.00
C868   C     0.04964   0.88249   0.51572   0.00000  Uiso   1.00
C869   C     0.47682   0.83306   0.50502   0.00000  Uiso   1.00
C870   C     0.02383   0.83382   0.50578   0.00000  Uiso   1.00
C871   C     0.45599   0.88103   0.51890   0.00000  Uiso   1.00
C872   C     0.25048   0.93327   0.51555   0.00000  Uiso   1.00
C873   C     0.04481   0.78583   0.49456   0.00000  Uiso   1.00
C874   C     0.47209   0.73702   0.47900   0.00000  Uiso   1.00
C875   C     0.02859   0.92985   0.53210   0.00000  Uiso   1.00
C876   C     0.38525   0.72248   0.38905   0.00000  Uiso   1.00
C877   C     0.34364   0.72509   0.34578   0.00000  Uiso   1.00
C878   C     0.35421   0.71003   0.61263   0.00000  Uiso   1.00
C879   C     0.10998   0.94285   0.45068   0.00000  Uiso   1.00
C880   C     0.12603   0.90467   0.39558   0.00000  Uiso   1.00
C881   C     0.11065   0.91827   0.33552   0.00000  Uiso   1.00
C882   C     0.17281   0.77271   0.63890   0.00000  Uiso   1.00
C883   C     0.01889   0.73779   0.48280   0.00000  Uiso   1.00
C884   C     0.15248   0.72946   0.66598   0.00000  Uiso   1.00
C885   C     0.10109   0.72942   0.66138   0.00000  Uiso   1.00
C886   C     0.32268   0.90934   0.34227   0.00000  Uiso   1.00
C887   C     0.36168   0.87469   0.35067   0.00000  Uiso   1.00
C888   C     0.40717   0.90114   0.34398   0.00000  Uiso   1.00
C889   C     0.48210   0.92908   0.53403   0.00000  Uiso   1.00
C890   C     0.24742   0.67720   0.47577   0.00000  Uiso   1.00
C891   C     0.24902   0.98910   0.52398   0.00000  Uiso   1.00
C892   C     0.16468   0.83381   0.50051   0.00000  Uiso   1.00
C893   C     0.33530   0.83272   0.49947   0.00000  Uiso   1.00
C894   C     0.40936   0.88005   0.51760   0.00000  Uiso   1.00
Cu895  Cu    0.25501   0.83913   0.56146   0.00000  Uiso   1.00
Cu896  Cu    0.24500   0.82754   0.43854   0.00000  Uiso   1.00
H897   H     0.39292   0.91655   0.52964   0.00000  Uiso   1.00
H898   H     0.41407   0.74525   0.37603   0.00000  Uiso   1.00
H899   H     0.31548   0.69837   0.35288   0.00000  Uiso   1.00
H900   H     0.33257   0.76561   0.35548   0.00000  Uiso   1.00
H901   H     0.36070   0.66765   0.59965   0.00000  Uiso   1.00
H902   H     0.38408   0.73425   0.60548   0.00000  Uiso   1.00
H903   H     0.32543   0.71751   0.58235   0.00000  Uiso   1.00
H904   H     0.12679   0.98256   0.45433   0.00000  Uiso   1.00
H905   H     0.07325   0.94685   0.44241   0.00000  Uiso   1.00
H906   H     0.16339   0.90585   0.40064   0.00000  Uiso   1.00
H907   H     0.11190   0.86403   0.39280   0.00000  Uiso   1.00
H908   H     0.10808   0.75020   0.48805   0.00000  Uiso   1.00
H909   H     0.07342   0.91936   0.66316   0.00000  Uiso   1.00
H910   H     0.12102   0.88793   0.63073   0.00000  Uiso   1.00
H911   H     0.12690   0.95669   0.33390   0.00000  Uiso   1.00
H912   H     0.16014   0.76322   0.58978   0.00000  Uiso   1.00
H913   H     0.16021   0.81141   0.65988   0.00000  Uiso   1.00
H914   H     0.16249   0.69098   0.64034   0.00000  Uiso   1.00
H915   H     0.16546   0.73511   0.38125   0.00000  Uiso   1.00
H916   H     0.08697   0.72035   0.61273   0.00000  Uiso   1.00
H917   H     0.09068   0.76842   0.35161   0.00000  Uiso   1.00
H918   H     0.08680   0.69939   0.35029   0.00000  Uiso   1.00
H919   H     0.45284   0.69926   0.46882   0.00000  Uiso   1.00
H920   H     0.33213   0.94871   0.37282   0.00000  Uiso   1.00
H921   H     0.31910   0.91631   0.62935   0.00000  Uiso   1.00
H922   H     0.36373   0.86757   0.39686   0.00000  Uiso   1.00
H923   H     0.35619   0.83618   0.65073   0.00000  Uiso   1.00
H924   H     0.40478   0.92060   0.63853   0.00000  Uiso   1.00
H925   H     0.43249   0.87124   0.33632   0.00000  Uiso   1.00
H926   H     0.41900   0.93116   0.38647   0.00000  Uiso   1.00
H927   H     0.04798   0.96754   0.54310   0.00000  Uiso   1.00
H928   H     0.03476   0.70081   0.47487   0.00000  Uiso   1.00
H929   H     0.46646   0.96607   0.54593   0.00000  Uiso   1.00
H930   H     0.24619   0.98680   0.42932   0.00000  Uiso   1.00
H931   H     0.24966   0.67941   0.57036   0.00000  Uiso   1.00
H932   H     0.39421   0.68106   0.38124   0.00000  Uiso   1.00
N933   N     0.23745   0.81881   0.34617   0.00000  Uiso   1.00
N934   N     0.26256   0.84786   0.65383   0.00000  Uiso   1.00
O935   O     0.25326   0.76204   0.53992   0.00000  Uiso   1.00
O936   O     0.12146   0.92790   0.50654   0.00000  Uiso   1.00
O937   O     0.22031   0.77270   0.64288   0.00000  Uiso   1.00
O938   O     0.28199   0.89125   0.36094   0.00000  Uiso   1.00
O939   O     0.24675   0.90462   0.46008   0.00000  Uiso   1.00
O940   O     0.24480   0.75226   0.43612   0.00000  Uiso   1.00
O941   O     0.25520   0.91441   0.56388   0.00000  Uiso   1.00
O942   O     0.18936   0.83821   0.55191   0.00000  Uiso   1.00
O943   O     0.31065   0.82845   0.44809   0.00000  Uiso   1.00
O944   O     0.18090   0.82843   0.44810   0.00000  Uiso   1.00
O945   O     0.31910   0.83824   0.55190   0.00000  Uiso   1.00
O946   O     0.37621   0.73939   0.45105   0.00000  Uiso   1.00
C947   C     0.74825   0.73329   0.48442   0.00000  Uiso   1.00
C948   C     0.59140   0.78672   0.49498   0.00000  Uiso   1.00
C949   C     0.88345   0.83222   0.49881   0.00000  Uiso   1.00
C950   C     0.61657   0.83450   0.50181   0.00000  Uiso   1.00
C951   C     0.90333   0.78461   0.47943   0.00000  Uiso   1.00
C952   C     0.59589   0.88231   0.50812   0.00000  Uiso   1.00
C953   C     0.95059   0.78442   0.48817   0.00000  Uiso   1.00
C954   C     0.54964   0.88249   0.51572   0.00000  Uiso   1.00
C955   C     0.97682   0.83306   0.50502   0.00000  Uiso   1.00
C956   C     0.52383   0.83382   0.50578   0.00000  Uiso   1.00
C957   C     0.95599   0.88103   0.51890   0.00000  Uiso   1.00
C958   C     0.75048   0.93327   0.51555   0.00000  Uiso   1.00
C959   C     0.54481   0.78583   0.49456   0.00000  Uiso   1.00
C960   C     0.97209   0.73702   0.47900   0.00000  Uiso   1.00
C961   C     0.52859   0.92985   0.53210   0.00000  Uiso   1.00
C962   C     0.88525   0.72248   0.38905   0.00000  Uiso   1.00
C963   C     0.84364   0.72509   0.34578   0.00000  Uiso   1.00
C964   C     0.85421   0.71003   0.61263   0.00000  Uiso   1.00
C965   C     0.60998   0.94285   0.45068   0.00000  Uiso   1.00
C966   C     0.62603   0.90467   0.39558   0.00000  Uiso   1.00
C967   C     0.61065   0.91827   0.33552   0.00000  Uiso   1.00
C968   C     0.67281   0.77271   0.63890   0.00000  Uiso   1.00
C969   C     0.51889   0.73779   0.48280   0.00000  Uiso   1.00
C970   C     0.65248   0.72946   0.66598   0.00000  Uiso   1.00
C971   C     0.60109   0.72942   0.66138   0.00000  Uiso   1.00
C972   C     0.82268   0.90934   0.34227   0.00000  Uiso   1.00
C973   C     0.86168   0.87469   0.35067   0.00000  Uiso   1.00
C974   C     0.90717   0.90114   0.34398   0.00000  Uiso   1.00
C975   C     0.98210   0.92908   0.53403   0.00000  Uiso   1.00
C976   C     0.74742   0.67720   0.47577   0.00000  Uiso   1.00
C977   C     0.74902   0.98910   0.52398   0.00000  Uiso   1.00
C978   C     0.66468   0.83381   0.50051   0.00000  Uiso   1.00
C979   C     0.83530   0.83272   0.49947   0.00000  Uiso   1.00
C980   C     0.90936   0.88005   0.51760   0.00000  Uiso   1.00
Cu981  Cu    0.75501   0.83913   0.56146   0.00000  Uiso   1.00
Cu982  Cu    0.74500   0.82754   0.43854   0.00000  Uiso   1.00
H983   H     0.89292   0.91655   0.52964   0.00000  Uiso   1.00
H984   H     0.91407   0.74525   0.37603   0.00000  Uiso   1.00
H985   H     0.81548   0.69837   0.35288   0.00000  Uiso   1.00
H986   H     0.83257   0.76561   0.35548   0.00000  Uiso   1.00
H987   H     0.86070   0.66765   0.59965   0.00000  Uiso   1.00
H988   H     0.88408   0.73425   0.60548   0.00000  Uiso   1.00
H989   H     0.82543   0.71751   0.58235   0.00000  Uiso   1.00
H990   H     0.62679   0.98256   0.45433   0.00000  Uiso   1.00
H991   H     0.57325   0.94685   0.44241   0.00000  Uiso   1.00
H992   H     0.66339   0.90585   0.40064   0.00000  Uiso   1.00
H993   H     0.61190   0.86403   0.39280   0.00000  Uiso   1.00
H994   H     0.60808   0.75020   0.48805   0.00000  Uiso   1.00
H995   H     0.57342   0.91936   0.66316   0.00000  Uiso   1.00
H996   H     0.62102   0.88793   0.63073   0.00000  Uiso   1.00
H997   H     0.62690   0.95669   0.33390   0.00000  Uiso   1.00
H998   H     0.66014   0.76322   0.58978   0.00000  Uiso   1.00
H999   H     0.66021   0.81141   0.65988   0.00000  Uiso   1.00
H1000  H     0.66249   0.69098   0.64034   0.00000  Uiso   1.00
H1001  H     0.66546   0.73511   0.38125   0.00000  Uiso   1.00
H1002  H     0.58697   0.72035   0.61273   0.00000  Uiso   1.00
H1003  H     0.59068   0.76842   0.35161   0.00000  Uiso   1.00
H1004  H     0.58680   0.69939   0.35029   0.00000  Uiso   1.00
H1005  H     0.95284   0.69926   0.46882   0.00000  Uiso   1.00
H1006  H     0.83213   0.94871   0.37282   0.00000  Uiso   1.00
H1007  H     0.81910   0.91631   0.62935   0.00000  Uiso   1.00
H1008  H     0.86373   0.86757   0.39686   0.00000  Uiso   1.00
H1009  H     0.85619   0.83618   0.65073   0.00000  Uiso   1.00
H1010  H     0.90478   0.92060   0.63853   0.00000  Uiso   1.00
H1011  H     0.93249   0.87124   0.33632   0.00000  Uiso   1.00
H1012  H     0.91900   0.93116   0.38647   0.00000  Uiso   1.00
H1013  H     0.54798   0.96754   0.54310   0.00000  Uiso   1.00
H1014  H     0.53476   0.70081   0.47487   0.00000  Uiso   1.00
H1015  H     0.96646   0.96607   0.54593   0.00000  Uiso   1.00
H1016  H     0.74619   0.98680   0.42932   0.00000  Uiso   1.00
H1017  H     0.74966   0.67941   0.57036   0.00000  Uiso   1.00
H1018  H     0.89421   0.68106   0.38124   0.00000  Uiso   1.00
N1019  N     0.73745   0.81881   0.34617   0.00000  Uiso   1.00
N1020  N     0.76256   0.84786   0.65383   0.00000  Uiso   1.00
O1021  O     0.75326   0.76204   0.53992   0.00000  Uiso   1.00
O1022  O     0.62146   0.92790   0.50654   0.00000  Uiso   1.00
O1023  O     0.72031   0.77270   0.64288   0.00000  Uiso   1.00
O1024  O     0.78199   0.89125   0.36094   0.00000  Uiso   1.00
O1025  O     0.74675   0.90462   0.46008   0.00000  Uiso   1.00
O1026  O     0.74480   0.75226   0.43612   0.00000  Uiso   1.00
O1027  O     0.75520   0.91441   0.56388   0.00000  Uiso   1.00
O1028  O     0.68936   0.83821   0.55191   0.00000  Uiso   1.00
O1029  O     0.81065   0.82845   0.44809   0.00000  Uiso   1.00
O1030  O     0.68090   0.82843   0.44810   0.00000  Uiso   1.00
O1031  O     0.81910   0.83824   0.55190   0.00000  Uiso   1.00
O1032  O     0.87621   0.73939   0.45105   0.00000  Uiso   1.00
C1033  C     0.24825   0.06662   0.81775   0.00000  Uiso   1.00
C1034  C     0.09140   0.12005   0.82832   0.00000  Uiso   1.00
C1035  C     0.38345   0.16556   0.83214   0.00000  Uiso   1.00
C1036  C     0.11657   0.16783   0.83514   0.00000  Uiso   1.00
C1037  C     0.40333   0.11795   0.81276   0.00000  Uiso   1.00
C1038  C     0.09589   0.21564   0.84145   0.00000  Uiso   1.00
C1039  C     0.45059   0.11775   0.82150   0.00000  Uiso   1.00
C1040  C     0.04964   0.21582   0.84906   0.00000  Uiso   1.00
C1041  C     0.47682   0.16640   0.83835   0.00000  Uiso   1.00
C1042  C     0.02383   0.16715   0.83912   0.00000  Uiso   1.00
C1043  C     0.45599   0.21436   0.85223   0.00000  Uiso   1.00
C1044  C     0.25048   0.26660   0.84888   0.00000  Uiso   1.00
C1045  C     0.04481   0.11917   0.82790   0.00000  Uiso   1.00
C1046  C     0.47209   0.07035   0.81234   0.00000  Uiso   1.00
C1047  C     0.02859   0.26318   0.86543   0.00000  Uiso   1.00
C1048  C     0.38525   0.05581   0.72238   0.00000  Uiso   1.00
C1049  C     0.34364   0.05842   0.67911   0.00000  Uiso   1.00
C1050  C     0.35421   0.04336   0.94596   0.00000  Uiso   1.00
C1051  C     0.10998   0.27619   0.78401   0.00000  Uiso   1.00
C1052  C     0.12603   0.23800   0.72891   0.00000  Uiso   1.00
C1053  C     0.11065   0.25161   0.66886   0.00000  Uiso   1.00
C1054  C     0.17281   0.10604   0.97223   0.00000  Uiso   1.00
C1055  C     0.01889   0.07113   0.81614   0.00000  Uiso   1.00
C1056  C     0.15248   0.06279   0.99931   0.00000  Uiso   1.00
C1057  C     0.10109   0.06275   0.99472   0.00000  Uiso   1.00
C1058  C     0.32268   0.24268   0.67560   0.00000  Uiso   1.00
C1059  C     0.36168   0.20803   0.68400   0.00000  Uiso   1.00
C1060  C     0.40717   0.23447   0.67732   0.00000  Uiso   1.00
C1061  C     0.48210   0.26241   0.86736   0.00000  Uiso   1.00
C1062  C     0.24742   0.01053   0.80910   0.00000  Uiso   1.00
C1063  C     0.24902   0.32244   0.85731   0.00000  Uiso   1.00
C1064  C     0.16468   0.16715   0.83384   0.00000  Uiso   1.00
C1065  C     0.33530   0.16606   0.83281   0.00000  Uiso   1.00
C1066  C     0.40936   0.21339   0.85094   0.00000  Uiso   1.00
Cu1067 Cu    0.25501   0.17246   0.89479   0.00000  Uiso   1.00
Cu1068 Cu    0.24500   0.16087   0.77187   0.00000  Uiso   1.00
H1069  H     0.39292   0.24989   0.86297   0.00000  Uiso   1.00
H1070  H     0.41407   0.07858   0.70937   0.00000  Uiso   1.00
H1071  H     0.31548   0.03171   0.68621   0.00000  Uiso   1.00
H1072  H     0.33257   0.09895   0.68881   0.00000  Uiso   1.00
H1073  H     0.36070   0.00098   0.93298   0.00000  Uiso   1.00
H1074  H     0.38408   0.06759   0.93882   0.00000  Uiso   1.00
H1075  H     0.32543   0.05084   0.91569   0.00000  Uiso   1.00
H1076  H     0.12679   0.31589   0.78766   0.00000  Uiso   1.00
H1077  H     0.07325   0.28018   0.77574   0.00000  Uiso   1.00
H1078  H     0.16339   0.23919   0.73398   0.00000  Uiso   1.00
H1079  H     0.11190   0.19736   0.72613   0.00000  Uiso   1.00
H1080  H     0.10808   0.08353   0.82138   0.00000  Uiso   1.00
H1081  H     0.07342   0.25270   0.99649   0.00000  Uiso   1.00
H1082  H     0.12102   0.22126   0.96406   0.00000  Uiso   1.00
H1083  H     0.12690   0.29002   0.66724   0.00000  Uiso   1.00
H1084  H     0.16014   0.09655   0.92311   0.00000  Uiso   1.00
H1085  H     0.16021   0.14474   0.99321   0.00000  Uiso   1.00
H1086  H     0.16249   0.02431   0.97367   0.00000  Uiso   1.00
H1087  H     0.16546   0.06844   0.71459   0.00000  Uiso   1.00
H1088  H     0.08697   0.05369   0.94607   0.00000  Uiso   1.00
H1089  H     0.09068   0.10175   0.68494   0.00000  Uiso   1.00
H1090  H     0.08680   0.03272   0.68362   0.00000  Uiso   1.00
H1091  H     0.45284   0.03259   0.80216   0.00000  Uiso   1.00
H1092  H     0.33213   0.28204   0.70616   0.00000  Uiso   1.00
H1093  H     0.31910   0.24965   0.96269   0.00000  Uiso   1.00
H1094  H     0.36373   0.20091   0.73019   0.00000  Uiso   1.00
H1095  H     0.35619   0.16951   0.98406   0.00000  Uiso   1.00
H1096  H     0.40478   0.25393   0.97187   0.00000  Uiso   1.00
H1097  H     0.43249   0.20458   0.66966   0.00000  Uiso   1.00
H1098  H     0.41900   0.26450   0.71980   0.00000  Uiso   1.00
H1099  H     0.04798   0.30088   0.87643   0.00000  Uiso   1.00
H1100  H     0.03476   0.03414   0.80820   0.00000  Uiso   1.00
H1101  H     0.46646   0.29941   0.87927   0.00000  Uiso   1.00
H1102  H     0.24619   0.32014   0.76266   0.00000  Uiso   1.00
H1103  H     0.24966   0.01274   0.90369   0.00000  Uiso   1.00
H1104  H     0.39421   0.01439   0.71458   0.00000  Uiso   1.00
N1105  N     0.23745   0.15214   0.67951   0.00000  Uiso   1.00
N1106  N     0.26256   0.18119   0.98716   0.00000  Uiso   1.00
O1107  O     0.25326   0.09538   0.87326   0.00000  Uiso   1.00
O1108  O     0.12146   0.26124   0.83987   0.00000  Uiso   1.00
O1109  O     0.22031   0.10604   0.97621   0.00000  Uiso   1.00
O1110  O     0.28199   0.22458   0.69427   0.00000  Uiso   1.00
O1111  O     0.24675   0.23796   0.79341   0.00000  Uiso   1.00
O1112  O     0.24480   0.08559   0.76945   0.00000  Uiso   1.00
O1113  O     0.25520   0.24774   0.89721   0.00000  Uiso   1.00
O1114  O     0.18936   0.17155   0.88524   0.00000  Uiso   1.00
O1115  O     0.31065   0.16179   0.78143   0.00000  Uiso   1.00
O1116  O     0.18090   0.16176   0.78143   0.00000  Uiso   1.00
O1117  O     0.31910   0.17157   0.88523   0.00000  Uiso   1.00
O1118  O     0.37621   0.07272   0.78438   0.00000  Uiso   1.00
C1119  C     0.74825   0.06662   0.81775   0.00000  Uiso   1.00
C1120  C     0.59140   0.12005   0.82832   0.00000  Uiso   1.00
C1121  C     0.88345   0.16556   0.83214   0.00000  Uiso   1.00
C1122  C     0.61657   0.16783   0.83514   0.00000  Uiso   1.00
C1123  C     0.90333   0.11795   0.81276   0.00000  Uiso   1.00
C1124  C     0.59589   0.21564   0.84145   0.00000  Uiso   1.00
C1125  C     0.95059   0.11775   0.82150   0.00000  Uiso   1.00
C1126  C     0.54964   0.21582   0.84906   0.00000  Uiso   1.00
C1127  C     0.97682   0.16640   0.83835   0.00000  Uiso   1.00
C1128  C     0.52383   0.16715   0.83912   0.00000  Uiso   1.00
C1129  C     0.95599   0.21436   0.85223   0.00000  Uiso   1.00
C1130  C     0.75048   0.26660   0.84888   0.00000  Uiso   1.00
C1131  C     0.54481   0.11917   0.82790   0.00000  Uiso   1.00
C1132  C     0.97209   0.07035   0.81234   0.00000  Uiso   1.00
C1133  C     0.52859   0.26318   0.86543   0.00000  Uiso   1.00
C1134  C     0.88525   0.05581   0.72238   0.00000  Uiso   1.00
C1135  C     0.84364   0.05842   0.67911   0.00000  Uiso   1.00
C1136  C     0.85421   0.04336   0.94596   0.00000  Uiso   1.00
C1137  C     0.60998   0.27619   0.78401   0.00000  Uiso   1.00
C1138  C     0.62603   0.23800   0.72891   0.00000  Uiso   1.00
C1139  C     0.61065   0.25161   0.66886   0.00000  Uiso   1.00
C1140  C     0.67281   0.10604   0.97223   0.00000  Uiso   1.00
C1141  C     0.51889   0.07113   0.81614   0.00000  Uiso   1.00
C1142  C     0.65248   0.06279   0.99931   0.00000  Uiso   1.00
C1143  C     0.60109   0.06275   0.99472   0.00000  Uiso   1.00
C1144  C     0.82268   0.24268   0.67560   0.00000  Uiso   1.00
C1145  C     0.86168   0.20803   0.68400   0.00000  Uiso   1.00
C1146  C     0.90717   0.23447   0.67732   0.00000  Uiso   1.00
C1147  C     0.98210   0.26241   0.86736   0.00000  Uiso   1.00
C1148  C     0.74742   0.01053   0.80910   0.00000  Uiso   1.00
C1149  C     0.74902   0.32244   0.85731   0.00000  Uiso   1.00
C1150  C     0.66468   0.16715   0.83384   0.00000  Uiso   1.00
C1151  C     0.83530   0.16606   0.83281   0.00000  Uiso   1.00
C1152  C     0.90936   0.21339   0.85094   0.00000  Uiso   1.00
Cu1153 Cu    0.75501   0.17246   0.89479   0.00000  Uiso   1.00
Cu1154 Cu    0.74500   0.16087   0.77187   0.00000  Uiso   1.00
H1155  H     0.89292   0.24989   0.86297   0.00000  Uiso   1.00
H1156  H     0.91407   0.07858   0.70937   0.00000  Uiso   1.00
H1157  H     0.81548   0.03171   0.68621   0.00000  Uiso   1.00
H1158  H     0.83257   0.09895   0.68881   0.00000  Uiso   1.00
H1159  H     0.86070   0.00098   0.93298   0.00000  Uiso   1.00
H1160  H     0.88408   0.06759   0.93882   0.00000  Uiso   1.00
H1161  H     0.82543   0.05084   0.91569   0.00000  Uiso   1.00
H1162  H     0.62679   0.31589   0.78766   0.00000  Uiso   1.00
H1163  H     0.57325   0.28018   0.77574   0.00000  Uiso   1.00
H1164  H     0.66339   0.23919   0.73398   0.00000  Uiso   1.00
H1165  H     0.61190   0.19736   0.72613   0.00000  Uiso   1.00
H1166  H     0.60808   0.08353   0.82138   0.00000  Uiso   1.00
H1167  H     0.57342   0.25270   0.99649   0.00000  Uiso   1.00
H1168  H     0.62102   0.22126   0.96406   0.00000  Uiso   1.00
H1169  H     0.62690   0.29002   0.66724   0.00000  Uiso   1.00
H1170  H     0.66014   0.09655   0.92311   0.00000  Uiso   1.00
H1171  H     0.66021   0.14474   0.99321   0.00000  Uiso   1.00
H1172  H     0.66249   0.02431   0.97367   0.00000  Uiso   1.00
H1173  H     0.66546   0.06844   0.71459   0.00000  Uiso   1.00
H1174  H     0.58697   0.05369   0.94607   0.00000  Uiso   1.00
H1175  H     0.59068   0.10175   0.68494   0.00000  Uiso   1.00
H1176  H     0.58680   0.03272   0.68362   0.00000  Uiso   1.00
H1177  H     0.95284   0.03259   0.80216   0.00000  Uiso   1.00
H1178  H     0.83213   0.28204   0.70616   0.00000  Uiso   1.00
H1179  H     0.81910   0.24965   0.96269   0.00000  Uiso   1.00
H1180  H     0.86373   0.20091   0.73019   0.00000  Uiso   1.00
H1181  H     0.85619   0.16951   0.98406   0.00000  Uiso   1.00
H1182  H     0.90478   0.25393   0.97187   0.00000  Uiso   1.00
H1183  H     0.93249   0.20458   0.66966   0.00000  Uiso   1.00
H1184  H     0.91900   0.26450   0.71980   0.00000  Uiso   1.00
H1185  H     0.54798   0.30088   0.87643   0.00000  Uiso   1.00
H1186  H     0.53476   0.03414   0.80820   0.00000  Uiso   1.00
H1187  H     0.96646   0.29941   0.87927   0.00000  Uiso   1.00
H1188  H     0.74619   0.32014   0.76266   0.00000  Uiso   1.00
H1189  H     0.74966   0.01274   0.90369   0.00000  Uiso   1.00
H1190  H     0.89421   0.01439   0.71458   0.00000  Uiso   1.00
N1191  N     0.73745   0.15214   0.67951   0.00000  Uiso   1.00
N1192  N     0.76256   0.18119   0.98716   0.00000  Uiso   1.00
O1193  O     0.75326   0.09538   0.87326   0.00000  Uiso   1.00
O1194  O     0.62146   0.26124   0.83987   0.00000  Uiso   1.00
O1195  O     0.72031   0.10604   0.97621   0.00000  Uiso   1.00
O1196  O     0.78199   0.22458   0.69427   0.00000  Uiso   1.00
O1197  O     0.74675   0.23796   0.79341   0.00000  Uiso   1.00
O1198  O     0.74480   0.08559   0.76945   0.00000  Uiso   1.00
O1199  O     0.75520   0.24774   0.89721   0.00000  Uiso   1.00
O1200  O     0.68936   0.17155   0.88524   0.00000  Uiso   1.00
O1201  O     0.81065   0.16179   0.78143   0.00000  Uiso   1.00
O1202  O     0.68090   0.16176   0.78143   0.00000  Uiso   1.00
O1203  O     0.81910   0.17157   0.88523   0.00000  Uiso   1.00
O1204  O     0.87621   0.07272   0.78438   0.00000  Uiso   1.00
C1205  C     0.24825   0.39995   0.81775   0.00000  Uiso   1.00
C1206  C     0.09140   0.45338   0.82832   0.00000  Uiso   1.00
C1207  C     0.38345   0.49889   0.83214   0.00000  Uiso   1.00
C1208  C     0.11657   0.50116   0.83514   0.00000  Uiso   1.00
C1209  C     0.40333   0.45128   0.81276   0.00000  Uiso   1.00
C1210  C     0.09589   0.54897   0.84145   0.00000  Uiso   1.00
C1211  C     0.45059   0.45108   0.82150   0.00000  Uiso   1.00
C1212  C     0.04964   0.54916   0.84906   0.00000  Uiso   1.00
C1213  C     0.47682   0.49973   0.83835   0.00000  Uiso   1.00
C1214  C     0.02383   0.50049   0.83912   0.00000  Uiso   1.00
C1215  C     0.45599   0.54769   0.85223   0.00000  Uiso   1.00
C1216  C     0.25048   0.59993   0.84888   0.00000  Uiso   1.00
C1217  C     0.04481   0.45250   0.82790   0.00000  Uiso   1.00
C1218  C     0.47209   0.40368   0.81234   0.00000  Uiso   1.00
C1219  C     0.02859   0.59651   0.86543   0.00000  Uiso   1.00
C1220  C     0.38525   0.38915   0.72238   0.00000  Uiso   1.00
C1221  C     0.34364   0.39175   0.67911   0.00000  Uiso   1.00
C1222  C     0.35421   0.37669   0.94596   0.00000  Uiso   1.00
C1223  C     0.10998   0.60952   0.78401   0.00000  Uiso   1.00
C1224  C     0.12603   0.57134   0.72891   0.00000  Uiso   1.00
C1225  C     0.11065   0.58494   0.66886   0.00000  Uiso   1.00
C1226  C     0.17281   0.43938   0.97223   0.00000  Uiso   1.00
C1227  C     0.01889   0.40446   0.81614   0.00000  Uiso   1.00
C1228  C     0.15248   0.39613   0.99931   0.00000  Uiso   1.00
C1229  C     0.10109   0.39609   0.99472   0.00000  Uiso   1.00
C1230  C     0.32268   0.57601   0.67560   0.00000  Uiso   1.00
C1231  C     0.36168   0.54136   0.68400   0.00000  Uiso   1.00
C1232  C     0.40717   0.56781   0.67732   0.00000  Uiso   1.00
C1233  C     0.48210   0.59574   0.86736   0.00000  Uiso   1.00
C1234  C     0.24742   0.34386   0.80910   0.00000  Uiso   1.00
C1235  C     0.24902   0.65577   0.85731   0.00000  Uiso   1.00
C1236  C     0.16468   0.50048   0.83384   0.00000  Uiso   1.00
C1237  C     0.33530   0.49939   0.83281   0.00000  Uiso   1.00
C1238  C     0.40936   0.54672   0.85094   0.00000  Uiso   1.00
Cu1239 Cu    0.25501   0.50579   0.89479   0.00000  Uiso   1.00
Cu1240 Cu    0.24500   0.49421   0.77187   0.00000  Uiso   1.00
H1241  H     0.39292   0.58322   0.86297   0.00000  Uiso   1.00
H1242  H     0.41407   0.41191   0.70937   0.00000  Uiso   1.00
H1243  H     0.31548   0.36504   0.68621   0.00000  Uiso   1.00
H1244  H     0.33257   0.43228   0.68881   0.00000  Uiso   1.00
H1245  H     0.36070   0.33432   0.93298   0.00000  Uiso   1.00
H1246  H     0.38408   0.40092   0.93882   0.00000  Uiso   1.00
H1247  H     0.32543   0.38418   0.91569   0.00000  Uiso   1.00
H1248  H     0.12679   0.64922   0.78766   0.00000  Uiso   1.00
H1249  H     0.07325   0.61351   0.77574   0.00000  Uiso   1.00
H1250  H     0.16339   0.57252   0.73398   0.00000  Uiso   1.00
H1251  H     0.11190   0.53069   0.72613   0.00000  Uiso   1.00
H1252  H     0.10808   0.41686   0.82138   0.00000  Uiso   1.00
H1253  H     0.07342   0.58603   0.99649   0.00000  Uiso   1.00
H1254  H     0.12102   0.55459   0.96406   0.00000  Uiso   1.00
H1255  H     0.12690   0.62335   0.66724   0.00000  Uiso   1.00
H1256  H     0.16014   0.42988   0.92311   0.00000  Uiso   1.00
H1257  H     0.16021   0.47808   0.99321   0.00000  Uiso   1.00
H1258  H     0.16249   0.35764   0.97367   0.00000  Uiso   1.00
H1259  H     0.16546   0.40178   0.71459   0.00000  Uiso   1.00
H1260  H     0.08697   0.38702   0.94607   0.00000  Uiso   1.00
H1261  H     0.09068   0.43508   0.68494   0.00000  Uiso   1.00
H1262  H     0.08680   0.36605   0.68362   0.00000  Uiso   1.00
H1263  H     0.45284   0.36592   0.80216   0.00000  Uiso   1.00
H1264  H     0.33213   0.61537   0.70616   0.00000  Uiso   1.00
H1265  H     0.31910   0.58298   0.96269   0.00000  Uiso   1.00
H1266  H     0.36373   0.53424   0.73019   0.00000  Uiso   1.00
H1267  H     0.35619   0.50284   0.98406   0.00000  Uiso   1.00
H1268  H     0.40478   0.58727   0.97187   0.00000  Uiso   1.00
H1269  H     0.43249   0.53791   0.66966   0.00000  Uiso   1.00
H1270  H     0.41900   0.59783   0.71980   0.00000  Uiso   1.00
H1271  H     0.04798   0.63421   0.87643   0.00000  Uiso   1.00
H1272  H     0.03476   0.36747   0.80820   0.00000  Uiso   1.00
H1273  H     0.46646   0.63274   0.87927   0.00000  Uiso   1.00
H1274  H     0.24619   0.65347   0.76266   0.00000  Uiso   1.00
H1275  H     0.24966   0.34607   0.90369   0.00000  Uiso   1.00
H1276  H     0.39421   0.34772   0.71458   0.00000  Uiso   1.00
N1277  N     0.23745   0.48547   0.67951   0.00000  Uiso   1.00
N1278  N     0.26256   0.51453   0.98716   0.00000  Uiso   1.00
O1279  O     0.25326   0.42871   0.87326   0.00000  Uiso   1.00
O1280  O     0.12146   0.59457   0.83987   0.00000  Uiso   1.00
O1281  O     0.22031   0.43937   0.97621   0.00000  Uiso   1.00
O1282  O     0.28199   0.55791   0.69427   0.00000  Uiso   1.00
O1283  O     0.24675   0.57129   0.79341   0.00000  Uiso   1.00
O1284  O     0.24480   0.41892   0.76945   0.00000  Uiso   1.00
O1285  O     0.25520   0.58108   0.89721   0.00000  Uiso   1.00
O1286  O     0.18936   0.50488   0.88524   0.00000  Uiso   1.00
O1287  O     0.31065   0.49512   0.78143   0.00000  Uiso   1.00
O1288  O     0.18090   0.49510   0.78143   0.00000  Uiso   1.00
O1289  O     0.31910   0.50490   0.88523   0.00000  Uiso   1.00
O1290  O     0.37621   0.40605   0.78438   0.00000  Uiso   1.00
C1291  C     0.74825   0.39995   0.81775   0.00000  Uiso   1.00
C1292  C     0.59140   0.45338   0.82832   0.00000  Uiso   1.00
C1293  C     0.88345   0.49889   0.83214   0.00000  Uiso   1.00
C1294  C     0.61657   0.50116   0.83514   0.00000  Uiso   1.00
C1295  C     0.90333   0.45128   0.81276   0.00000  Uiso   1.00
C1296  C     0.59589   0.54897   0.84145   0.00000  Uiso   1.00
C1297  C     0.95059   0.45108   0.82150   0.00000  Uiso   1.00
C1298  C     0.54964   0.54916   0.84906   0.00000  Uiso   1.00
C1299  C     0.97682   0.49973   0.83835   0.00000  Uiso   1.00
C1300  C     0.52383   0.50049   0.83912   0.00000  Uiso   1.00
C1301  C     0.95599   0.54769   0.85223   0.00000  Uiso   1.00
C1302  C     0.75048   0.59993   0.84888   0.00000  Uiso   1.00
C1303  C     0.54481   0.45250   0.82790   0.00000  Uiso   1.00
C1304  C     0.97209   0.40368   0.81234   0.00000  Uiso   1.00
C1305  C     0.52859   0.59651   0.86543   0.00000  Uiso   1.00
C1306  C     0.88525   0.38915   0.72238   0.00000  Uiso   1.00
C1307  C     0.84364   0.39175   0.67911   0.00000  Uiso   1.00
C1308  C     0.85421   0.37669   0.94596   0.00000  Uiso   1.00
C1309  C     0.60998   0.60952   0.78401   0.00000  Uiso   1.00
C1310  C     0.62603   0.57134   0.72891   0.00000  Uiso   1.00
C1311  C     0.61065   0.58494   0.66886   0.00000  Uiso   1.00
C1312  C     0.67281   0.43938   0.97223   0.00000  Uiso   1.00
C1313  C     0.51889   0.40446   0.81614   0.00000  Uiso   1.00
C1314  C     0.65248   0.39613   0.99931   0.00000  Uiso   1.00
C1315  C     0.60109   0.39609   0.99472   0.00000  Uiso   1.00
C1316  C     0.82268   0.57601   0.67560   0.00000  Uiso   1.00
C1317  C     0.86168   0.54136   0.68400   0.00000  Uiso   1.00
C1318  C     0.90717   0.56781   0.67732   0.00000  Uiso   1.00
C1319  C     0.98210   0.59574   0.86736   0.00000  Uiso   1.00
C1320  C     0.74742   0.34386   0.80910   0.00000  Uiso   1.00
C1321  C     0.74902   0.65577   0.85731   0.00000  Uiso   1.00
C1322  C     0.66468   0.50048   0.83384   0.00000  Uiso   1.00
C1323  C     0.83530   0.49939   0.83281   0.00000  Uiso   1.00
C1324  C     0.90936   0.54672   0.85094   0.00000  Uiso   1.00
Cu1325 Cu    0.75501   0.50579   0.89479   0.00000  Uiso   1.00
Cu1326 Cu    0.74500   0.49421   0.77187   0.00000  Uiso   1.00
H1327  H     0.89292   0.58322   0.86297   0.00000  Uiso   1.00
H1328  H     0.91407   0.41191   0.70937   0.00000  Uiso   1.00
H1329  H     0.81548   0.36504   0.68621   0.00000  Uiso   1.00
H1330  H     0.83257   0.43228   0.68881   0.00000  Uiso   1.00
H1331  H     0.86070   0.33432   0.93298   0.00000  Uiso   1.00
H1332  H     0.88408   0.40092   0.93882   0.00000  Uiso   1.00
H1333  H     0.82543   0.38418   0.91569   0.00000  Uiso   1.00
H1334  H     0.62679   0.64922   0.78766   0.00000  Uiso   1.00
H1335  H     0.57325   0.61351   0.77574   0.00000  Uiso   1.00
H1336  H     0.66339   0.57252   0.73398   0.00000  Uiso   1.00
H1337  H     0.61190   0.53069   0.72613   0.00000  Uiso   1.00
H1338  H     0.60808   0.41686   0.82138   0.00000  Uiso   1.00
H1339  H     0.57342   0.58603   0.99649   0.00000  Uiso   1.00
H1340  H     0.62102   0.55459   0.96406   0.00000  Uiso   1.00
H1341  H     0.62690   0.62335   0.66724   0.00000  Uiso   1.00
H1342  H     0.66014   0.42988   0.92311   0.00000  Uiso   1.00
H1343  H     0.66021   0.47808   0.99321   0.00000  Uiso   1.00
H1344  H     0.66249   0.35764   0.97367   0.00000  Uiso   1.00
H1345  H     0.66546   0.40178   0.71459   0.00000  Uiso   1.00
H1346  H     0.58697   0.38702   0.94607   0.00000  Uiso   1.00
H1347  H     0.59068   0.43508   0.68494   0.00000  Uiso   1.00
H1348  H     0.58680   0.36605   0.68362   0.00000  Uiso   1.00
H1349  H     0.95284   0.36592   0.80216   0.00000  Uiso   1.00
H1350  H     0.83213   0.61537   0.70616   0.00000  Uiso   1.00
H1351  H     0.81910   0.58298   0.96269   0.00000  Uiso   1.00
H1352  H     0.86373   0.53424   0.73019   0.00000  Uiso   1.00
H1353  H     0.85619   0.50284   0.98406   0.00000  Uiso   1.00
H1354  H     0.90478   0.58727   0.97187   0.00000  Uiso   1.00
H1355  H     0.93249   0.53791   0.66966   0.00000  Uiso   1.00
H1356  H     0.91900   0.59783   0.71980   0.00000  Uiso   1.00
H1357  H     0.54798   0.63421   0.87643   0.00000  Uiso   1.00
H1358  H     0.53476   0.36747   0.80820   0.00000  Uiso   1.00
H1359  H     0.96646   0.63274   0.87927   0.00000  Uiso   1.00
H1360  H     0.74619   0.65347   0.76266   0.00000  Uiso   1.00
H1361  H     0.74966   0.34607   0.90369   0.00000  Uiso   1.00
H1362  H     0.89421   0.34772   0.71458   0.00000  Uiso   1.00
N1363  N     0.73745   0.48547   0.67951   0.00000  Uiso   1.00
N1364  N     0.76256   0.51453   0.98716   0.00000  Uiso   1.00
O1365  O     0.75326   0.42871   0.87326   0.00000  Uiso   1.00
O1366  O     0.62146   0.59457   0.83987   0.00000  Uiso   1.00
O1367  O     0.72031   0.43937   0.97621   0.00000  Uiso   1.00
O1368  O     0.78199   0.55791   0.69427   0.00000  Uiso   1.00
O1369  O     0.74675   0.57129   0.79341   0.00000  Uiso   1.00
O1370  O     0.74480   0.41892   0.76945   0.00000  Uiso   1.00
O1371  O     0.75520   0.58108   0.89721   0.00000  Uiso   1.00
O1372  O     0.68936   0.50488   0.88524   0.00000  Uiso   1.00
O1373  O     0.81065   0.49512   0.78143   0.00000  Uiso   1.00
O1374  O     0.68090   0.49510   0.78143   0.00000  Uiso   1.00
O1375  O     0.81910   0.50490   0.88523   0.00000  Uiso   1.00
O1376  O     0.87621   0.40605   0.78438   0.00000  Uiso   1.00
C1377  C     0.24825   0.73329   0.81775   0.00000  Uiso   1.00
C1378  C     0.09140   0.78672   0.82832   0.00000  Uiso   1.00
C1379  C     0.38345   0.83222   0.83214   0.00000  Uiso   1.00
C1380  C     0.11657   0.83450   0.83514   0.00000  Uiso   1.00
C1381  C     0.40333   0.78461   0.81276   0.00000  Uiso   1.00
C1382  C     0.09589   0.88231   0.84145   0.00000  Uiso   1.00
C1383  C     0.45059   0.78442   0.82150   0.00000  Uiso   1.00
C1384  C     0.04964   0.88249   0.84906   0.00000  Uiso   1.00
C1385  C     0.47682   0.83306   0.83835   0.00000  Uiso   1.00
C1386  C     0.02383   0.83382   0.83912   0.00000  Uiso   1.00
C1387  C     0.45599   0.88103   0.85223   0.00000  Uiso   1.00
C1388  C     0.25048   0.93327   0.84888   0.00000  Uiso   1.00
C1389  C     0.04481   0.78583   0.82790   0.00000  Uiso   1.00
C1390  C     0.47209   0.73702   0.81234   0.00000  Uiso   1.00
C1391  C     0.02859   0.92985   0.86543   0.00000  Uiso   1.00
C1392  C     0.38525   0.72248   0.72238   0.00000  Uiso   1.00
C1393  C     0.34364   0.72509   0.67911   0.00000  Uiso   1.00
C1394  C     0.35421   0.71003   0.94596   0.00000  Uiso   1.00
C1395  C     0.10998   0.94285   0.78401   0.00000  Uiso   1.00
C1396  C     0.12603   0.90467   0.72891   0.00000  Uiso   1.00
C1397  C     0.11065   0.91827   0.66886   0.00000  Uiso   1.00
C1398  C     0.17281   0.77271   0.97223   0.00000  Uiso   1.00
C1399  C     0.01889   0.73779   0.81614   0.00000  Uiso   1.00
C1400  C     0.15248   0.72946   0.99931   0.00000  Uiso   1.00
C1401  C     0.10109   0.72942   0.99472   0.00000  Uiso   1.00
C1402  C     0.32268   0.90934   0.67560   0.00000  Uiso   1.00
C1403  C     0.36168   0.87469   0.68400   0.00000  Uiso   1.00
C1404  C     0.40717   0.90114   0.67732   0.00000  Uiso   1.00
C1405  C     0.48210   0.92908   0.86736   0.00000  Uiso   1.00
C1406  C     0.24742   0.67720   0.80910   0.00000  Uiso   1.00
C1407  C     0.24902   0.98910   0.85731   0.00000  Uiso   1.00
C1408  C     0.16468   0.83381   0.83384   0.00000  Uiso   1.00
C1409  C     0.33530   0.83272   0.83281   0.00000  Uiso   1.00
C1410  C     0.40936   0.88005   0.85094   0.00000  Uiso   1.00
Cu1411 Cu    0.25501   0.83913   0.89479   0.00000  Uiso   1.00
Cu1412 Cu    0.24500   0.82754   0.77187   0.00000  Uiso   1.00
H1413  H     0.39292   0.91655   0.86297   0.00000  Uiso   1.00
H1414  H     0.41407   0.74525   0.70937   0.00000  Uiso   1.00
H1415  H     0.31548   0.69837   0.68621   0.00000  Uiso   1.00
H1416  H     0.33257   0.76561   0.68881   0.00000  Uiso   1.00
H1417  H     0.36070   0.66765   0.93298   0.00000  Uiso   1.00
H1418  H     0.38408   0.73425   0.93882   0.00000  Uiso   1.00
H1419  H     0.32543   0.71751   0.91569   0.00000  Uiso   1.00
H1420  H     0.12679   0.98256   0.78766   0.00000  Uiso   1.00
H1421  H     0.07325   0.94685   0.77574   0.00000  Uiso   1.00
H1422  H     0.16339   0.90585   0.73398   0.00000  Uiso   1.00
H1423  H     0.11190   0.86403   0.72613   0.00000  Uiso   1.00
H1424  H     0.10808   0.75020   0.82138   0.00000  Uiso   1.00
H1425  H     0.07342   0.91936   0.99649   0.00000  Uiso   1.00
H1426  H     0.12102   0.88793   0.96406   0.00000  Uiso   1.00
H1427  H     0.12690   0.95669   0.66724   0.00000  Uiso   1.00
H1428  H     0.16014   0.76322   0.92311   0.00000  Uiso   1.00
H1429  H     0.16021   0.81141   0.99321   0.00000  Uiso   1.00
H1430  H     0.16249   0.69098   0.97367   0.00000  Uiso   1.00
H1431  H     0.16546   0.73511   0.71459   0.00000  Uiso   1.00
H1432  H     0.08697   0.72035   0.94607   0.00000  Uiso   1.00
H1433  H     0.09068   0.76842   0.68494   0.00000  Uiso   1.00
H1434  H     0.08680   0.69939   0.68362   0.00000  Uiso   1.00
H1435  H     0.45284   0.69926   0.80216   0.00000  Uiso   1.00
H1436  H     0.33213   0.94871   0.70616   0.00000  Uiso   1.00
H1437  H     0.31910   0.91631   0.96269   0.00000  Uiso   1.00
H1438  H     0.36373   0.86757   0.73019   0.00000  Uiso   1.00
H1439  H     0.35619   0.83618   0.98406   0.00000  Uiso   1.00
H1440  H     0.40478   0.92060   0.97187   0.00000  Uiso   1.00
H1441  H     0.43249   0.87124   0.66966   0.00000  Uiso   1.00
H1442  H     0.41900   0.93116   0.71980   0.00000  Uiso   1.00
H1443  H     0.04798   0.96754   0.87643   0.00000  Uiso   1.00
H1444  H     0.03476   0.70081   0.80820   0.00000  Uiso   1.00
H1445  H     0.46646   0.96607   0.87927   0.00000  Uiso   1.00
H1446  H     0.24619   0.98680   0.76266   0.00000  Uiso   1.00
H1447  H     0.24966   0.67941   0.90369   0.00000  Uiso   1.00
H1448  H     0.39421   0.68106   0.71458   0.00000  Uiso   1.00
N1449  N     0.23745   0.81881   0.67951   0.00000  Uiso   1.00
N1450  N     0.26256   0.84786   0.98716   0.00000  Uiso   1.00
O1451  O     0.25326   0.76204   0.87326   0.00000  Uiso   1.00
O1452  O     0.12146   0.92790   0.83987   0.00000  Uiso   1.00
O1453  O     0.22031   0.77270   0.97621   0.00000  Uiso   1.00
O1454  O     0.28199   0.89125   0.69427   0.00000  Uiso   1.00
O1455  O     0.24675   0.90462   0.79341   0.00000  Uiso   1.00
O1456  O     0.24480   0.75226   0.76945   0.00000  Uiso   1.00
O1457  O     0.25520   0.91441   0.89721   0.00000  Uiso   1.00
O1458  O     0.18936   0.83821   0.88524   0.00000  Uiso   1.00
O1459  O     0.31065   0.82845   0.78143   0.00000  Uiso   1.00
O1460  O     0.18090   0.82843   0.78143   0.00000  Uiso   1.00
O1461  O     0.31910   0.83824   0.88523   0.00000  Uiso   1.00
O1462  O     0.37621   0.73939   0.78438   0.00000  Uiso   1.00
C1463  C     0.74825   0.73329   0.81775   0.00000  Uiso   1.00
C1464  C     0.59140   0.78672   0.82832   0.00000  Uiso   1.00
C1465  C     0.88345   0.83222   0.83214   0.00000  Uiso   1.00
C1466  C     0.61657   0.83450   0.83514   0.00000  Uiso   1.00
C1467  C     0.90333   0.78461   0.81276   0.00000  Uiso   1.00
C1468  C     0.59589   0.88231   0.84145   0.00000  Uiso   1.00
C1469  C     0.95059   0.78442   0.82150   0.00000  Uiso   1.00
C1470  C     0.54964   0.88249   0.84906   0.00000  Uiso   1.00
C1471  C     0.97682   0.83306   0.83835   0.00000  Uiso   1.00
C1472  C     0.52383   0.83382   0.83912   0.00000  Uiso   1.00
C1473  C     0.95599   0.88103   0.85223   0.00000  Uiso   1.00
C1474  C     0.75048   0.93327   0.84888   0.00000  Uiso   1.00
C1475  C     0.54481   0.78583   0.82790   0.00000  Uiso   1.00
C1476  C     0.97209   0.73702   0.81234   0.00000  Uiso   1.00
C1477  C     0.52859   0.92985   0.86543   0.00000  Uiso   1.00
C1478  C     0.88525   0.72248   0.72238   0.00000  Uiso   1.00
C1479  C     0.84364   0.72509   0.67911   0.00000  Uiso   1.00
C1480  C     0.85421   0.71003   0.94596   0.00000  Uiso   1.00
C1481  C     0.60998   0.94285   0.78401   0.00000  Uiso   1.00
C1482  C     0.62603   0.90467   0.72891   0.00000  Uiso   1.00
C1483  C     0.61065   0.91827   0.66886   0.00000  Uiso   1.00
C1484  C     0.67281   0.77271   0.97223   0.00000  Uiso   1.00
C1485  C     0.51889   0.73779   0.81614   0.00000  Uiso   1.00
C1486  C     0.65248   0.72946   0.99931   0.00000  Uiso   1.00
C1487  C     0.60109   0.72942   0.99472   0.00000  Uiso   1.00
C1488  C     0.82268   0.90934   0.67560   0.00000  Uiso   1.00
C1489  C     0.86168   0.87469   0.68400   0.00000  Uiso   1.00
C1490  C     0.90717   0.90114   0.67732   0.00000  Uiso   1.00
C1491  C     0.98210   0.92908   0.86736   0.00000  Uiso   1.00
C1492  C     0.74742   0.67720   0.80910   0.00000  Uiso   1.00
C1493  C     0.74902   0.98910   0.85731   0.00000  Uiso   1.00
C1494  C     0.66468   0.83381   0.83384   0.00000  Uiso   1.00
C1495  C     0.83530   0.83272   0.83281   0.00000  Uiso   1.00
C1496  C     0.90936   0.88005   0.85094   0.00000  Uiso   1.00
Cu1497 Cu    0.75501   0.83913   0.89479   0.00000  Uiso   1.00
Cu1498 Cu    0.74500   0.82754   0.77187   0.00000  Uiso   1.00
H1499  H     0.89292   0.91655   0.86297   0.00000  Uiso   1.00
H1500  H     0.91407   0.74525   0.70937   0.00000  Uiso   1.00
H1501  H     0.81548   0.69837   0.68621   0.00000  Uiso   1.00
H1502  H     0.83257   0.76561   0.68881   0.00000  Uiso   1.00
H1503  H     0.86070   0.66765   0.93298   0.00000  Uiso   1.00
H1504  H     0.88408   0.73425   0.93882   0.00000  Uiso   1.00
H1505  H     0.82543   0.71751   0.91569   0.00000  Uiso   1.00
H1506  H     0.62679   0.98256   0.78766   0.00000  Uiso   1.00
H1507  H     0.57325   0.94685   0.77574   0.00000  Uiso   1.00
H1508  H     0.66339   0.90585   0.73398   0.00000  Uiso   1.00
H1509  H     0.61190   0.86403   0.72613   0.00000  Uiso   1.00
H1510  H     0.60808   0.75020   0.82138   0.00000  Uiso   1.00
H1511  H     0.57342   0.91936   0.99649   0.00000  Uiso   1.00
H1512  H     0.62102   0.88793   0.96406   0.00000  Uiso   1.00
H1513  H     0.62690   0.95669   0.66724   0.00000  Uiso   1.00
H1514  H     0.66014   0.76322   0.92311   0.00000  Uiso   1.00
H1515  H     0.66021   0.81141   0.99321   0.00000  Uiso   1.00
H1516  H     0.66249   0.69098   0.97367   0.00000  Uiso   1.00
H1517  H     0.66546   0.73511   0.71459   0.00000  Uiso   1.00
H1518  H     0.58697   0.72035   0.94607   0.00000  Uiso   1.00
H1519  H     0.59068   0.76842   0.68494   0.00000  Uiso   1.00
H1520  H     0.58680   0.69939   0.68362   0.00000  Uiso   1.00
H1521  H     0.95284   0.69926   0.80216   0.00000  Uiso   1.00
H1522  H     0.83213   0.94871   0.70616   0.00000  Uiso   1.00
H1523  H     0.81910   0.91631   0.96269   0.00000  Uiso   1.00
H1524  H     0.86373   0.86757   0.73019   0.00000  Uiso   1.00
H1525  H     0.85619   0.83618   0.98406   0.00000  Uiso   1.00
H1526  H     0.90478   0.92060   0.97187   0.00000  Uiso   1.00
H1527  H     0.93249   0.87124   0.66966   0.00000  Uiso   1.00
H1528  H     0.91900   0.93116   0.71980   0.00000  Uiso   1.00
H1529  H     0.54798   0.96754   0.87643   0.00000  Uiso   1.00
H1530  H     0.53476   0.70081   0.80820   0.00000  Uiso   1.00
H1531  H     0.96646   0.96607   0.87927   0.00000  Uiso   1.00
H1532  H     0.74619   0.98680   0.76266   0.00000  Uiso   1.00
H1533  H     0.74966   0.67941   0.90369   0.00000  Uiso   1.00
H1534  H     0.89421   0.68106   0.71458   0.00000  Uiso   1.00
N1535  N     0.73745   0.81881   0.67951   0.00000  Uiso   1.00
N1536  N     0.76256   0.84786   0.98716   0.00000  Uiso   1.00
O1537  O     0.75326   0.76204   0.87326   0.00000  Uiso   1.00
O1538  O     0.62146   0.92790   0.83987   0.00000  Uiso   1.00
O1539  O     0.72031   0.77270   0.97621   0.00000  Uiso   1.00
O1540  O     0.78199   0.89125   0.69427   0.00000  Uiso   1.00
O1541  O     0.74675   0.90462   0.79341   0.00000  Uiso   1.00
O1542  O     0.74480   0.75226   0.76945   0.00000  Uiso   1.00
O1543  O     0.75520   0.91441   0.89721   0.00000  Uiso   1.00
O1544  O     0.68936   0.83821   0.88524   0.00000  Uiso   1.00
O1545  O     0.81065   0.82845   0.78143   0.00000  Uiso   1.00
O1546  O     0.68090   0.82843   0.78143   0.00000  Uiso   1.00
O1547  O     0.81910   0.83824   0.88523   0.00000  Uiso   1.00
O1548  O     0.87621   0.73939   0.78438   0.00000  Uiso   1.00
loop_
_geom_bond_atom_site_label_1
_geom_bond_atom_site_label_2
_geom_bond_distance
_geom_bond_site_symmetry_2
_ccdc_geom_bond_type
C1     O75     1.299   .     A
C1     C30     1.432   .     S
C1     O80     1.295   .     A
C2     C13     1.390   .     A
C2     H48     1.085   .     S
C2     C4      1.394   .     A
C3     C33     1.440   .     S
C3     C34     1.394   .     A
C3     C5      1.402   .     A
C4     C6      1.406   .     A
C4     C32     1.441   .     S
C5     C7      1.409   .     A
C5     O86     1.390   .     S
C6     C8      1.407   .     A
C6     O76     1.390   .     S
C7     C14     1.406   .     A
C7     C9      1.414   .     A
C8     C15     1.405   .     A
C8     C10     1.414   .     A
C9     C11     1.411   .     A
C9     C96     1.402   .     S
C10    C13     1.412   .     A
C10    C95     1.402   1_455 S
C11    C34     1.390   .     A
C11    C29     1.400   .     A
C12    O79     1.298   .     A
C12    C31     1.431   .     S
C12    O81     1.296   .     A
C13    C23     1.399   .     A
C14    H59     1.083   .     S
C14    C109    1.392   .     S
C15    H67     1.083   .     S
C15    C115    1.392   1_455 S
C16    H72     1.107   .     S
C16    C17     1.528   .     S
C16    O86     1.423   .     S
C16    H38     1.118   .     S
C17    H39     1.110   .     S
C17    H40     1.105   .     S
C17    C1050   1.528   1_554 S
C18    H42     1.111   .     S
C18    H41     1.111   .     S
C18    H43     1.106   .     S
C18    C533    1.528   .     S
C19    O76     1.423   .     S
C19    C20     1.537   .     S
C19    H44     1.111   .     S
C19    H45     1.111   .     S
C20    H47     1.108   .     S
C20    C21     1.519   .     S
C20    H46     1.110   .     S
C21    H51     1.101   .     S
C21    H1081   1.111   1_554 S
C21    H1082   1.108   1_554 S
C22    H53     1.114   .     S
C22    C24     1.525   .     S
C22    H52     1.109   .     S
C22    O77     1.414   .     S
C23    H68     1.083   .     S
C23    C100    1.392   1_455 S
C24    H54     1.110   .     S
C24    C25     1.530   .     S
C24    H571    1.107   .     S
C25    H56     1.111   .     S
C25    H573    1.110   .     S
C25    H574    1.109   .     S
C26    C27     1.537   .     S
C26    O78     1.413   .     S
C26    H60     1.108   .     S
C26    H1093   1.098   1_554 S
C27    H62     1.098   .     S
C27    C28     1.527   .     S
C27    H1095   1.106   1_554 S
C28    H66     1.110   .     S
C28    H65     1.111   .     S
C28    H1096   1.107   1_554 S
C29    H69     1.084   .     S
C29    C101    1.392   .     S
C30    C375    1.331   1_545 S
C30    H414    1.087   1_545 S
C31    C202    1.331   .     S
C31    H243    1.087   .     S
C32    O84     1.298   .     A
C32    O82     1.300   .     A
C33    O85     1.298   .     A
C33    O83     1.299   .     A
C34    H37     1.085   .     S
Cu35   N74     2.038   .     S
Cu35   Cu36    2.713   .     S
Cu35   O81     1.954   .     S
Cu35   O75     1.958   .     S
Cu35   O82     1.953   .     S
Cu35   O85     1.946   .     S
Cu36   O83     1.953   .     S
Cu36   O80     1.954   .     S
Cu36   O79     1.958   .     S
Cu36   O84     1.946   .     S
Cu36   N73     2.038   .     S
H49    C537    1.111   .     S
H50    C537    1.108   .     S
H55    C1056   1.107   1_554 S
H57    C1057   1.110   1_554 S
H58    C1057   1.109   1_554 S
H61    C542    1.098   .     S
H63    C543    1.106   .     S
H64    C544    1.107   .     S
H70    C202    1.087   .     S
H71    C375    1.087   1_545 S
N73    N1106   1.300   1_554 S
N73    O1109   1.345   1_554 S
N74    N589    1.300   .     S
N74    O594    1.352   .     S
O77    N589    1.345   .     S
O78    N1106   1.352   1_554 S
C87    O161    1.299   .     A
C87    C116    1.432   .     S
C87    O166    1.295   .     A
C88    C99     1.390   .     A
C88    H134    1.085   .     S
C88    C90     1.394   .     A
C89    C119    1.440   .     S
C89    C120    1.394   .     A
C89    C91     1.402   .     A
C90    C92     1.406   .     A
C90    C118    1.441   .     S
C91    C93     1.409   .     A
C91    O172    1.390   .     S
C92    C94     1.407   .     A
C92    O162    1.390   .     S
C93    C100    1.406   .     A
C93    C95     1.414   .     A
C94    C101    1.405   .     A
C94    C96     1.414   .     A
C95    C97     1.411   .     A
C95    C10     1.402   1_655 S
C96    C99     1.412   .     A
C97    C120    1.390   .     A
C97    C115    1.400   .     A
C98    O165    1.298   .     A
C98    C117    1.431   .     S
C98    O167    1.296   .     A
C99    C109    1.399   .     A
C100   H145    1.083   .     S
C100   C23     1.392   1_655 S
C101   H153    1.083   .     S
C102   H158    1.107   .     S
C102   C103    1.528   .     S
C102   O172    1.423   .     S
C102   H124    1.118   .     S
C103   H125    1.110   .     S
C103   H126    1.105   .     S
C103   C1136   1.528   1_554 S
C104   H128    1.111   .     S
C104   H127    1.111   .     S
C104   H129    1.106   .     S
C104   C619    1.528   .     S
C105   O162    1.423   .     S
C105   C106    1.537   .     S
C105   H130    1.111   .     S
C105   H131    1.111   .     S
C106   H133    1.108   .     S
C106   C107    1.519   .     S
C106   H132    1.110   .     S
C107   H137    1.101   .     S
C107   H1167   1.111   1_554 S
C107   H1168   1.108   1_554 S
C108   H139    1.114   .     S
C108   C110    1.525   .     S
C108   H138    1.109   .     S
C108   O163    1.414   .     S
C109   H154    1.083   .     S
C110   H140    1.110   .     S
C110   C111    1.530   .     S
C110   H657    1.107   .     S
C111   H142    1.111   .     S
C111   H659    1.110   .     S
C111   H660    1.109   .     S
C112   C113    1.537   .     S
C112   O164    1.413   .     S
C112   H146    1.108   .     S
C112   H1179   1.098   1_554 S
C113   H148    1.098   .     S
C113   C114    1.527   .     S
C113   H1181   1.106   1_554 S
C114   H152    1.110   .     S
C114   H151    1.111   .     S
C114   H1182   1.107   1_554 S
C115   H155    1.084   .     S
C115   C15     1.392   1_655 S
C116   C461    1.331   1_545 S
C116   H500    1.087   1_545 S
C117   C288    1.331   .     S
C117   H329    1.087   .     S
C118   O170    1.298   .     A
C118   O168    1.300   .     A
C119   O171    1.298   .     A
C119   O169    1.299   .     A
C120   H123    1.085   .     S
Cu121  N160    2.038   .     S
Cu121  Cu122   2.713   .     S
Cu121  O167    1.954   .     S
Cu121  O161    1.958   .     S
Cu121  O168    1.953   .     S
Cu121  O171    1.946   .     S
Cu122  O169    1.953   .     S
Cu122  O166    1.954   .     S
Cu122  O165    1.958   .     S
Cu122  O170    1.946   .     S
Cu122  N159    2.038   .     S
H135   C623    1.111   .     S
H136   C623    1.108   .     S
H141   C1142   1.107   1_554 S
H143   C1143   1.110   1_554 S
H144   C1143   1.109   1_554 S
H147   C628    1.098   .     S
H149   C629    1.106   .     S
H150   C630    1.107   .     S
H156   C288    1.087   .     S
H157   C461    1.087   1_545 S
N159   N1192   1.300   1_554 S
N159   O1195   1.345   1_554 S
N160   N675    1.300   .     S
N160   O680    1.352   .     S
O163   N675    1.345   .     S
O164   N1192   1.352   1_554 S
C173   O247    1.299   .     A
C173   C202    1.432   .     S
C173   O252    1.295   .     A
C174   C185    1.390   .     A
C174   H220    1.085   .     S
C174   C176    1.394   .     A
C175   C205    1.440   .     S
C175   C206    1.394   .     A
C175   C177    1.402   .     A
C176   C178    1.406   .     A
C176   C204    1.441   .     S
C177   C179    1.409   .     A
C177   O258    1.390   .     S
C178   C180    1.407   .     A
C178   O248    1.390   .     S
C179   C186    1.406   .     A
C179   C181    1.414   .     A
C180   C187    1.405   .     A
C180   C182    1.414   .     A
C181   C183    1.411   .     A
C181   C268    1.402   .     S
C182   C185    1.412   .     A
C182   C267    1.402   1_455 S
C183   C206    1.390   .     A
C183   C201    1.400   .     A
C184   O251    1.298   .     A
C184   C203    1.431   .     S
C184   O253    1.296   .     A
C185   C195    1.399   .     A
C186   H231    1.083   .     S
C186   C281    1.392   .     S
C187   H239    1.083   .     S
C187   C287    1.392   1_455 S
C188   H244    1.107   .     S
C188   C189    1.528   .     S
C188   O258    1.423   .     S
C188   H210    1.118   .     S
C189   H211    1.110   .     S
C189   H212    1.105   .     S
C189   C1222   1.528   1_554 S
C190   H214    1.111   .     S
C190   H213    1.111   .     S
C190   H215    1.106   .     S
C190   C705    1.528   .     S
C191   O248    1.423   .     S
C191   C192    1.537   .     S
C191   H216    1.111   .     S
C191   H217    1.111   .     S
C192   H219    1.108   .     S
C192   C193    1.519   .     S
C192   H218    1.110   .     S
C193   H223    1.101   .     S
C193   H1253   1.111   1_554 S
C193   H1254   1.108   1_554 S
C194   H225    1.114   .     S
C194   C196    1.525   .     S
C194   H224    1.109   .     S
C194   O249    1.414   .     S
C195   H240    1.083   .     S
C195   C272    1.392   1_455 S
C196   H226    1.110   .     S
C196   C197    1.530   .     S
C196   H743    1.107   .     S
C197   H228    1.111   .     S
C197   H745    1.110   .     S
C197   H746    1.109   .     S
C198   C199    1.537   .     S
C198   O250    1.413   .     S
C198   H232    1.108   .     S
C198   H1265   1.098   1_554 S
C199   H234    1.098   .     S
C199   C200    1.527   .     S
C199   H1267   1.106   1_554 S
C200   H238    1.110   .     S
C200   H237    1.111   .     S
C200   H1268   1.107   1_554 S
C201   H241    1.084   .     S
C201   C273    1.392   .     S
C203   C374    1.331   .     S
C203   H415    1.087   .     S
C204   O256    1.298   .     A
C204   O254    1.300   .     A
C205   O257    1.298   .     A
C205   O255    1.299   .     A
C206   H209    1.085   .     S
Cu207  N246    2.038   .     S
Cu207  Cu208   2.713   .     S
Cu207  O253    1.954   .     S
Cu207  O247    1.958   .     S
Cu207  O254    1.953   .     S
Cu207  O257    1.946   .     S
Cu208  O255    1.953   .     S
Cu208  O252    1.954   .     S
Cu208  O251    1.958   .     S
Cu208  O256    1.946   .     S
Cu208  N245    2.038   .     S
H221   C709    1.111   .     S
H222   C709    1.108   .     S
H227   C1228   1.107   1_554 S
H229   C1229   1.110   1_554 S
H230   C1229   1.109   1_554 S
H233   C714    1.098   .     S
H235   C715    1.106   .     S
H236   C716    1.107   .     S
H242   C374    1.087   .     S
N245   N1278   1.300   1_554 S
N245   O1281   1.345   1_554 S
N246   N761    1.300   .     S
N246   O766    1.352   .     S
O249   N761    1.345   .     S
O250   N1278   1.352   1_554 S
C259   O333    1.299   .     A
C259   C288    1.432   .     S
C259   O338    1.295   .     A
C260   C271    1.390   .     A
C260   H306    1.085   .     S
C260   C262    1.394   .     A
C261   C291    1.440   .     S
C261   C292    1.394   .     A
C261   C263    1.402   .     A
C262   C264    1.406   .     A
C262   C290    1.441   .     S
C263   C265    1.409   .     A
C263   O344    1.390   .     S
C264   C266    1.407   .     A
C264   O334    1.390   .     S
C265   C272    1.406   .     A
C265   C267    1.414   .     A
C266   C273    1.405   .     A
C266   C268    1.414   .     A
C267   C269    1.411   .     A
C267   C182    1.402   1_655 S
C268   C271    1.412   .     A
C269   C292    1.390   .     A
C269   C287    1.400   .     A
C270   O337    1.298   .     A
C270   C289    1.431   .     S
C270   O339    1.296   .     A
C271   C281    1.399   .     A
C272   H317    1.083   .     S
C272   C195    1.392   1_655 S
C273   H325    1.083   .     S
C274   H330    1.107   .     S
C274   C275    1.528   .     S
C274   O344    1.423   .     S
C274   H296    1.118   .     S
C275   H297    1.110   .     S
C275   H298    1.105   .     S
C275   C1308   1.528   1_554 S
C276   H300    1.111   .     S
C276   H299    1.111   .     S
C276   H301    1.106   .     S
C276   C791    1.528   .     S
C277   O334    1.423   .     S
C277   C278    1.537   .     S
C277   H302    1.111   .     S
C277   H303    1.111   .     S
C278   H305    1.108   .     S
C278   C279    1.519   .     S
C278   H304    1.110   .     S
C279   H309    1.101   .     S
C279   H1339   1.111   1_554 S
C279   H1340   1.108   1_554 S
C280   H311    1.114   .     S
C280   C282    1.525   .     S
C280   H310    1.109   .     S
C280   O335    1.414   .     S
C281   H326    1.083   .     S
C282   H312    1.110   .     S
C282   C283    1.530   .     S
C282   H829    1.107   .     S
C283   H314    1.111   .     S
C283   H831    1.110   .     S
C283   H832    1.109   .     S
C284   C285    1.537   .     S
C284   O336    1.413   .     S
C284   H318    1.108   .     S
C284   H1351   1.098   1_554 S
C285   H320    1.098   .     S
C285   C286    1.527   .     S
C285   H1353   1.106   1_554 S
C286   H324    1.110   .     S
C286   H323    1.111   .     S
C286   H1354   1.107   1_554 S
C287   H327    1.084   .     S
C287   C187    1.392   1_655 S
C289   C460    1.331   .     S
C289   H501    1.087   .     S
C290   O342    1.298   .     A
C290   O340    1.300   .     A
C291   O343    1.298   .     A
C291   O341    1.299   .     A
C292   H295    1.085   .     S
Cu293  N332    2.038   .     S
Cu293  Cu294   2.713   .     S
Cu293  O339    1.954   .     S
Cu293  O333    1.958   .     S
Cu293  O340    1.953   .     S
Cu293  O343    1.946   .     S
Cu294  O341    1.953   .     S
Cu294  O338    1.954   .     S
Cu294  O337    1.958   .     S
Cu294  O342    1.946   .     S
Cu294  N331    2.038   .     S
H307   C795    1.111   .     S
H308   C795    1.108   .     S
H313   C1314   1.107   1_554 S
H315   C1315   1.110   1_554 S
H316   C1315   1.109   1_554 S
H319   C800    1.098   .     S
H321   C801    1.106   .     S
H322   C802    1.107   .     S
H328   C460    1.087   .     S
N331   N1364   1.300   1_554 S
N331   O1367   1.345   1_554 S
N332   N847    1.300   .     S
N332   O852    1.352   .     S
O335   N847    1.345   .     S
O336   N1364   1.352   1_554 S
C345   O419    1.299   .     A
C345   C374    1.432   .     S
C345   O424    1.295   .     A
C346   C357    1.390   .     A
C346   H392    1.085   .     S
C346   C348    1.394   .     A
C347   C377    1.440   .     S
C347   C378    1.394   .     A
C347   C349    1.402   .     A
C348   C350    1.406   .     A
C348   C376    1.441   .     S
C349   C351    1.409   .     A
C349   O430    1.390   .     S
C350   C352    1.407   .     A
C350   O420    1.390   .     S
C351   C358    1.406   .     A
C351   C353    1.414   .     A
C352   C359    1.405   .     A
C352   C354    1.414   .     A
C353   C355    1.411   .     A
C353   C440    1.402   .     S
C354   C357    1.412   .     A
C354   C439    1.402   1_455 S
C355   C378    1.390   .     A
C355   C373    1.400   .     A
C356   O423    1.298   .     A
C356   C375    1.431   .     S
C356   O425    1.296   .     A
C357   C367    1.399   .     A
C358   H403    1.083   .     S
C358   C453    1.392   .     S
C359   H411    1.083   .     S
C359   C459    1.392   1_455 S
C360   H416    1.107   .     S
C360   C361    1.528   .     S
C360   O430    1.423   .     S
C360   H382    1.118   .     S
C361   H383    1.110   .     S
C361   H384    1.105   .     S
C361   C1394   1.528   1_554 S
C362   H386    1.111   .     S
C362   H385    1.111   .     S
C362   H387    1.106   .     S
C362   C877    1.528   .     S
C363   O420    1.423   .     S
C363   C364    1.537   .     S
C363   H388    1.111   .     S
C363   H389    1.111   .     S
C364   H391    1.108   .     S
C364   C365    1.519   .     S
C364   H390    1.110   .     S
C365   H395    1.101   .     S
C365   H1425   1.111   1_554 S
C365   H1426   1.108   1_554 S
C366   H397    1.114   .     S
C366   C368    1.525   .     S
C366   H396    1.109   .     S
C366   O421    1.414   .     S
C367   H412    1.083   .     S
C367   C444    1.392   1_455 S
C368   H398    1.110   .     S
C368   C369    1.530   .     S
C368   H915    1.107   .     S
C369   H400    1.111   .     S
C369   H917    1.110   .     S
C369   H918    1.109   .     S
C370   C371    1.537   .     S
C370   O422    1.413   .     S
C370   H404    1.108   .     S
C370   H1437   1.098   1_554 S
C371   H406    1.098   .     S
C371   C372    1.527   .     S
C371   H1439   1.106   1_554 S
C372   H410    1.110   .     S
C372   H409    1.111   .     S
C372   H1440   1.107   1_554 S
C373   H413    1.084   .     S
C373   C445    1.392   .     S
C375   C30     1.331   1_565 S
C375   H71     1.087   1_565 S
C376   O428    1.298   .     A
C376   O426    1.300   .     A
C377   O429    1.298   .     A
C377   O427    1.299   .     A
C378   H381    1.085   .     S
Cu379  N418    2.038   .     S
Cu379  Cu380   2.713   .     S
Cu379  O425    1.954   .     S
Cu379  O419    1.958   .     S
Cu379  O426    1.953   .     S
Cu379  O429    1.946   .     S
Cu380  O427    1.953   .     S
Cu380  O424    1.954   .     S
Cu380  O423    1.958   .     S
Cu380  O428    1.946   .     S
Cu380  N417    2.038   .     S
H393   C881    1.111   .     S
H394   C881    1.108   .     S
H399   C1400   1.107   1_554 S
H401   C1401   1.110   1_554 S
H402   C1401   1.109   1_554 S
H405   C886    1.098   .     S
H407   C887    1.106   .     S
H408   C888    1.107   .     S
H414   C30     1.087   1_565 S
N417   N1450   1.300   1_554 S
N417   O1453   1.345   1_554 S
N418   N933    1.300   .     S
N418   O938    1.352   .     S
O421   N933    1.345   .     S
O422   N1450   1.352   1_554 S
C431   O505    1.299   .     A
C431   C460    1.432   .     S
C431   O510    1.295   .     A
C432   C443    1.390   .     A
C432   H478    1.085   .     S
C432   C434    1.394   .     A
C433   C463    1.440   .     S
C433   C464    1.394   .     A
C433   C435    1.402   .     A
C434   C436    1.406   .     A
C434   C462    1.441   .     S
C435   C437    1.409   .     A
C435   O516    1.390   .     S
C436   C438    1.407   .     A
C436   O506    1.390   .     S
C437   C444    1.406   .     A
C437   C439    1.414   .     A
C438   C445    1.405   .     A
C438   C440    1.414   .     A
C439   C441    1.411   .     A
C439   C354    1.402   1_655 S
C440   C443    1.412   .     A
C441   C464    1.390   .     A
C441   C459    1.400   .     A
C442   O509    1.298   .     A
C442   C461    1.431   .     S
C442   O511    1.296   .     A
C443   C453    1.399   .     A
C444   H489    1.083   .     S
C444   C367    1.392   1_655 S
C445   H497    1.083   .     S
C446   H502    1.107   .     S
C446   C447    1.528   .     S
C446   O516    1.423   .     S
C446   H468    1.118   .     S
C447   H469    1.110   .     S
C447   H470    1.105   .     S
C447   C1480   1.528   1_554 S
C448   H472    1.111   .     S
C448   H471    1.111   .     S
C448   H473    1.106   .     S
C448   C963    1.528   .     S
C449   O506    1.423   .     S
C449   C450    1.537   .     S
C449   H474    1.111   .     S
C449   H475    1.111   .     S
C450   H477    1.108   .     S
C450   C451    1.519   .     S
C450   H476    1.110   .     S
C451   H481    1.101   .     S
C451   H1511   1.111   1_554 S
C451   H1512   1.108   1_554 S
C452   H483    1.114   .     S
C452   C454    1.525   .     S
C452   H482    1.109   .     S
C452   O507    1.414   .     S
C453   H498    1.083   .     S
C454   H484    1.110   .     S
C454   C455    1.530   .     S
C454   H1001   1.107   .     S
C455   H486    1.111   .     S
C455   H1003   1.110   .     S
C455   H1004   1.109   .     S
C456   C457    1.537   .     S
C456   O508    1.413   .     S
C456   H490    1.108   .     S
C456   H1523   1.098   1_554 S
C457   H492    1.098   .     S
C457   C458    1.527   .     S
C457   H1525   1.106   1_554 S
C458   H496    1.110   .     S
C458   H495    1.111   .     S
C458   H1526   1.107   1_554 S
C459   H499    1.084   .     S
C459   C359    1.392   1_655 S
C461   C116    1.331   1_565 S
C461   H157    1.087   1_565 S
C462   O514    1.298   .     A
C462   O512    1.300   .     A
C463   O515    1.298   .     A
C463   O513    1.299   .     A
C464   H467    1.085   .     S
Cu465  N504    2.038   .     S
Cu465  Cu466   2.713   .     S
Cu465  O511    1.954   .     S
Cu465  O505    1.958   .     S
Cu465  O512    1.953   .     S
Cu465  O515    1.946   .     S
Cu466  O513    1.953   .     S
Cu466  O510    1.954   .     S
Cu466  O509    1.958   .     S
Cu466  O514    1.946   .     S
Cu466  N503    2.038   .     S
H479   C967    1.111   .     S
H480   C967    1.108   .     S
H485   C1486   1.107   1_554 S
H487   C1487   1.110   1_554 S
H488   C1487   1.109   1_554 S
H491   C972    1.098   .     S
H493   C973    1.106   .     S
H494   C974    1.107   .     S
H500   C116    1.087   1_565 S
N503   N1536   1.300   1_554 S
N503   O1539   1.345   1_554 S
N504   N1019   1.300   .     S
N504   O1024   1.352   .     S
O507   N1019   1.345   .     S
O508   N1536   1.352   1_554 S
C517   O591    1.299   .     A
C517   C546    1.432   .     S
C517   O596    1.295   .     A
C518   C529    1.390   .     A
C518   H564    1.085   .     S
C518   C520    1.394   .     A
C519   C549    1.440   .     S
C519   C550    1.394   .     A
C519   C521    1.402   .     A
C520   C522    1.406   .     A
C520   C548    1.441   .     S
C521   C523    1.409   .     A
C521   O602    1.390   .     S
C522   C524    1.407   .     A
C522   O592    1.390   .     S
C523   C530    1.406   .     A
C523   C525    1.414   .     A
C524   C531    1.405   .     A
C524   C526    1.414   .     A
C525   C527    1.411   .     A
C525   C612    1.402   .     S
C526   C529    1.412   .     A
C526   C611    1.402   1_455 S
C527   C550    1.390   .     A
C527   C545    1.400   .     A
C528   O595    1.298   .     A
C528   C547    1.431   .     S
C528   O597    1.296   .     A
C529   C539    1.399   .     A
C530   H575    1.083   .     S
C530   C625    1.392   .     S
C531   H583    1.083   .     S
C531   C631    1.392   1_455 S
C532   H588    1.107   .     S
C532   C533    1.528   .     S
C532   O602    1.423   .     S
C532   H554    1.118   .     S
C533   H555    1.110   .     S
C533   H556    1.105   .     S
C534   H558    1.111   .     S
C534   H557    1.111   .     S
C534   H559    1.106   .     S
C534   C1049   1.528   .     S
C535   O592    1.423   .     S
C535   C536    1.537   .     S
C535   H560    1.111   .     S
C535   H561    1.111   .     S
C536   H563    1.108   .     S
C536   C537    1.519   .     S
C536   H562    1.110   .     S
C537   H567    1.101   .     S
C538   H569    1.114   .     S
C538   C540    1.525   .     S
C538   H568    1.109   .     S
C538   O593    1.414   .     S
C539   H584    1.083   .     S
C539   C616    1.392   1_455 S
C540   H570    1.110   .     S
C540   C541    1.530   .     S
C540   H1087   1.107   .     S
C541   H572    1.111   .     S
C541   H1089   1.110   .     S
C541   H1090   1.109   .     S
C542   C543    1.537   .     S
C542   O594    1.413   .     S
C542   H576    1.108   .     S
C543   H578    1.098   .     S
C543   C544    1.527   .     S
C544   H582    1.110   .     S
C544   H581    1.111   .     S
C545   H585    1.084   .     S
C545   C617    1.392   .     S
C546   C891    1.331   1_545 S
C546   H930    1.087   1_545 S
C547   C718    1.331   .     S
C547   H759    1.087   .     S
C548   O600    1.298   .     A
C548   O598    1.300   .     A
C549   O601    1.298   .     A
C549   O599    1.299   .     A
C550   H553    1.085   .     S
Cu551  N590    2.038   .     S
Cu551  Cu552   2.713   .     S
Cu551  O597    1.954   .     S
Cu551  O591    1.958   .     S
Cu551  O598    1.953   .     S
Cu551  O601    1.946   .     S
Cu552  O599    1.953   .     S
Cu552  O596    1.954   .     S
Cu552  O595    1.958   .     S
Cu552  O600    1.946   .     S
Cu552  N589    2.038   .     S
H565   C1053   1.111   .     S
H566   C1053   1.108   .     S
H577   C1058   1.098   .     S
H579   C1059   1.106   .     S
H580   C1060   1.107   .     S
H586   C718    1.087   .     S
H587   C891    1.087   1_545 S
N590   N1105   1.300   .     S
N590   O1110   1.352   .     S
O593   N1105   1.345   .     S
C603   O677    1.299   .     A
C603   C632    1.432   .     S
C603   O682    1.295   .     A
C604   C615    1.390   .     A
C604   H650    1.085   .     S
C604   C606    1.394   .     A
C605   C635    1.440   .     S
C605   C636    1.394   .     A
C605   C607    1.402   .     A
C606   C608    1.406   .     A
C606   C634    1.441   .     S
C607   C609    1.409   .     A
C607   O688    1.390   .     S
C608   C610    1.407   .     A
C608   O678    1.390   .     S
C609   C616    1.406   .     A
C609   C611    1.414   .     A
C610   C617    1.405   .     A
C610   C612    1.414   .     A
C611   C613    1.411   .     A
C611   C526    1.402   1_655 S
C612   C615    1.412   .     A
C613   C636    1.390   .     A
C613   C631    1.400   .     A
C614   O681    1.298   .     A
C614   C633    1.431   .     S
C614   O683    1.296   .     A
C615   C625    1.399   .     A
C616   H661    1.083   .     S
C616   C539    1.392   1_655 S
C617   H669    1.083   .     S
C618   H674    1.107   .     S
C618   C619    1.528   .     S
C618   O688    1.423   .     S
C618   H640    1.118   .     S
C619   H641    1.110   .     S
C619   H642    1.105   .     S
C620   H644    1.111   .     S
C620   H643    1.111   .     S
C620   H645    1.106   .     S
C620   C1135   1.528   .     S
C621   O678    1.423   .     S
C621   C622    1.537   .     S
C621   H646    1.111   .     S
C621   H647    1.111   .     S
C622   H649    1.108   .     S
C622   C623    1.519   .     S
C622   H648    1.110   .     S
C623   H653    1.101   .     S
C624   H655    1.114   .     S
C624   C626    1.525   .     S
C624   H654    1.109   .     S
C624   O679    1.414   .     S
C625   H670    1.083   .     S
C626   H656    1.110   .     S
C626   C627    1.530   .     S
C626   H1173   1.107   .     S
C627   H658    1.111   .     S
C627   H1175   1.110   .     S
C627   H1176   1.109   .     S
C628   C629    1.537   .     S
C628   O680    1.413   .     S
C628   H662    1.108   .     S
C629   H664    1.098   .     S
C629   C630    1.527   .     S
C630   H668    1.110   .     S
C630   H667    1.111   .     S
C631   H671    1.084   .     S
C631   C531    1.392   1_655 S
C632   C977    1.331   1_545 S
C632   H1016   1.087   1_545 S
C633   C804    1.331   .     S
C633   H845    1.087   .     S
C634   O686    1.298   .     A
C634   O684    1.300   .     A
C635   O687    1.298   .     A
C635   O685    1.299   .     A
C636   H639    1.085   .     S
Cu637  N676    2.038   .     S
Cu637  Cu638   2.713   .     S
Cu637  O683    1.954   .     S
Cu637  O677    1.958   .     S
Cu637  O684    1.953   .     S
Cu637  O687    1.946   .     S
Cu638  O685    1.953   .     S
Cu638  O682    1.954   .     S
Cu638  O681    1.958   .     S
Cu638  O686    1.946   .     S
Cu638  N675    2.038   .     S
H651   C1139   1.111   .     S
H652   C1139   1.108   .     S
H663   C1144   1.098   .     S
H665   C1145   1.106   .     S
H666   C1146   1.107   .     S
H672   C804    1.087   .     S
H673   C977    1.087   1_545 S
N676   N1191   1.300   .     S
N676   O1196   1.352   .     S
O679   N1191   1.345   .     S
C689   O763    1.299   .     A
C689   C718    1.432   .     S
C689   O768    1.295   .     A
C690   C701    1.390   .     A
C690   H736    1.085   .     S
C690   C692    1.394   .     A
C691   C721    1.440   .     S
C691   C722    1.394   .     A
C691   C693    1.402   .     A
C692   C694    1.406   .     A
C692   C720    1.441   .     S
C693   C695    1.409   .     A
C693   O774    1.390   .     S
C694   C696    1.407   .     A
C694   O764    1.390   .     S
C695   C702    1.406   .     A
C695   C697    1.414   .     A
C696   C703    1.405   .     A
C696   C698    1.414   .     A
C697   C699    1.411   .     A
C697   C784    1.402   .     S
C698   C701    1.412   .     A
C698   C783    1.402   1_455 S
C699   C722    1.390   .     A
C699   C717    1.400   .     A
C700   O767    1.298   .     A
C700   C719    1.431   .     S
C700   O769    1.296   .     A
C701   C711    1.399   .     A
C702   H747    1.083   .     S
C702   C797    1.392   .     S
C703   H755    1.083   .     S
C703   C803    1.392   1_455 S
C704   H760    1.107   .     S
C704   C705    1.528   .     S
C704   O774    1.423   .     S
C704   H726    1.118   .     S
C705   H727    1.110   .     S
C705   H728    1.105   .     S
C706   H730    1.111   .     S
C706   H729    1.111   .     S
C706   H731    1.106   .     S
C706   C1221   1.528   .     S
C707   O764    1.423   .     S
C707   C708    1.537   .     S
C707   H732    1.111   .     S
C707   H733    1.111   .     S
C708   H735    1.108   .     S
C708   C709    1.519   .     S
C708   H734    1.110   .     S
C709   H739    1.101   .     S
C710   H741    1.114   .     S
C710   C712    1.525   .     S
C710   H740    1.109   .     S
C710   O765    1.414   .     S
C711   H756    1.083   .     S
C711   C788    1.392   1_455 S
C712   H742    1.110   .     S
C712   C713    1.530   .     S
C712   H1259   1.107   .     S
C713   H744    1.111   .     S
C713   H1261   1.110   .     S
C713   H1262   1.109   .     S
C714   C715    1.537   .     S
C714   O766    1.413   .     S
C714   H748    1.108   .     S
C715   H750    1.098   .     S
C715   C716    1.527   .     S
C716   H754    1.110   .     S
C716   H753    1.111   .     S
C717   H757    1.084   .     S
C717   C789    1.392   .     S
C719   C890    1.331   .     S
C719   H931    1.087   .     S
C720   O772    1.298   .     A
C720   O770    1.300   .     A
C721   O773    1.298   .     A
C721   O771    1.299   .     A
C722   H725    1.085   .     S
Cu723  N762    2.038   .     S
Cu723  Cu724   2.713   .     S
Cu723  O769    1.954   .     S
Cu723  O763    1.958   .     S
Cu723  O770    1.953   .     S
Cu723  O773    1.946   .     S
Cu724  O771    1.953   .     S
Cu724  O768    1.954   .     S
Cu724  O767    1.958   .     S
Cu724  O772    1.946   .     S
Cu724  N761    2.038   .     S
H737   C1225   1.111   .     S
H738   C1225   1.108   .     S
H749   C1230   1.098   .     S
H751   C1231   1.106   .     S
H752   C1232   1.107   .     S
H758   C890    1.087   .     S
N762   N1277   1.300   .     S
N762   O1282   1.352   .     S
O765   N1277   1.345   .     S
C775   O849    1.299   .     A
C775   C804    1.432   .     S
C775   O854    1.295   .     A
C776   C787    1.390   .     A
C776   H822    1.085   .     S
C776   C778    1.394   .     A
C777   C807    1.440   .     S
C777   C808    1.394   .     A
C777   C779    1.402   .     A
C778   C780    1.406   .     A
C778   C806    1.441   .     S
C779   C781    1.409   .     A
C779   O860    1.390   .     S
C780   C782    1.407   .     A
C780   O850    1.390   .     S
C781   C788    1.406   .     A
C781   C783    1.414   .     A
C782   C789    1.405   .     A
C782   C784    1.414   .     A
C783   C785    1.411   .     A
C783   C698    1.402   1_655 S
C784   C787    1.412   .     A
C785   C808    1.390   .     A
C785   C803    1.400   .     A
C786   O853    1.298   .     A
C786   C805    1.431   .     S
C786   O855    1.296   .     A
C787   C797    1.399   .     A
C788   H833    1.083   .     S
C788   C711    1.392   1_655 S
C789   H841    1.083   .     S
C790   H846    1.107   .     S
C790   C791    1.528   .     S
C790   O860    1.423   .     S
C790   H812    1.118   .     S
C791   H813    1.110   .     S
C791   H814    1.105   .     S
C792   H816    1.111   .     S
C792   H815    1.111   .     S
C792   H817    1.106   .     S
C792   C1307   1.528   .     S
C793   O850    1.423   .     S
C793   C794    1.537   .     S
C793   H818    1.111   .     S
C793   H819    1.111   .     S
C794   H821    1.108   .     S
C794   C795    1.519   .     S
C794   H820    1.110   .     S
C795   H825    1.101   .     S
C796   H827    1.114   .     S
C796   C798    1.525   .     S
C796   H826    1.109   .     S
C796   O851    1.414   .     S
C797   H842    1.083   .     S
C798   H828    1.110   .     S
C798   C799    1.530   .     S
C798   H1345   1.107   .     S
C799   H830    1.111   .     S
C799   H1347   1.110   .     S
C799   H1348   1.109   .     S
C800   C801    1.537   .     S
C800   O852    1.413   .     S
C800   H834    1.108   .     S
C801   H836    1.098   .     S
C801   C802    1.527   .     S
C802   H840    1.110   .     S
C802   H839    1.111   .     S
C803   H843    1.084   .     S
C803   C703    1.392   1_655 S
C805   C976    1.331   .     S
C805   H1017   1.087   .     S
C806   O858    1.298   .     A
C806   O856    1.300   .     A
C807   O859    1.298   .     A
C807   O857    1.299   .     A
C808   H811    1.085   .     S
Cu809  N848    2.038   .     S
Cu809  Cu810   2.713   .     S
Cu809  O855    1.954   .     S
Cu809  O849    1.958   .     S
Cu809  O856    1.953   .     S
Cu809  O859    1.946   .     S
Cu810  O857    1.953   .     S
Cu810  O854    1.954   .     S
Cu810  O853    1.958   .     S
Cu810  O858    1.946   .     S
Cu810  N847    2.038   .     S
H823   C1311   1.111   .     S
H824   C1311   1.108   .     S
H835   C1316   1.098   .     S
H837   C1317   1.106   .     S
H838   C1318   1.107   .     S
H844   C976    1.087   .     S
N848   N1363   1.300   .     S
N848   O1368   1.352   .     S
O851   N1363   1.345   .     S
C861   O935    1.299   .     A
C861   C890    1.432   .     S
C861   O940    1.295   .     A
C862   C873    1.390   .     A
C862   H908    1.085   .     S
C862   C864    1.394   .     A
C863   C893    1.440   .     S
C863   C894    1.394   .     A
C863   C865    1.402   .     A
C864   C866    1.406   .     A
C864   C892    1.441   .     S
C865   C867    1.409   .     A
C865   O946    1.390   .     S
C866   C868    1.407   .     A
C866   O936    1.390   .     S
C867   C874    1.406   .     A
C867   C869    1.414   .     A
C868   C875    1.405   .     A
C868   C870    1.414   .     A
C869   C871    1.411   .     A
C869   C956    1.402   .     S
C870   C873    1.412   .     A
C870   C955    1.402   1_455 S
C871   C894    1.390   .     A
C871   C889    1.400   .     A
C872   O939    1.298   .     A
C872   C891    1.431   .     S
C872   O941    1.296   .     A
C873   C883    1.399   .     A
C874   H919    1.083   .     S
C874   C969    1.392   .     S
C875   H927    1.083   .     S
C875   C975    1.392   1_455 S
C876   H932    1.107   .     S
C876   C877    1.528   .     S
C876   O946    1.423   .     S
C876   H898    1.118   .     S
C877   H899    1.110   .     S
C877   H900    1.105   .     S
C878   H902    1.111   .     S
C878   H901    1.111   .     S
C878   H903    1.106   .     S
C878   C1393   1.528   .     S
C879   O936    1.423   .     S
C879   C880    1.537   .     S
C879   H904    1.111   .     S
C879   H905    1.111   .     S
C880   H907    1.108   .     S
C880   C881    1.519   .     S
C880   H906    1.110   .     S
C881   H911    1.101   .     S
C882   H913    1.114   .     S
C882   C884    1.525   .     S
C882   H912    1.109   .     S
C882   O937    1.414   .     S
C883   H928    1.083   .     S
C883   C960    1.392   1_455 S
C884   H914    1.110   .     S
C884   C885    1.530   .     S
C884   H1431   1.107   .     S
C885   H916    1.111   .     S
C885   H1433   1.110   .     S
C885   H1434   1.109   .     S
C886   C887    1.537   .     S
C886   O938    1.413   .     S
C886   H920    1.108   .     S
C887   H922    1.098   .     S
C887   C888    1.527   .     S
C888   H926    1.110   .     S
C888   H925    1.111   .     S
C889   H929    1.084   .     S
C889   C961    1.392   .     S
C891   C546    1.331   1_565 S
C891   H587    1.087   1_565 S
C892   O944    1.298   .     A
C892   O942    1.300   .     A
C893   O945    1.298   .     A
C893   O943    1.299   .     A
C894   H897    1.085   .     S
Cu895  N934    2.038   .     S
Cu895  Cu896   2.713   .     S
Cu895  O941    1.954   .     S
Cu895  O935    1.958   .     S
Cu895  O942    1.953   .     S
Cu895  O945    1.946   .     S
Cu896  O943    1.953   .     S
Cu896  O940    1.954   .     S
Cu896  O939    1.958   .     S
Cu896  O944    1.946   .     S
Cu896  N933    2.038   .     S
H909   C1397   1.111   .     S
H910   C1397   1.108   .     S
H921   C1402   1.098   .     S
H923   C1403   1.106   .     S
H924   C1404   1.107   .     S
H930   C546    1.087   1_565 S
N934   N1449   1.300   .     S
N934   O1454   1.352   .     S
O937   N1449   1.345   .     S
C947   O1021   1.299   .     A
C947   C976    1.432   .     S
C947   O1026   1.295   .     A
C948   C959    1.390   .     A
C948   H994    1.085   .     S
C948   C950    1.394   .     A
C949   C979    1.440   .     S
C949   C980    1.394   .     A
C949   C951    1.402   .     A
C950   C952    1.406   .     A
C950   C978    1.441   .     S
C951   C953    1.409   .     A
C951   O1032   1.390   .     S
C952   C954    1.407   .     A
C952   O1022   1.390   .     S
C953   C960    1.406   .     A
C953   C955    1.414   .     A
C954   C961    1.405   .     A
C954   C956    1.414   .     A
C955   C957    1.411   .     A
C955   C870    1.402   1_655 S
C956   C959    1.412   .     A
C957   C980    1.390   .     A
C957   C975    1.400   .     A
C958   O1025   1.298   .     A
C958   C977    1.431   .     S
C958   O1027   1.296   .     A
C959   C969    1.399   .     A
C960   H1005   1.083   .     S
C960   C883    1.392   1_655 S
C961   H1013   1.083   .     S
C962   H1018   1.107   .     S
C962   C963    1.528   .     S
C962   O1032   1.423   .     S
C962   H984    1.118   .     S
C963   H985    1.110   .     S
C963   H986    1.105   .     S
C964   H988    1.111   .     S
C964   H987    1.111   .     S
C964   H989    1.106   .     S
C964   C1479   1.528   .     S
C965   O1022   1.423   .     S
C965   C966    1.537   .     S
C965   H990    1.111   .     S
C965   H991    1.111   .     S
C966   H993    1.108   .     S
C966   C967    1.519   .     S
C966   H992    1.110   .     S
C967   H997    1.101   .     S
C968   H999    1.114   .     S
C968   C970    1.525   .     S
C968   H998    1.109   .     S
C968   O1023   1.414   .     S
C969   H1014   1.083   .     S
C970   H1000   1.110   .     S
C970   C971    1.530   .     S
C970   H1517   1.107   .     S
C971   H1002   1.111   .     S
C971   H1519   1.110   .     S
C971   H1520   1.109   .     S
C972   C973    1.537   .     S
C972   O1024   1.413   .     S
C972   H1006   1.108   .     S
C973   H1008   1.098   .     S
C973   C974    1.527   .     S
C974   H1012   1.110   .     S
C974   H1011   1.111   .     S
C975   H1015   1.084   .     S
C975   C875    1.392   1_655 S
C977   C632    1.331   1_565 S
C977   H673    1.087   1_565 S
C978   O1030   1.298   .     A
C978   O1028   1.300   .     A
C979   O1031   1.298   .     A
C979   O1029   1.299   .     A
C980   H983    1.085   .     S
Cu981  N1020   2.038   .     S
Cu981  Cu982   2.713   .     S
Cu981  O1027   1.954   .     S
Cu981  O1021   1.958   .     S
Cu981  O1028   1.953   .     S
Cu981  O1031   1.946   .     S
Cu982  O1029   1.953   .     S
Cu982  O1026   1.954   .     S
Cu982  O1025   1.958   .     S
Cu982  O1030   1.946   .     S
Cu982  N1019   2.038   .     S
H995   C1483   1.111   .     S
H996   C1483   1.108   .     S
H1007  C1488   1.098   .     S
H1009  C1489   1.106   .     S
H1010  C1490   1.107   .     S
H1016  C632    1.087   1_565 S
N1020  N1535   1.300   .     S
N1020  O1540   1.352   .     S
O1023  N1535   1.345   .     S
C1033  O1107   1.299   .     A
C1033  C1062   1.432   .     S
C1033  O1112   1.295   .     A
C1034  C1045   1.390   .     A
C1034  H1080   1.085   .     S
C1034  C1036   1.394   .     A
C1035  C1065   1.440   .     S
C1035  C1066   1.394   .     A
C1035  C1037   1.402   .     A
C1036  C1038   1.406   .     A
C1036  C1064   1.441   .     S
C1037  C1039   1.409   .     A
C1037  O1118   1.390   .     S
C1038  C1040   1.407   .     A
C1038  O1108   1.390   .     S
C1039  C1046   1.406   .     A
C1039  C1041   1.414   .     A
C1040  C1047   1.405   .     A
C1040  C1042   1.414   .     A
C1041  C1043   1.411   .     A
C1041  C1128   1.402   .     S
C1042  C1045   1.412   .     A
C1042  C1127   1.402   1_455 S
C1043  C1066   1.390   .     A
C1043  C1061   1.400   .     A
C1044  O1111   1.298   .     A
C1044  C1063   1.431   .     S
C1044  O1113   1.296   .     A
C1045  C1055   1.399   .     A
C1046  H1091   1.083   .     S
C1046  C1141   1.392   .     S
C1047  H1099   1.083   .     S
C1047  C1147   1.392   1_455 S
C1048  H1104   1.107   .     S
C1048  C1049   1.528   .     S
C1048  O1118   1.423   .     S
C1048  H1070   1.118   .     S
C1049  H1071   1.110   .     S
C1049  H1072   1.105   .     S
C1050  H1074   1.111   .     S
C1050  H1073   1.111   .     S
C1050  H1075   1.106   .     S
C1050  C17     1.528   1_556 S
C1051  O1108   1.423   .     S
C1051  C1052   1.537   .     S
C1051  H1076   1.111   .     S
C1051  H1077   1.111   .     S
C1052  H1079   1.108   .     S
C1052  C1053   1.519   .     S
C1052  H1078   1.110   .     S
C1053  H1083   1.101   .     S
C1054  H1085   1.114   .     S
C1054  C1056   1.525   .     S
C1054  H1084   1.109   .     S
C1054  O1109   1.414   .     S
C1055  H1100   1.083   .     S
C1055  C1132   1.392   1_455 S
C1056  H1086   1.110   .     S
C1056  C1057   1.530   .     S
C1056  H55     1.107   1_556 S
C1057  H1088   1.111   .     S
C1057  H57     1.110   1_556 S
C1057  H58     1.109   1_556 S
C1058  C1059   1.537   .     S
C1058  O1110   1.413   .     S
C1058  H1092   1.108   .     S
C1059  H1094   1.098   .     S
C1059  C1060   1.527   .     S
C1060  H1098   1.110   .     S
C1060  H1097   1.111   .     S
C1061  H1101   1.084   .     S
C1061  C1133   1.392   .     S
C1062  C1407   1.331   1_545 S
C1062  H1446   1.087   1_545 S
C1063  C1234   1.331   .     S
C1063  H1275   1.087   .     S
C1064  O1116   1.298   .     A
C1064  O1114   1.300   .     A
C1065  O1117   1.298   .     A
C1065  O1115   1.299   .     A
C1066  H1069   1.085   .     S
Cu1067 N1106   2.038   .     S
Cu1067 Cu1068  2.713   .     S
Cu1067 O1113   1.954   .     S
Cu1067 O1107   1.958   .     S
Cu1067 O1114   1.953   .     S
Cu1067 O1117   1.946   .     S
Cu1068 O1115   1.953   .     S
Cu1068 O1112   1.954   .     S
Cu1068 O1111   1.958   .     S
Cu1068 O1116   1.946   .     S
Cu1068 N1105   2.038   .     S
H1081  C21     1.111   1_556 S
H1082  C21     1.108   1_556 S
H1093  C26     1.098   1_556 S
H1095  C27     1.106   1_556 S
H1096  C28     1.107   1_556 S
H1102  C1234   1.087   .     S
H1103  C1407   1.087   1_545 S
N1106  N73     1.300   1_556 S
N1106  O78     1.352   1_556 S
O1109  N73     1.345   1_556 S
C1119  O1193   1.299   .     A
C1119  C1148   1.432   .     S
C1119  O1198   1.295   .     A
C1120  C1131   1.390   .     A
C1120  H1166   1.085   .     S
C1120  C1122   1.394   .     A
C1121  C1151   1.440   .     S
C1121  C1152   1.394   .     A
C1121  C1123   1.402   .     A
C1122  C1124   1.406   .     A
C1122  C1150   1.441   .     S
C1123  C1125   1.409   .     A
C1123  O1204   1.390   .     S
C1124  C1126   1.407   .     A
C1124  O1194   1.390   .     S
C1125  C1132   1.406   .     A
C1125  C1127   1.414   .     A
C1126  C1133   1.405   .     A
C1126  C1128   1.414   .     A
C1127  C1129   1.411   .     A
C1127  C1042   1.402   1_655 S
C1128  C1131   1.412   .     A
C1129  C1152   1.390   .     A
C1129  C1147   1.400   .     A
C1130  O1197   1.298   .     A
C1130  C1149   1.431   .     S
C1130  O1199   1.296   .     A
C1131  C1141   1.399   .     A
C1132  H1177   1.083   .     S
C1132  C1055   1.392   1_655 S
C1133  H1185   1.083   .     S
C1134  H1190   1.107   .     S
C1134  C1135   1.528   .     S
C1134  O1204   1.423   .     S
C1134  H1156   1.118   .     S
C1135  H1157   1.110   .     S
C1135  H1158   1.105   .     S
C1136  H1160   1.111   .     S
C1136  H1159   1.111   .     S
C1136  H1161   1.106   .     S
C1136  C103    1.528   1_556 S
C1137  O1194   1.423   .     S
C1137  C1138   1.537   .     S
C1137  H1162   1.111   .     S
C1137  H1163   1.111   .     S
C1138  H1165   1.108   .     S
C1138  C1139   1.519   .     S
C1138  H1164   1.110   .     S
C1139  H1169   1.101   .     S
C1140  H1171   1.114   .     S
C1140  C1142   1.525   .     S
C1140  H1170   1.109   .     S
C1140  O1195   1.414   .     S
C1141  H1186   1.083   .     S
C1142  H1172   1.110   .     S
C1142  C1143   1.530   .     S
C1142  H141    1.107   1_556 S
C1143  H1174   1.111   .     S
C1143  H143    1.110   1_556 S
C1143  H144    1.109   1_556 S
C1144  C1145   1.537   .     S
C1144  O1196   1.413   .     S
C1144  H1178   1.108   .     S
C1145  H1180   1.098   .     S
C1145  C1146   1.527   .     S
C1146  H1184   1.110   .     S
C1146  H1183   1.111   .     S
C1147  H1187   1.084   .     S
C1147  C1047   1.392   1_655 S
C1148  C1493   1.331   1_545 S
C1148  H1532   1.087   1_545 S
C1149  C1320   1.331   .     S
C1149  H1361   1.087   .     S
C1150  O1202   1.298   .     A
C1150  O1200   1.300   .     A
C1151  O1203   1.298   .     A
C1151  O1201   1.299   .     A
C1152  H1155   1.085   .     S
Cu1153 N1192   2.038   .     S
Cu1153 Cu1154  2.713   .     S
Cu1153 O1199   1.954   .     S
Cu1153 O1193   1.958   .     S
Cu1153 O1200   1.953   .     S
Cu1153 O1203   1.946   .     S
Cu1154 O1201   1.953   .     S
Cu1154 O1198   1.954   .     S
Cu1154 O1197   1.958   .     S
Cu1154 O1202   1.946   .     S
Cu1154 N1191   2.038   .     S
H1167  C107    1.111   1_556 S
H1168  C107    1.108   1_556 S
H1179  C112    1.098   1_556 S
H1181  C113    1.106   1_556 S
H1182  C114    1.107   1_556 S
H1188  C1320   1.087   .     S
H1189  C1493   1.087   1_545 S
N1192  N159    1.300   1_556 S
N1192  O164    1.352   1_556 S
O1195  N159    1.345   1_556 S
C1205  O1279   1.299   .     A
C1205  C1234   1.432   .     S
C1205  O1284   1.295   .     A
C1206  C1217   1.390   .     A
C1206  H1252   1.085   .     S
C1206  C1208   1.394   .     A
C1207  C1237   1.440   .     S
C1207  C1238   1.394   .     A
C1207  C1209   1.402   .     A
C1208  C1210   1.406   .     A
C1208  C1236   1.441   .     S
C1209  C1211   1.409   .     A
C1209  O1290   1.390   .     S
C1210  C1212   1.407   .     A
C1210  O1280   1.390   .     S
C1211  C1218   1.406   .     A
C1211  C1213   1.414   .     A
C1212  C1219   1.405   .     A
C1212  C1214   1.414   .     A
C1213  C1215   1.411   .     A
C1213  C1300   1.402   .     S
C1214  C1217   1.412   .     A
C1214  C1299   1.402   1_455 S
C1215  C1238   1.390   .     A
C1215  C1233   1.400   .     A
C1216  O1283   1.298   .     A
C1216  C1235   1.431   .     S
C1216  O1285   1.296   .     A
C1217  C1227   1.399   .     A
C1218  H1263   1.083   .     S
C1218  C1313   1.392   .     S
C1219  H1271   1.083   .     S
C1219  C1319   1.392   1_455 S
C1220  H1276   1.107   .     S
C1220  C1221   1.528   .     S
C1220  O1290   1.423   .     S
C1220  H1242   1.118   .     S
C1221  H1243   1.110   .     S
C1221  H1244   1.105   .     S
C1222  H1246   1.111   .     S
C1222  H1245   1.111   .     S
C1222  H1247   1.106   .     S
C1222  C189    1.528   1_556 S
C1223  O1280   1.423   .     S
C1223  C1224   1.537   .     S
C1223  H1248   1.111   .     S
C1223  H1249   1.111   .     S
C1224  H1251   1.108   .     S
C1224  C1225   1.519   .     S
C1224  H1250   1.110   .     S
C1225  H1255   1.101   .     S
C1226  H1257   1.114   .     S
C1226  C1228   1.525   .     S
C1226  H1256   1.109   .     S
C1226  O1281   1.414   .     S
C1227  H1272   1.083   .     S
C1227  C1304   1.392   1_455 S
C1228  H1258   1.110   .     S
C1228  C1229   1.530   .     S
C1228  H227    1.107   1_556 S
C1229  H1260   1.111   .     S
C1229  H229    1.110   1_556 S
C1229  H230    1.109   1_556 S
C1230  C1231   1.537   .     S
C1230  O1282   1.413   .     S
C1230  H1264   1.108   .     S
C1231  H1266   1.098   .     S
C1231  C1232   1.527   .     S
C1232  H1270   1.110   .     S
C1232  H1269   1.111   .     S
C1233  H1273   1.084   .     S
C1233  C1305   1.392   .     S
C1235  C1406   1.331   .     S
C1235  H1447   1.087   .     S
C1236  O1288   1.298   .     A
C1236  O1286   1.300   .     A
C1237  O1289   1.298   .     A
C1237  O1287   1.299   .     A
C1238  H1241   1.085   .     S
Cu1239 N1278   2.038   .     S
Cu1239 Cu1240  2.713   .     S
Cu1239 O1285   1.954   .     S
Cu1239 O1279   1.958   .     S
Cu1239 O1286   1.953   .     S
Cu1239 O1289   1.946   .     S
Cu1240 O1287   1.953   .     S
Cu1240 O1284   1.954   .     S
Cu1240 O1283   1.958   .     S
Cu1240 O1288   1.946   .     S
Cu1240 N1277   2.038   .     S
H1253  C193    1.111   1_556 S
H1254  C193    1.108   1_556 S
H1265  C198    1.098   1_556 S
H1267  C199    1.106   1_556 S
H1268  C200    1.107   1_556 S
H1274  C1406   1.087   .     S
N1278  N245    1.300   1_556 S
N1278  O250    1.352   1_556 S
O1281  N245    1.345   1_556 S
C1291  O1365   1.299   .     A
C1291  C1320   1.432   .     S
C1291  O1370   1.295   .     A
C1292  C1303   1.390   .     A
C1292  H1338   1.085   .     S
C1292  C1294   1.394   .     A
C1293  C1323   1.440   .     S
C1293  C1324   1.394   .     A
C1293  C1295   1.402   .     A
C1294  C1296   1.406   .     A
C1294  C1322   1.441   .     S
C1295  C1297   1.409   .     A
C1295  O1376   1.390   .     S
C1296  C1298   1.407   .     A
C1296  O1366   1.390   .     S
C1297  C1304   1.406   .     A
C1297  C1299   1.414   .     A
C1298  C1305   1.405   .     A
C1298  C1300   1.414   .     A
C1299  C1301   1.411   .     A
C1299  C1214   1.402   1_655 S
C1300  C1303   1.412   .     A
C1301  C1324   1.390   .     A
C1301  C1319   1.400   .     A
C1302  O1369   1.298   .     A
C1302  C1321   1.431   .     S
C1302  O1371   1.296   .     A
C1303  C1313   1.399   .     A
C1304  H1349   1.083   .     S
C1304  C1227   1.392   1_655 S
C1305  H1357   1.083   .     S
C1306  H1362   1.107   .     S
C1306  C1307   1.528   .     S
C1306  O1376   1.423   .     S
C1306  H1328   1.118   .     S
C1307  H1329   1.110   .     S
C1307  H1330   1.105   .     S
C1308  H1332   1.111   .     S
C1308  H1331   1.111   .     S
C1308  H1333   1.106   .     S
C1308  C275    1.528   1_556 S
C1309  O1366   1.423   .     S
C1309  C1310   1.537   .     S
C1309  H1334   1.111   .     S
C1309  H1335   1.111   .     S
C1310  H1337   1.108   .     S
C1310  C1311   1.519   .     S
C1310  H1336   1.110   .     S
C1311  H1341   1.101   .     S
C1312  H1343   1.114   .     S
C1312  C1314   1.525   .     S
C1312  H1342   1.109   .     S
C1312  O1367   1.414   .     S
C1313  H1358   1.083   .     S
C1314  H1344   1.110   .     S
C1314  C1315   1.530   .     S
C1314  H313    1.107   1_556 S
C1315  H1346   1.111   .     S
C1315  H315    1.110   1_556 S
C1315  H316    1.109   1_556 S
C1316  C1317   1.537   .     S
C1316  O1368   1.413   .     S
C1316  H1350   1.108   .     S
C1317  H1352   1.098   .     S
C1317  C1318   1.527   .     S
C1318  H1356   1.110   .     S
C1318  H1355   1.111   .     S
C1319  H1359   1.084   .     S
C1319  C1219   1.392   1_655 S
C1321  C1492   1.331   .     S
C1321  H1533   1.087   .     S
C1322  O1374   1.298   .     A
C1322  O1372   1.300   .     A
C1323  O1375   1.298   .     A
C1323  O1373   1.299   .     A
C1324  H1327   1.085   .     S
Cu1325 N1364   2.038   .     S
Cu1325 Cu1326  2.713   .     S
Cu1325 O1371   1.954   .     S
Cu1325 O1365   1.958   .     S
Cu1325 O1372   1.953   .     S
Cu1325 O1375   1.946   .     S
Cu1326 O1373   1.953   .     S
Cu1326 O1370   1.954   .     S
Cu1326 O1369   1.958   .     S
Cu1326 O1374   1.946   .     S
Cu1326 N1363   2.038   .     S
H1339  C279    1.111   1_556 S
H1340  C279    1.108   1_556 S
H1351  C284    1.098   1_556 S
H1353  C285    1.106   1_556 S
H1354  C286    1.107   1_556 S
H1360  C1492   1.087   .     S
N1364  N331    1.300   1_556 S
N1364  O336    1.352   1_556 S
O1367  N331    1.345   1_556 S
C1377  O1451   1.299   .     A
C1377  C1406   1.432   .     S
C1377  O1456   1.295   .     A
C1378  C1389   1.390   .     A
C1378  H1424   1.085   .     S
C1378  C1380   1.394   .     A
C1379  C1409   1.440   .     S
C1379  C1410   1.394   .     A
C1379  C1381   1.402   .     A
C1380  C1382   1.406   .     A
C1380  C1408   1.441   .     S
C1381  C1383   1.409   .     A
C1381  O1462   1.390   .     S
C1382  C1384   1.407   .     A
C1382  O1452   1.390   .     S
C1383  C1390   1.406   .     A
C1383  C1385   1.414   .     A
C1384  C1391   1.405   .     A
C1384  C1386   1.414   .     A
C1385  C1387   1.411   .     A
C1385  C1472   1.402   .     S
C1386  C1389   1.412   .     A
C1386  C1471   1.402   1_455 S
C1387  C1410   1.390   .     A
C1387  C1405   1.400   .     A
C1388  O1455   1.298   .     A
C1388  C1407   1.431   .     S
C1388  O1457   1.296   .     A
C1389  C1399   1.399   .     A
C1390  H1435   1.083   .     S
C1390  C1485   1.392   .     S
C1391  H1443   1.083   .     S
C1391  C1491   1.392   1_455 S
C1392  H1448   1.107   .     S
C1392  C1393   1.528   .     S
C1392  O1462   1.423   .     S
C1392  H1414   1.118   .     S
C1393  H1415   1.110   .     S
C1393  H1416   1.105   .     S
C1394  H1418   1.111   .     S
C1394  H1417   1.111   .     S
C1394  H1419   1.106   .     S
C1394  C361    1.528   1_556 S
C1395  O1452   1.423   .     S
C1395  C1396   1.537   .     S
C1395  H1420   1.111   .     S
C1395  H1421   1.111   .     S
C1396  H1423   1.108   .     S
C1396  C1397   1.519   .     S
C1396  H1422   1.110   .     S
C1397  H1427   1.101   .     S
C1398  H1429   1.114   .     S
C1398  C1400   1.525   .     S
C1398  H1428   1.109   .     S
C1398  O1453   1.414   .     S
C1399  H1444   1.083   .     S
C1399  C1476   1.392   1_455 S
C1400  H1430   1.110   .     S
C1400  C1401   1.530   .     S
C1400  H399    1.107   1_556 S
C1401  H1432   1.111   .     S
C1401  H401    1.110   1_556 S
C1401  H402    1.109   1_556 S
C1402  C1403   1.537   .     S
C1402  O1454   1.413   .     S
C1402  H1436   1.108   .     S
C1403  H1438   1.098   .     S
C1403  C1404   1.527   .     S
C1404  H1442   1.110   .     S
C1404  H1441   1.111   .     S
C1405  H1445   1.084   .     S
C1405  C1477   1.392   .     S
C1407  C1062   1.331   1_565 S
C1407  H1103   1.087   1_565 S
C1408  O1460   1.298   .     A
C1408  O1458   1.300   .     A
C1409  O1461   1.298   .     A
C1409  O1459   1.299   .     A
C1410  H1413   1.085   .     S
Cu1411 N1450   2.038   .     S
Cu1411 Cu1412  2.713   .     S
Cu1411 O1457   1.954   .     S
Cu1411 O1451   1.958   .     S
Cu1411 O1458   1.953   .     S
Cu1411 O1461   1.946   .     S
Cu1412 O1459   1.953   .     S
Cu1412 O1456   1.954   .     S
Cu1412 O1455   1.958   .     S
Cu1412 O1460   1.946   .     S
Cu1412 N1449   2.038   .     S
H1425  C365    1.111   1_556 S
H1426  C365    1.108   1_556 S
H1437  C370    1.098   1_556 S
H1439  C371    1.106   1_556 S
H1440  C372    1.107   1_556 S
H1446  C1062   1.087   1_565 S
N1450  N417    1.300   1_556 S
N1450  O422    1.352   1_556 S
O1453  N417    1.345   1_556 S
C1463  O1537   1.299   .     A
C1463  C1492   1.432   .     S
C1463  O1542   1.295   .     A
C1464  C1475   1.390   .     A
C1464  H1510   1.085   .     S
C1464  C1466   1.394   .     A
C1465  C1495   1.440   .     S
C1465  C1496   1.394   .     A
C1465  C1467   1.402   .     A
C1466  C1468   1.406   .     A
C1466  C1494   1.441   .     S
C1467  C1469   1.409   .     A
C1467  O1548   1.390   .     S
C1468  C1470   1.407   .     A
C1468  O1538   1.390   .     S
C1469  C1476   1.406   .     A
C1469  C1471   1.414   .     A
C1470  C1477   1.405   .     A
C1470  C1472   1.414   .     A
C1471  C1473   1.411   .     A
C1471  C1386   1.402   1_655 S
C1472  C1475   1.412   .     A
C1473  C1496   1.390   .     A
C1473  C1491   1.400   .     A
C1474  O1541   1.298   .     A
C1474  C1493   1.431   .     S
C1474  O1543   1.296   .     A
C1475  C1485   1.399   .     A
C1476  H1521   1.083   .     S
C1476  C1399   1.392   1_655 S
C1477  H1529   1.083   .     S
C1478  H1534   1.107   .     S
C1478  C1479   1.528   .     S
C1478  O1548   1.423   .     S
C1478  H1500   1.118   .     S
C1479  H1501   1.110   .     S
C1479  H1502   1.105   .     S
C1480  H1504   1.111   .     S
C1480  H1503   1.111   .     S
C1480  H1505   1.106   .     S
C1480  C447    1.528   1_556 S
C1481  O1538   1.423   .     S
C1481  C1482   1.537   .     S
C1481  H1506   1.111   .     S
C1481  H1507   1.111   .     S
C1482  H1509   1.108   .     S
C1482  C1483   1.519   .     S
C1482  H1508   1.110   .     S
C1483  H1513   1.101   .     S
C1484  H1515   1.114   .     S
C1484  C1486   1.525   .     S
C1484  H1514   1.109   .     S
C1484  O1539   1.414   .     S
C1485  H1530   1.083   .     S
C1486  H1516   1.110   .     S
C1486  C1487   1.530   .     S
C1486  H485    1.107   1_556 S
C1487  H1518   1.111   .     S
C1487  H487    1.110   1_556 S
C1487  H488    1.109   1_556 S
C1488  C1489   1.537   .     S
C1488  O1540   1.413   .     S
C1488  H1522   1.108   .     S
C1489  H1524   1.098   .     S
C1489  C1490   1.527   .     S
C1490  H1528   1.110   .     S
C1490  H1527   1.111   .     S
C1491  H1531   1.084   .     S
C1491  C1391   1.392   1_655 S
C1493  C1148   1.331   1_565 S
C1493  H1189   1.087   1_565 S
C1494  O1546   1.298   .     A
C1494  O1544   1.300   .     A
C1495  O1547   1.298   .     A
C1495  O1545   1.299   .     A
C1496  H1499   1.085   .     S
Cu1497 N1536   2.038   .     S
Cu1497 Cu1498  2.713   .     S
Cu1497 O1543   1.954   .     S
Cu1497 O1537   1.958   .     S
Cu1497 O1544   1.953   .     S
Cu1497 O1547   1.946   .     S
Cu1498 O1545   1.953   .     S
Cu1498 O1542   1.954   .     S
Cu1498 O1541   1.958   .     S
Cu1498 O1546   1.946   .     S
Cu1498 N1535   2.038   .     S
H1511  C451    1.111   1_556 S
H1512  C451    1.108   1_556 S
H1523  C456    1.098   1_556 S
H1525  C457    1.106   1_556 S
H1526  C458    1.107   1_556 S
H1532  C1148   1.087   1_565 S
N1536  N503    1.300   1_556 S
N1536  O508    1.352   1_556 S
O1539  N503    1.345   1_556 S
