data_str_m1_o1_o17_pcu_sym.121
_audit_creation_date              2020-01-03
_audit_creation_method            'Materials Studio'
_symmetry_space_group_name_H-M    'P1'
_symmetry_Int_Tables_number       1
_symmetry_cell_setting            triclinic
loop_
_symmetry_equiv_pos_as_xyz
  x,y,z
_cell_length_a                    36.4631
_cell_length_b                    36.5825
_cell_length_c                    34.5266
_cell_angle_alpha                 89.9543
_cell_angle_beta                  89.9406
_cell_angle_gamma                 89.6020
loop_
_atom_site_label
_atom_site_type_symbol
_atom_site_fract_x
_atom_site_fract_y
_atom_site_fract_z
_atom_site_U_iso_or_equiv
_atom_site_adp_type
_atom_site_occupancy
C1     C     0.47062   0.26644   0.41867   0.00000  Uiso   1.00
C2     C     0.27938   0.48352   0.08133   0.00000  Uiso   1.00
C3     C     0.23434   0.02972   0.54075   0.00000  Uiso   1.00
C4     C     0.47003   0.26533   0.45928   0.00000  Uiso   1.00
C5     C     0.02998   0.23464   0.54072   0.00000  Uiso   1.00
C6     C     0.23438   0.02973   0.45924   0.00000  Uiso   1.00
C7     C     0.26575   0.47029   0.54077   0.00000  Uiso   1.00
C8     C     0.27993   0.48459   0.95923   0.00000  Uiso   1.00
C9     C     0.22008   0.01538   0.04077   0.00000  Uiso   1.00
C10    C     0.01568   0.22026   0.95925   0.00000  Uiso   1.00
C11    C     0.48434   0.27972   0.04075   0.00000  Uiso   1.00
C12    C     0.22004   0.01535   0.95928   0.00000  Uiso   1.00
C13    C     0.48330   0.27915   0.91863   0.00000  Uiso   1.00
C14    C     0.27997   0.48462   0.04072   0.00000  Uiso   1.00
C15    C     0.48439   0.27974   0.95924   0.00000  Uiso   1.00
C16    C     0.01572   0.22029   0.04077   0.00000  Uiso   1.00
C17    C     0.09751   0.34870   0.25016   0.00000  Uiso   1.00
C18    C     0.40250   0.15129   0.74983   0.00000  Uiso   1.00
C19    C     0.15217   0.09821   0.24965   0.00000  Uiso   1.00
C20    C     0.34789   0.40184   0.75031   0.00000  Uiso   1.00
C21    C     0.40228   0.15164   0.24994   0.00000  Uiso   1.00
C22    C     0.09778   0.34849   0.74987   0.00000  Uiso   1.00
C23    C     0.34788   0.40186   0.24967   0.00000  Uiso   1.00
C24    C     0.01680   0.22088   0.08137   0.00000  Uiso   1.00
C25    C     0.15212   0.09822   0.75040   0.00000  Uiso   1.00
C26    C     0.09787   0.15186   0.74967   0.00000  Uiso   1.00
C27    C     0.40212   0.34822   0.25041   0.00000  Uiso   1.00
C28    C     0.15227   0.40165   0.74994   0.00000  Uiso   1.00
C29    C     0.34779   0.09848   0.24987   0.00000  Uiso   1.00
C30    C     0.40219   0.34823   0.74962   0.00000  Uiso   1.00
C31    C     0.09788   0.15182   0.25032   0.00000  Uiso   1.00
C32    C     0.34752   0.09870   0.75016   0.00000  Uiso   1.00
C33    C     0.15249   0.40129   0.24983   0.00000  Uiso   1.00
C34    C     0.49999   0.24998   0.47959   0.00000  Uiso   1.00
C35    C     0.27931   0.48346   0.91863   0.00000  Uiso   1.00
C36    C     0.00001   0.24999   0.52041   0.00000  Uiso   1.00
C37    C     0.25005   0.00001   0.47958   0.00000  Uiso   1.00
C38    C     0.25006   0.00001   0.52042   0.00000  Uiso   1.00
C39    C     0.24999   0.49998   0.97959   0.00000  Uiso   1.00
C40    C     0.25001   0.49999   0.02041   0.00000  Uiso   1.00
C41    C     0.00004   0.25000   0.97958   0.00000  Uiso   1.00
C42    C     0.00005   0.25001   0.02042   0.00000  Uiso   1.00
C43    C     0.17839   0.39468   0.16601   0.00000  Uiso   1.00
C44    C     0.18540   0.40987   0.12566   0.00000  Uiso   1.00
C45    C     0.32160   0.10533   0.83397   0.00000  Uiso   1.00
C46    C     0.22070   0.01653   0.08136   0.00000  Uiso   1.00
C47    C     0.31458   0.09017   0.87433   0.00000  Uiso   1.00
C48    C     0.03293   0.10579   0.28192   0.00000  Uiso   1.00
C49    C     0.00918   0.08640   0.31169   0.00000  Uiso   1.00
C50    C     0.46738   0.39350   0.71778   0.00000  Uiso   1.00
C51    C     0.49124   0.41294   0.68812   0.00000  Uiso   1.00
C52    C     0.32477   0.10474   0.16431   0.00000  Uiso   1.00
C53    C     0.31787   0.08697   0.12519   0.00000  Uiso   1.00
C54    C     0.17789   0.39488   0.83396   0.00000  Uiso   1.00
C55    C     0.18470   0.41004   0.87432   0.00000  Uiso   1.00
C56    C     0.46738   0.39442   0.28097   0.00000  Uiso   1.00
C57    C     0.01672   0.22082   0.91864   0.00000  Uiso   1.00
C58    C     0.49119   0.41420   0.31030   0.00000  Uiso   1.00
C59    C     0.03236   0.10657   0.71871   0.00000  Uiso   1.00
C60    C     0.00876   0.08622   0.68962   0.00000  Uiso   1.00
C61    C     0.10015   0.03455   0.72506   0.00000  Uiso   1.00
C62    C     0.11294   0.49811   0.70886   0.00000  Uiso   1.00
C63    C     0.39868   0.46585   0.27655   0.00000  Uiso   1.00
C64    C     0.38507   0.00174   0.29351   0.00000  Uiso   1.00
C65    C     0.10740   0.33665   0.84408   0.00000  Uiso   1.00
C66    C     0.08186   0.30908   0.86279   0.00000  Uiso   1.00
C67    C     0.39890   0.17272   0.16256   0.00000  Uiso   1.00
C68    C     0.48319   0.27909   0.08136   0.00000  Uiso   1.00
C69    C     0.40465   0.16952   0.11907   0.00000  Uiso   1.00
C70    C     0.39896   0.46548   0.72272   0.00000  Uiso   1.00
C71    C     0.38580   0.00151   0.70568   0.00000  Uiso   1.00
C72    C     0.10158   0.03443   0.27755   0.00000  Uiso   1.00
C73    C     0.11575   0.49864   0.29425   0.00000  Uiso   1.00
C74    C     0.39232   0.16327   0.84427   0.00000  Uiso   1.00
C75    C     0.41780   0.19073   0.86315   0.00000  Uiso   1.00
C76    C     0.10771   0.33668   0.15575   0.00000  Uiso   1.00
C77    C     0.08224   0.30919   0.13691   0.00000  Uiso   1.00
C78    C     0.42842   0.14466   0.66602   0.00000  Uiso   1.00
C79    C     0.49997   0.24996   0.39836   0.00000  Uiso   1.00
C80    C     0.43542   0.15982   0.62566   0.00000  Uiso   1.00
C81    C     0.07160   0.35534   0.33397   0.00000  Uiso   1.00
C82    C     0.06459   0.34018   0.37434   0.00000  Uiso   1.00
C83    C     0.28302   0.35560   0.78190   0.00000  Uiso   1.00
C84    C     0.25923   0.33643   0.81179   0.00000  Uiso   1.00
C85    C     0.21719   0.14406   0.21798   0.00000  Uiso   1.00
C86    C     0.24118   0.16306   0.18813   0.00000  Uiso   1.00
C87    C     0.07473   0.35475   0.66431   0.00000  Uiso   1.00
C88    C     0.06784   0.33700   0.62519   0.00000  Uiso   1.00
C89    C     0.42792   0.14485   0.33395   0.00000  Uiso   1.00
C90    C     0.00004   0.25002   0.60164   0.00000  Uiso   1.00
C91    C     0.43476   0.16002   0.37430   0.00000  Uiso   1.00
C92    C     0.21737   0.14442   0.78097   0.00000  Uiso   1.00
C93    C     0.24118   0.16419   0.81032   0.00000  Uiso   1.00
C94    C     0.28235   0.35660   0.21870   0.00000  Uiso   1.00
C95    C     0.25876   0.33625   0.18960   0.00000  Uiso   1.00
C96    C     0.35014   0.28456   0.22506   0.00000  Uiso   1.00
C97    C     0.36289   0.24811   0.20883   0.00000  Uiso   1.00
C98    C     0.14867   0.21585   0.77658   0.00000  Uiso   1.00
C99    C     0.13500   0.25173   0.79351   0.00000  Uiso   1.00
C100   C     0.35741   0.08665   0.34409   0.00000  Uiso   1.00
C101   C     0.25000   0.49998   0.39834   0.00000  Uiso   1.00
C102   C     0.33187   0.05908   0.36280   0.00000  Uiso   1.00
C103   C     0.14890   0.42272   0.66255   0.00000  Uiso   1.00
C104   C     0.15480   0.41956   0.61907   0.00000  Uiso   1.00
C105   C     0.14859   0.21555   0.22230   0.00000  Uiso   1.00
C106   C     0.13445   0.25137   0.20564   0.00000  Uiso   1.00
C107   C     0.35173   0.28442   0.77775   0.00000  Uiso   1.00
C108   C     0.36633   0.24872   0.79429   0.00000  Uiso   1.00
C109   C     0.14229   0.41332   0.34424   0.00000  Uiso   1.00
C110   C     0.16777   0.44079   0.36310   0.00000  Uiso   1.00
C111   C     0.35781   0.08652   0.65583   0.00000  Uiso   1.00
C112   C     0.02939   0.23354   0.58133   0.00000  Uiso   1.00
C113   C     0.25001  -0.00000   0.60166   0.00000  Uiso   1.00
C114   C     0.33236   0.05898   0.63705   0.00000  Uiso   1.00
C115   C     0.44985   0.31996   0.39286   0.00000  Uiso   1.00
C116   C     0.41560   0.33947   0.37824   0.00000  Uiso   1.00
C117   C     0.05021   0.18004   0.60714   0.00000  Uiso   1.00
C118   C     0.08451   0.16053   0.62162   0.00000  Uiso   1.00
C119   C     0.17962   0.04957   0.39260   0.00000  Uiso   1.00
C120   C     0.16001   0.08346   0.37735   0.00000  Uiso   1.00
C121   C     0.32054   0.45057   0.60742   0.00000  Uiso   1.00
C122   C     0.34021   0.41672   0.62267   0.00000  Uiso   1.00
C123   C     0.05010   0.17993   0.39296   0.00000  Uiso   1.00
C124   C     0.24997   0.49996   0.89836   0.00000  Uiso   1.00
C125   C     0.08448   0.16033   0.37877   0.00000  Uiso   1.00
C126   C     0.44996   0.32012   0.60692   0.00000  Uiso   1.00
C127   C     0.41561   0.33976   0.62113   0.00000  Uiso   1.00
C128   C     0.32037   0.45039   0.39244   0.00000  Uiso   1.00
C129   C     0.33990   0.41659   0.37687   0.00000  Uiso   1.00
C130   C     0.17925   0.04892   0.60732   0.00000  Uiso   1.00
C131   C     0.15949   0.08222   0.62373   0.00000  Uiso   1.00
C132   C     0.19989   0.06998   0.89285   0.00000  Uiso   1.00
C133   C     0.16564   0.08953   0.87828   0.00000  Uiso   1.00
C134   C     0.30017   0.43001   0.10714   0.00000  Uiso   1.00
C135   C     0.25004   0.00002   0.10164   0.00000  Uiso   1.00
C136   C     0.33447   0.41048   0.12159   0.00000  Uiso   1.00
C137   C     0.42962   0.29960   0.89261   0.00000  Uiso   1.00
C138   C     0.41002   0.33350   0.87742   0.00000  Uiso   1.00
C139   C     0.07052   0.20052   0.10738   0.00000  Uiso   1.00
C140   C     0.09018   0.16664   0.12254   0.00000  Uiso   1.00
C141   C     0.30003   0.42989   0.89294   0.00000  Uiso   1.00
C142   C     0.33440   0.41024   0.87883   0.00000  Uiso   1.00
C143   C     0.20001   0.07015   0.10693   0.00000  Uiso   1.00
C144   C     0.16569   0.08981   0.12119   0.00000  Uiso   1.00
C145   C     0.07036   0.20037   0.89244   0.00000  Uiso   1.00
C146   C    -0.00000   0.24998   0.89834   0.00000  Uiso   1.00
C147   C     0.08987   0.16657   0.87687   0.00000  Uiso   1.00
C148   C     0.42926   0.29895   0.10732   0.00000  Uiso   1.00
C149   C     0.40952   0.33225   0.12375   0.00000  Uiso   1.00
C150   C     0.00000   0.25000   0.10166   0.00000  Uiso   1.00
C151   C     0.05989   0.22020   0.47984   0.00000  Uiso   1.00
C152   C     0.44012   0.27977   0.52016   0.00000  Uiso   1.00
C153   C     0.28047   0.44057   0.47991   0.00000  Uiso   1.00
C154   C     0.21958   0.05941   0.52010   0.00000  Uiso   1.00
C155   C     0.44010   0.27976   0.47994   0.00000  Uiso   1.00
C156   C     0.23330   0.02914   0.41863   0.00000  Uiso   1.00
C157   C     0.05990   0.22021   0.52006   0.00000  Uiso   1.00
C158   C     0.21962   0.05943   0.47987   0.00000  Uiso   1.00
C159   C     0.28050   0.44059   0.52014   0.00000  Uiso   1.00
C160   C     0.30986   0.47015   0.97984   0.00000  Uiso   1.00
C161   C     0.19014   0.02982   0.02016   0.00000  Uiso   1.00
C162   C     0.03043   0.19056   0.97991   0.00000  Uiso   1.00
C163   C     0.46960   0.30942   0.02010   0.00000  Uiso   1.00
C164   C     0.19012   0.02980   0.97994   0.00000  Uiso   1.00
C165   C     0.30988   0.47017   0.02006   0.00000  Uiso   1.00
C166   C     0.46964   0.30944   0.97987   0.00000  Uiso   1.00
C167   C     0.26683   0.47089   0.58138   0.00000  Uiso   1.00
C168   C     0.03046   0.19058   0.02014   0.00000  Uiso   1.00
C169   C     0.25000   0.49999   0.35592   0.00000  Uiso   1.00
C170   C     0.24996   0.00000   0.64408   0.00000  Uiso   1.00
C171   C     0.49999   0.24999   0.35596   0.00000  Uiso   1.00
C172   C     0.00002   0.25001   0.64404   0.00000  Uiso   1.00
C173   C     0.49999   0.24999   0.85592   0.00000  Uiso   1.00
C174   C     0.49996   0.25000   0.14408   0.00000  Uiso   1.00
C175   C     0.24999   0.49999   0.85595   0.00000  Uiso   1.00
C176   C     0.25002   0.00001   0.14404   0.00000  Uiso   1.00
C177   C     0.18020   0.07013   0.24970   0.00000  Uiso   1.00
C178   C     0.02933   0.23348   0.41863   0.00000  Uiso   1.00
C179   C     0.31983   0.42989   0.75028   0.00000  Uiso   1.00
C180   C     0.42989   0.18009   0.24978   0.00000  Uiso   1.00
C181   C     0.07012   0.31997   0.75015   0.00000  Uiso   1.00
C182   C     0.31984   0.42990   0.24974   0.00000  Uiso   1.00
C183   C     0.18017   0.07014   0.75031   0.00000  Uiso   1.00
C184   C     0.07010   0.31997   0.24978   0.00000  Uiso   1.00
C185   C     0.42990   0.18003   0.75022   0.00000  Uiso   1.00
C186   C     0.17989   0.43009   0.74978   0.00000  Uiso   1.00
C187   C     0.32012   0.06997   0.25015   0.00000  Uiso   1.00
C188   C     0.43021   0.32014   0.74969   0.00000  Uiso   1.00
C189   C     0.47069   0.26651   0.58136   0.00000  Uiso   1.00
C190   C     0.06982   0.17989   0.25028   0.00000  Uiso   1.00
C191   C     0.32011   0.06997   0.74977   0.00000  Uiso   1.00
C192   C     0.17990   0.43003   0.25022   0.00000  Uiso   1.00
C193   C     0.06984   0.17990   0.74973   0.00000  Uiso   1.00
C194   C     0.43017   0.32014   0.25031   0.00000  Uiso   1.00
C195   C     0.13559   0.39147   0.21463   0.00000  Uiso   1.00
C196   C     0.36442   0.10853   0.78536   0.00000  Uiso   1.00
C197   C     0.09362   0.12051   0.27351   0.00000  Uiso   1.00
C198   C     0.40646   0.37956   0.72642   0.00000  Uiso   1.00
C199   C     0.36522   0.10791   0.21482   0.00000  Uiso   1.00
C200   C     0.26674   0.47083   0.41864   0.00000  Uiso   1.00
C201   C     0.13532   0.39175   0.78518   0.00000  Uiso   1.00
C202   C     0.40661   0.37976   0.27314   0.00000  Uiso   1.00
C203   C     0.09338   0.12034   0.72691   0.00000  Uiso   1.00
C204   C     0.12060   0.09331   0.72763   0.00000  Uiso   1.00
C205   C     0.37930   0.40671   0.27262   0.00000  Uiso   1.00
C206   C     0.10725   0.36587   0.78488   0.00000  Uiso   1.00
C207   C     0.39266   0.13426   0.21486   0.00000  Uiso   1.00
C208   C     0.37915   0.40653   0.72701   0.00000  Uiso   1.00
C209   C     0.12093   0.09356   0.27299   0.00000  Uiso   1.00
C210   C     0.39263   0.13425   0.78497   0.00000  Uiso   1.00
C211   C     0.23318   0.02909   0.58136   0.00000  Uiso   1.00
C212   C     0.10738   0.36574   0.21502   0.00000  Uiso   1.00
C213   C     0.38560   0.14146   0.71463   0.00000  Uiso   1.00
C214   C     0.11442   0.35853   0.28536   0.00000  Uiso   1.00
C215   C     0.34364   0.37052   0.77349   0.00000  Uiso   1.00
C216   C     0.15644   0.12953   0.22646   0.00000  Uiso   1.00
C217   C     0.11520   0.35793   0.71481   0.00000  Uiso   1.00
C218   C     0.38534   0.14174   0.28519   0.00000  Uiso   1.00
C219   C     0.15661   0.12975   0.77314   0.00000  Uiso   1.00
C220   C     0.34338   0.37034   0.22692   0.00000  Uiso   1.00
C221   C     0.37060   0.34332   0.22764   0.00000  Uiso   1.00
C222   C     0.22063   0.01646   0.91867   0.00000  Uiso   1.00
C223   C     0.12929   0.15670   0.77263   0.00000  Uiso   1.00
C224   C     0.35726   0.11586   0.28488   0.00000  Uiso   1.00
C225   C     0.14264   0.38428   0.71486   0.00000  Uiso   1.00
C226   C     0.12911   0.15647   0.22697   0.00000  Uiso   1.00
C227   C     0.37097   0.34360   0.77299   0.00000  Uiso   1.00
C228   C     0.14263   0.38426   0.28497   0.00000  Uiso   1.00
C229   C     0.35740   0.11572   0.71502   0.00000  Uiso   1.00
C230   C     0.02994   0.23461   0.45923   0.00000  Uiso   1.00
C231   C     0.47006   0.26536   0.54077   0.00000  Uiso   1.00
C232   C     0.26570   0.47026   0.45925   0.00000  Uiso   1.00
H233   H     0.08343   0.20865   0.46498   0.00000  Uiso   1.00
H234   H     0.16661   0.04138   0.03502   0.00000  Uiso   1.00
H235   H     0.46210   0.14940   0.61455   0.00000  Uiso   1.00
H236   H     0.41330   0.15122   0.60562   0.00000  Uiso   1.00
H237   H     0.04836   0.34700   0.31530   0.00000  Uiso   1.00
H238   H     0.07154   0.38569   0.33569   0.00000  Uiso   1.00
H239   H     0.03791   0.35062   0.38544   0.00000  Uiso   1.00
H240   H     0.06374   0.30987   0.37341   0.00000  Uiso   1.00
H241   H     0.08671   0.34876   0.39437   0.00000  Uiso   1.00
H242   H     0.28839   0.33624   0.75756   0.00000  Uiso   1.00
H243   H     0.26710   0.37928   0.77075   0.00000  Uiso   1.00
H244   H     0.25281   0.35539   0.83601   0.00000  Uiso   1.00
H245   H     0.04220   0.16718   0.96508   0.00000  Uiso   1.00
H246   H     0.23318   0.32754   0.79819   0.00000  Uiso   1.00
H247   H     0.27380   0.31211   0.82355   0.00000  Uiso   1.00
H248   H     0.23291   0.12019   0.22900   0.00000  Uiso   1.00
H249   H     0.21203   0.16338   0.24239   0.00000  Uiso   1.00
H250   H     0.26734   0.17162   0.20173   0.00000  Uiso   1.00
H251   H     0.24739   0.14411   0.16383   0.00000  Uiso   1.00
H252   H     0.22685   0.18758   0.17648   0.00000  Uiso   1.00
H253   H     0.07678   0.38472   0.65980   0.00000  Uiso   1.00
H254   H     0.05060   0.34929   0.68308   0.00000  Uiso   1.00
H255   H     0.06574   0.30692   0.62855   0.00000  Uiso   1.00
H256   H     0.45778   0.33278   0.03494   0.00000  Uiso   1.00
H257   H     0.04183   0.34765   0.61268   0.00000  Uiso   1.00
H258   H     0.09071   0.34323   0.60503   0.00000  Uiso   1.00
H259   H     0.45129   0.15310   0.31535   0.00000  Uiso   1.00
H260   H     0.42790   0.11450   0.33573   0.00000  Uiso   1.00
H261   H     0.41254   0.15147   0.39429   0.00000  Uiso   1.00
H262   H     0.46138   0.14957   0.38551   0.00000  Uiso   1.00
H263   H     0.43564   0.19033   0.37331   0.00000  Uiso   1.00
H264   H     0.21205   0.16325   0.75613   0.00000  Uiso   1.00
H265   H     0.23328   0.12048   0.77044   0.00000  Uiso   1.00
H266   H     0.22668   0.18882   0.82143   0.00000  Uiso   1.00
H267   H     0.16658   0.04136   0.96512   0.00000  Uiso   1.00
H268   H     0.24749   0.14577   0.83506   0.00000  Uiso   1.00
H269   H     0.26728   0.17268   0.79648   0.00000  Uiso   1.00
H270   H     0.26654   0.38101   0.22811   0.00000  Uiso   1.00
H271   H     0.28707   0.33848   0.24425   0.00000  Uiso   1.00
H272   H     0.23246   0.32824   0.20336   0.00000  Uiso   1.00
H273   H     0.25282   0.35410   0.16431   0.00000  Uiso   1.00
H274   H     0.27322   0.31129   0.17931   0.00000  Uiso   1.00
H275   H     0.32002   0.28659   0.22135   0.00000  Uiso   1.00
H276   H     0.35640   0.28472   0.25671   0.00000  Uiso   1.00
H277   H     0.35558   0.24623   0.17768   0.00000  Uiso   1.00
H278   H     0.33342   0.45861   0.03488   0.00000  Uiso   1.00
H279   H     0.39310   0.24571   0.21195   0.00000  Uiso   1.00
H280   H     0.34967   0.22536   0.22483   0.00000  Uiso   1.00
H281   H     0.14261   0.21611   0.74489   0.00000  Uiso   1.00
H282   H     0.17882   0.21445   0.78043   0.00000  Uiso   1.00
H283   H     0.14790   0.27499   0.77808   0.00000  Uiso   1.00
H284   H     0.10477   0.25374   0.79028   0.00000  Uiso   1.00
H285   H     0.14210   0.25317   0.82475   0.00000  Uiso   1.00
H286   H     0.36893   0.10396   0.36742   0.00000  Uiso   1.00
H287   H     0.38024   0.07114   0.33005   0.00000  Uiso   1.00
H288   H     0.30846   0.07335   0.37698   0.00000  Uiso   1.00
H289   H     0.45785   0.33281   0.96503   0.00000  Uiso   1.00
H290   H     0.32133   0.04012   0.34047   0.00000  Uiso   1.00
H291   H     0.34701   0.04292   0.38492   0.00000  Uiso   1.00
H292   H     0.16489   0.44649   0.67278   0.00000  Uiso   1.00
H293   H     0.11927   0.42836   0.66786   0.00000  Uiso   1.00
H294   H     0.13906   0.39612   0.60750   0.00000  Uiso   1.00
H295   H     0.14532   0.44503   0.60457   0.00000  Uiso   1.00
H296   H     0.18441   0.41540   0.61269   0.00000  Uiso   1.00
H297   H     0.17867   0.21426   0.21770   0.00000  Uiso   1.00
H298   H     0.14315   0.21579   0.25413   0.00000  Uiso   1.00
H299   H     0.14097   0.25286   0.17425   0.00000  Uiso   1.00
H300   H     0.04226   0.16721   0.03498   0.00000  Uiso   1.00
H301   H     0.10427   0.25325   0.20955   0.00000  Uiso   1.00
H302   H     0.14751   0.27468   0.22077   0.00000  Uiso   1.00
H303   H     0.35700   0.28428   0.74588   0.00000  Uiso   1.00
H304   H     0.32167   0.28538   0.78251   0.00000  Uiso   1.00
H305   H     0.35349   0.22530   0.77915   0.00000  Uiso   1.00
H306   H     0.39652   0.24719   0.79029   0.00000  Uiso   1.00
H307   H     0.35992   0.24710   0.82569   0.00000  Uiso   1.00
H308   H     0.13070   0.39588   0.36747   0.00000  Uiso   1.00
H309   H     0.11951   0.42888   0.33021   0.00000  Uiso   1.00
H310   H     0.19105   0.42645   0.37739   0.00000  Uiso   1.00
H311   H     0.17845   0.36433   0.16426   0.00000  Uiso   1.00
H312   H     0.17852   0.45977   0.34084   0.00000  Uiso   1.00
H313   H     0.15252   0.45694   0.38516   0.00000  Uiso   1.00
H314   H     0.38059   0.07102   0.66993   0.00000  Uiso   1.00
H315   H     0.36942   0.10389   0.63255   0.00000  Uiso   1.00
H316   H     0.34763   0.04277   0.61507   0.00000  Uiso   1.00
H317   H     0.32160   0.04006   0.65937   0.00000  Uiso   1.00
H318   H     0.30908   0.07327   0.62269   0.00000  Uiso   1.00
H319   H     0.47191   0.32292   0.37079   0.00000  Uiso   1.00
H320   H     0.45854   0.33365   0.42018   0.00000  Uiso   1.00
H321   H     0.39296   0.33644   0.39952   0.00000  Uiso   1.00
H322   H     0.20164   0.40301   0.18468   0.00000  Uiso   1.00
H323   H     0.42131   0.36902   0.37440   0.00000  Uiso   1.00
H324   H     0.40698   0.32770   0.35007   0.00000  Uiso   1.00
H325   H     0.04143   0.16635   0.57984   0.00000  Uiso   1.00
H326   H     0.02822   0.17705   0.62928   0.00000  Uiso   1.00
H327   H     0.09321   0.17228   0.64978   0.00000  Uiso   1.00
H328   H     0.07884   0.13097   0.62544   0.00000  Uiso   1.00
H329   H     0.10708   0.16361   0.60026   0.00000  Uiso   1.00
H330   H     0.16571   0.04113   0.41994   0.00000  Uiso   1.00
H331   H     0.17691   0.02736   0.37080   0.00000  Uiso   1.00
H332   H     0.17222   0.09196   0.34929   0.00000  Uiso   1.00
H333   H     0.18623   0.44019   0.12661   0.00000  Uiso   1.00
H334   H     0.13049   0.07750   0.37304   0.00000  Uiso   1.00
H335   H     0.16254   0.10619   0.39846   0.00000  Uiso   1.00
H336   H     0.32319   0.47277   0.62923   0.00000  Uiso   1.00
H337   H     0.33444   0.45905   0.58009   0.00000  Uiso   1.00
H338   H     0.33774   0.39399   0.60154   0.00000  Uiso   1.00
H339   H     0.36972   0.42273   0.62699   0.00000  Uiso   1.00
H340   H     0.32800   0.40817   0.65071   0.00000  Uiso   1.00
H341   H     0.02826   0.17692   0.37071   0.00000  Uiso   1.00
H342   H     0.04112   0.16633   0.42026   0.00000  Uiso   1.00
H343   H     0.10689   0.16340   0.40026   0.00000  Uiso   1.00
H344   H     0.41658   0.29132   0.53502   0.00000  Uiso   1.00
H345   H     0.21208   0.39946   0.11455   0.00000  Uiso   1.00
H346   H     0.07877   0.13077   0.37503   0.00000  Uiso   1.00
H347   H     0.09342   0.17200   0.35063   0.00000  Uiso   1.00
H348   H     0.45887   0.33366   0.57955   0.00000  Uiso   1.00
H349   H     0.47186   0.32319   0.62910   0.00000  Uiso   1.00
H350   H     0.40672   0.32814   0.64933   0.00000  Uiso   1.00
H351   H     0.42132   0.36932   0.62478   0.00000  Uiso   1.00
H352   H     0.39315   0.33663   0.59970   0.00000  Uiso   1.00
H353   H     0.33437   0.45864   0.41974   0.00000  Uiso   1.00
H354   H     0.32304   0.47274   0.37075   0.00000  Uiso   1.00
H355   H     0.32760   0.40830   0.34883   0.00000  Uiso   1.00
H356   H     0.16329   0.40129   0.10562   0.00000  Uiso   1.00
H357   H     0.36942   0.42254   0.37244   0.00000  Uiso   1.00
H358   H     0.33741   0.39371   0.39786   0.00000  Uiso   1.00
H359   H     0.17667   0.02601   0.62839   0.00000  Uiso   1.00
H360   H     0.16537   0.04125   0.57976   0.00000  Uiso   1.00
H361   H     0.16174   0.10556   0.60329   0.00000  Uiso   1.00
H362   H     0.13003   0.07595   0.62810   0.00000  Uiso   1.00
H363   H     0.17180   0.09002   0.65192   0.00000  Uiso   1.00
H364   H     0.22192   0.07293   0.87075   0.00000  Uiso   1.00
H365   H     0.20863   0.08367   0.92016   0.00000  Uiso   1.00
H366   H     0.14303   0.08652   0.89960   0.00000  Uiso   1.00
H367   H     0.29836   0.09700   0.81530   0.00000  Uiso   1.00
H368   H     0.17137   0.11907   0.87443   0.00000  Uiso   1.00
H369   H     0.15697   0.07776   0.85013   0.00000  Uiso   1.00
H370   H     0.29137   0.41633   0.07986   0.00000  Uiso   1.00
H371   H     0.27820   0.42704   0.12931   0.00000  Uiso   1.00
H372   H     0.34321   0.42222   0.14974   0.00000  Uiso   1.00
H373   H     0.32879   0.38093   0.12542   0.00000  Uiso   1.00
H374   H     0.35703   0.41354   0.10022   0.00000  Uiso   1.00
H375   H     0.41572   0.29112   0.91994   0.00000  Uiso   1.00
H376   H     0.42691   0.27741   0.87078   0.00000  Uiso   1.00
H377   H     0.42221   0.34204   0.84937   0.00000  Uiso   1.00
H378   H     0.32155   0.13569   0.83570   0.00000  Uiso   1.00
H379   H     0.38049   0.32757   0.87313   0.00000  Uiso   1.00
H380   H     0.41256   0.35621   0.89857   0.00000  Uiso   1.00
H381   H     0.07320   0.22269   0.12923   0.00000  Uiso   1.00
H382   H     0.08439   0.20904   0.08006   0.00000  Uiso   1.00
H383   H     0.08769   0.14395   0.10137   0.00000  Uiso   1.00
H384   H     0.11970   0.17263   0.12684   0.00000  Uiso   1.00
H385   H     0.07801   0.15805   0.15058   0.00000  Uiso   1.00
H386   H     0.27822   0.42691   0.87064   0.00000  Uiso   1.00
H387   H     0.29097   0.41630   0.92022   0.00000  Uiso   1.00
H388   H     0.35677   0.41327   0.90037   0.00000  Uiso   1.00
H389   H     0.28791   0.10061   0.88544   0.00000  Uiso   1.00
H390   H     0.32866   0.38070   0.87506   0.00000  Uiso   1.00
H391   H     0.34343   0.42191   0.85071   0.00000  Uiso   1.00
H392   H     0.20892   0.08369   0.07956   0.00000  Uiso   1.00
H393   H     0.22194   0.07320   0.12909   0.00000  Uiso   1.00
H394   H     0.15681   0.07817   0.14937   0.00000  Uiso   1.00
H395   H     0.17143   0.11936   0.12487   0.00000  Uiso   1.00
H396   H     0.14322   0.08672   0.09977   0.00000  Uiso   1.00
H397   H     0.08435   0.20860   0.91976   0.00000  Uiso   1.00
H398   H     0.07303   0.22272   0.87076   0.00000  Uiso   1.00
H399   H     0.07758   0.15829   0.84882   0.00000  Uiso   1.00
H400   H     0.31373   0.05985   0.87340   0.00000  Uiso   1.00
H401   H     0.11939   0.17251   0.87245   0.00000  Uiso   1.00
H402   H     0.08737   0.14369   0.89785   0.00000  Uiso   1.00
H403   H     0.42668   0.27603   0.12838   0.00000  Uiso   1.00
H404   H     0.41538   0.29130   0.07976   0.00000  Uiso   1.00
H405   H     0.41178   0.35560   0.10332   0.00000  Uiso   1.00
H406   H     0.38006   0.32599   0.12812   0.00000  Uiso   1.00
H407   H     0.42183   0.34003   0.15195   0.00000  Uiso   1.00
H408   H     0.33670   0.09874   0.89437   0.00000  Uiso   1.00
H409   H     0.03820   0.08665   0.25736   0.00000  Uiso   1.00
H410   H     0.01702   0.12960   0.27107   0.00000  Uiso   1.00
H411   H     0.00284   0.10516   0.33611   0.00000  Uiso   1.00
H412   H     0.29225   0.41720   0.46508   0.00000  Uiso   1.00
H413   H     0.48309   0.07766   0.29807   0.00000  Uiso   1.00
H414   H     0.02374   0.06196   0.32318   0.00000  Uiso   1.00
H415   H     0.48304   0.36930   0.72805   0.00000  Uiso   1.00
H416   H     0.46258   0.41235   0.74269   0.00000  Uiso   1.00
H417   H     0.01755   0.42111   0.70168   0.00000  Uiso   1.00
H418   H     0.49717   0.39442   0.66339   0.00000  Uiso   1.00
H419   H     0.47696   0.43774   0.67710   0.00000  Uiso   1.00
H420   H     0.32685   0.13471   0.15977   0.00000  Uiso   1.00
H421   H     0.30063   0.09932   0.18308   0.00000  Uiso   1.00
H422   H     0.31572   0.05690   0.12859   0.00000  Uiso   1.00
H423   H     0.20776   0.08276   0.53494   0.00000  Uiso   1.00
H424   H     0.29188   0.09765   0.11266   0.00000  Uiso   1.00
H425   H     0.34076   0.09314   0.10504   0.00000  Uiso   1.00
H426   H     0.20127   0.40315   0.81538   0.00000  Uiso   1.00
H427   H     0.17789   0.36453   0.83574   0.00000  Uiso   1.00
H428   H     0.16247   0.40148   0.89429   0.00000  Uiso   1.00
H429   H     0.21132   0.39960   0.88554   0.00000  Uiso   1.00
H430   H     0.18558   0.44036   0.87334   0.00000  Uiso   1.00
H431   H     0.46206   0.41324   0.25612   0.00000  Uiso   1.00
H432   H     0.48329   0.37047   0.27044   0.00000  Uiso   1.00
H433   H     0.47669   0.43883   0.32141   0.00000  Uiso   1.00
H434   H     0.41655   0.29130   0.46512   0.00000  Uiso   1.00
H435   H     0.49750   0.39579   0.33504   0.00000  Uiso   1.00
H436   H     0.01729   0.42269   0.29646   0.00000  Uiso   1.00
H437   H     0.01654   0.13098   0.72814   0.00000  Uiso   1.00
H438   H     0.03709   0.08845   0.74426   0.00000  Uiso   1.00
H439   H     0.02323   0.06127   0.67932   0.00000  Uiso   1.00
H440   H     0.48247   0.07820   0.70338   0.00000  Uiso   1.00
H441   H     0.00280   0.10409   0.66434   0.00000  Uiso   1.00
H442   H     0.07003   0.03657   0.72131   0.00000  Uiso   1.00
H443   H     0.10638   0.03473   0.75671   0.00000  Uiso   1.00
H444   H     0.10569   0.49622   0.67769   0.00000  Uiso   1.00
H445   H     0.08346   0.20867   0.53488   0.00000  Uiso   1.00
H446   H     0.14314   0.49572   0.71204   0.00000  Uiso   1.00
H447   H     0.09970   0.47537   0.72484   0.00000  Uiso   1.00
H448   H     0.39259   0.46612   0.24488   0.00000  Uiso   1.00
H449   H     0.42884   0.46442   0.28038   0.00000  Uiso   1.00
H450   H     0.39795   0.02500   0.27805   0.00000  Uiso   1.00
H451   H     0.35483   0.00377   0.29032   0.00000  Uiso   1.00
H452   H     0.39220   0.00318   0.32473   0.00000  Uiso   1.00
H453   H     0.11893   0.35396   0.86741   0.00000  Uiso   1.00
H454   H     0.13024   0.32115   0.83004   0.00000  Uiso   1.00
H455   H     0.05846   0.32334   0.87697   0.00000  Uiso   1.00
H456   H     0.20782   0.08280   0.46503   0.00000  Uiso   1.00
H457   H     0.07132   0.29012   0.84045   0.00000  Uiso   1.00
H458   H     0.09701   0.29292   0.88490   0.00000  Uiso   1.00
H459   H     0.41496   0.19647   0.17271   0.00000  Uiso   1.00
H460   H     0.36930   0.17842   0.16797   0.00000  Uiso   1.00
H461   H     0.38880   0.14612   0.10757   0.00000  Uiso   1.00
H462   H     0.39521   0.19501   0.10458   0.00000  Uiso   1.00
H463   H     0.43422   0.16526   0.11258   0.00000  Uiso   1.00
H464   H     0.42909   0.46360   0.71874   0.00000  Uiso   1.00
H465   H     0.39293   0.46594   0.75443   0.00000  Uiso   1.00
H466   H     0.39275   0.00273   0.67438   0.00000  Uiso   1.00
H467   H     0.29231   0.41724   0.53498   0.00000  Uiso   1.00
H468   H     0.35561   0.00403   0.70916   0.00000  Uiso   1.00
H469   H     0.39915   0.02461   0.72087   0.00000  Uiso   1.00
H470   H     0.10714   0.03420   0.24574   0.00000  Uiso   1.00
H471   H     0.07148   0.03562   0.28200   0.00000  Uiso   1.00
H472   H     0.10282   0.47530   0.27906   0.00000  Uiso   1.00
H473   H     0.14595   0.49685   0.29049   0.00000  Uiso   1.00
H474   H     0.10911   0.49712   0.32561   0.00000  Uiso   1.00
H475   H     0.38074   0.14580   0.86749   0.00000  Uiso   1.00
H476   H     0.36952   0.17884   0.83027   0.00000  Uiso   1.00
H477   H     0.44109   0.17637   0.87741   0.00000  Uiso   1.00
H478   H     0.33339   0.45858   0.96497   0.00000  Uiso   1.00
H479   H     0.42854   0.20973   0.84090   0.00000  Uiso   1.00
H480   H     0.40256   0.20685   0.88523   0.00000  Uiso   1.00
H481   H     0.13051   0.32114   0.16977   0.00000  Uiso   1.00
H482   H     0.11929   0.35412   0.13252   0.00000  Uiso   1.00
H483   H     0.09750   0.29304   0.11486   0.00000  Uiso   1.00
H484   H     0.07151   0.29021   0.15918   0.00000  Uiso   1.00
H485   H     0.05895   0.32352   0.12262   0.00000  Uiso   1.00
H486   H     0.42848   0.11431   0.66430   0.00000  Uiso   1.00
H487   H     0.45165   0.15301   0.68469   0.00000  Uiso   1.00
H488   H     0.43624   0.19014   0.62658   0.00000  Uiso   1.00
O489   O     0.25000   0.00000   0.25000   0.00000  Uiso   1.00
O490   O     0.25000   0.46963   0.66245   0.00000  Uiso   1.00
O491   O     0.46654   0.30762   0.10123   0.00000  Uiso   1.00
O492   O     0.46964   0.25000   0.33755   0.00000  Uiso   1.00
O493   O     0.03037   0.25000   0.66245   0.00000  Uiso   1.00
O494   O     0.00000   0.21963   0.83755   0.00000  Uiso   1.00
O495   O     0.00000   0.28037   0.16245   0.00000  Uiso   1.00
O496   O     0.28037   0.00000   0.83755   0.00000  Uiso   1.00
O497   O     0.21964   0.00000   0.16245   0.00000  Uiso   1.00
O498   O     0.00000   0.28036   0.83755   0.00000  Uiso   1.00
O499   O     0.00000   0.21963   0.16245   0.00000  Uiso   1.00
O500   O     0.21964   0.00000   0.83755   0.00000  Uiso   1.00
O501   O     0.25000   0.00000   0.75000   0.00000  Uiso   1.00
O502   O     0.28037   0.00000   0.16245   0.00000  Uiso   1.00
O503   O     0.20725   0.07308   0.27302   0.00000  Uiso   1.00
O504   O     0.29276   0.42693   0.72698   0.00000  Uiso   1.00
O505   O     0.42693   0.20725   0.27302   0.00000  Uiso   1.00
O506   O     0.07308   0.29275   0.72698   0.00000  Uiso   1.00
O507   O     0.29276   0.42693   0.27302   0.00000  Uiso   1.00
O508   O     0.20725   0.07308   0.72698   0.00000  Uiso   1.00
O509   O     0.07308   0.29275   0.27302   0.00000  Uiso   1.00
O510   O     0.42693   0.20725   0.72698   0.00000  Uiso   1.00
O511   O     0.20725   0.42692   0.72698   0.00000  Uiso   1.00
O512   O     0.00000   0.25000   0.25000   0.00000  Uiso   1.00
O513   O     0.29276   0.07308   0.27302   0.00000  Uiso   1.00
O514   O     0.42693   0.29276   0.72698   0.00000  Uiso   1.00
O515   O     0.07308   0.20724   0.27302   0.00000  Uiso   1.00
O516   O     0.29276   0.07308   0.72698   0.00000  Uiso   1.00
O517   O     0.20725   0.42692   0.27302   0.00000  Uiso   1.00
O518   O     0.07308   0.20724   0.72698   0.00000  Uiso   1.00
O519   O     0.42693   0.29276   0.27302   0.00000  Uiso   1.00
O520   O     0.45725   0.32308   0.77302   0.00000  Uiso   1.00
O521   O     0.04276   0.17692   0.22698   0.00000  Uiso   1.00
O522   O     0.17693   0.45724   0.77302   0.00000  Uiso   1.00
O523   O     0.00000   0.25000   0.75000   0.00000  Uiso   1.00
O524   O     0.32308   0.04276   0.22698   0.00000  Uiso   1.00
O525   O     0.04276   0.17692   0.77302   0.00000  Uiso   1.00
O526   O     0.45725   0.32308   0.22698   0.00000  Uiso   1.00
O527   O     0.32308   0.04276   0.77302   0.00000  Uiso   1.00
O528   O     0.17693   0.45724   0.22698   0.00000  Uiso   1.00
O529   O     0.45725   0.17693   0.22698   0.00000  Uiso   1.00
O530   O     0.04276   0.32307   0.77302   0.00000  Uiso   1.00
O531   O     0.17693   0.04276   0.22698   0.00000  Uiso   1.00
O532   O     0.32308   0.45725   0.77302   0.00000  Uiso   1.00
O533   O     0.04276   0.32307   0.22698   0.00000  Uiso   1.00
O534   O     0.25000   0.46963   0.33755   0.00000  Uiso   1.00
O535   O     0.45725   0.17693   0.77302   0.00000  Uiso   1.00
O536   O     0.32308   0.45725   0.22698   0.00000  Uiso   1.00
O537   O     0.17693   0.04276   0.77302   0.00000  Uiso   1.00
O538   O     0.14449   0.40855   0.18000   0.00000  Uiso   1.00
O539   O     0.35550   0.09146   0.82000   0.00000  Uiso   1.00
O540   O     0.06535   0.11785   0.30019   0.00000  Uiso   1.00
O541   O     0.43463   0.38221   0.69960   0.00000  Uiso   1.00
O542   O     0.35734   0.09002   0.18044   0.00000  Uiso   1.00
O543   O     0.14410   0.40884   0.81981   0.00000  Uiso   1.00
O544   O     0.43502   0.38258   0.29958   0.00000  Uiso   1.00
O545   O     0.25000   0.03037   0.66245   0.00000  Uiso   1.00
O546   O     0.06513   0.11756   0.70027   0.00000  Uiso   1.00
O547   O     0.11744   0.06290   0.70418   0.00000  Uiso   1.00
O548   O     0.38204   0.43671   0.29677   0.00000  Uiso   1.00
O549   O     0.08720   0.35909   0.81829   0.00000  Uiso   1.00
O550   O     0.41177   0.14042   0.18073   0.00000  Uiso   1.00
O551   O     0.38182   0.43651   0.70278   0.00000  Uiso   1.00
O552   O     0.11831   0.06370   0.29739   0.00000  Uiso   1.00
O553   O     0.41262   0.14102   0.81837   0.00000  Uiso   1.00
O554   O     0.08740   0.35895   0.18162   0.00000  Uiso   1.00
O555   O     0.39451   0.15853   0.67999   0.00000  Uiso   1.00
O556   O     0.03037   0.25000   0.33755   0.00000  Uiso   1.00
O557   O     0.10550   0.34146   0.32000   0.00000  Uiso   1.00
O558   O     0.31536   0.36787   0.80015   0.00000  Uiso   1.00
O559   O     0.18469   0.13218   0.19974   0.00000  Uiso   1.00
O560   O     0.10731   0.34005   0.68043   0.00000  Uiso   1.00
O561   O     0.39413   0.15881   0.31981   0.00000  Uiso   1.00
O562   O     0.18501   0.13257   0.79958   0.00000  Uiso   1.00
O563   O     0.31513   0.36756   0.20027   0.00000  Uiso   1.00
O564   O     0.36744   0.31290   0.20419   0.00000  Uiso   1.00
O565   O     0.13203   0.18669   0.79678   0.00000  Uiso   1.00
O566   O     0.33721   0.10909   0.31829   0.00000  Uiso   1.00
O567   O     0.46964   0.25000   0.66245   0.00000  Uiso   1.00
O568   O     0.16177   0.39042   0.68073   0.00000  Uiso   1.00
O569   O     0.13170   0.18632   0.20254   0.00000  Uiso   1.00
O570   O     0.36840   0.31380   0.79749   0.00000  Uiso   1.00
O571   O     0.16260   0.39104   0.31838   0.00000  Uiso   1.00
O572   O     0.33747   0.10888   0.68160   0.00000  Uiso   1.00
O573   O     0.44176   0.28265   0.39884   0.00000  Uiso   1.00
O574   O     0.05825   0.21736   0.60117   0.00000  Uiso   1.00
O575   O     0.21695   0.05786   0.39877   0.00000  Uiso   1.00
O576   O     0.28322   0.44221   0.60125   0.00000  Uiso   1.00
O577   O     0.05816   0.21726   0.39876   0.00000  Uiso   1.00
O578   O     0.25000   0.03037   0.33755   0.00000  Uiso   1.00
O579   O     0.44188   0.28278   0.60124   0.00000  Uiso   1.00
O580   O     0.28305   0.44210   0.39878   0.00000  Uiso   1.00
O581   O     0.21652   0.05760   0.60123   0.00000  Uiso   1.00
O582   O     0.19178   0.03268   0.89883   0.00000  Uiso   1.00
O583   O     0.30824   0.46733   0.10117   0.00000  Uiso   1.00
O584   O     0.46697   0.30787   0.89877   0.00000  Uiso   1.00
O585   O     0.03319   0.19219   0.10124   0.00000  Uiso   1.00
O586   O     0.30813   0.46721   0.89876   0.00000  Uiso   1.00
O587   O     0.19191   0.03282   0.10124   0.00000  Uiso   1.00
O588   O     0.03303   0.19209   0.89878   0.00000  Uiso   1.00
Zn589  Zn    0.20660   0.00000   0.21735   0.00000  Uiso   1.00
Zn590  Zn    0.04341   0.25000   0.28265   0.00000  Uiso   1.00
Zn591  Zn    0.25000   0.45659   0.71735   0.00000  Uiso   1.00
Zn592  Zn    0.25000   0.04341   0.28265   0.00000  Uiso   1.00
Zn593  Zn    0.04341   0.25000   0.71735   0.00000  Uiso   1.00
Zn594  Zn    0.45660   0.25000   0.28265   0.00000  Uiso   1.00
Zn595  Zn    0.25000   0.04341   0.71735   0.00000  Uiso   1.00
Zn596  Zn    0.25000   0.45659   0.28265   0.00000  Uiso   1.00
Zn597  Zn    0.29341  -0.00000   0.78265   0.00000  Uiso   1.00
Zn598  Zn    0.00000   0.20660   0.21735   0.00000  Uiso   1.00
Zn599  Zn    0.00000   0.29340   0.78265   0.00000  Uiso   1.00
Zn600  Zn    0.29341   0.00000   0.21735   0.00000  Uiso   1.00
Zn601  Zn    0.20660  -0.00000   0.78265   0.00000  Uiso   1.00
Zn602  Zn    0.00000   0.29341   0.21735   0.00000  Uiso   1.00
Zn603  Zn    0.00000   0.20659   0.78265   0.00000  Uiso   1.00
Zn604  Zn    0.45660   0.25000   0.71735   0.00000  Uiso   1.00
C605   C     0.97062   0.26644   0.41867   0.00000  Uiso   1.00
C606   C     0.77938   0.48352   0.08133   0.00000  Uiso   1.00
C607   C     0.73434   0.02972   0.54075   0.00000  Uiso   1.00
C608   C     0.97003   0.26533   0.45928   0.00000  Uiso   1.00
C609   C     0.52998   0.23464   0.54072   0.00000  Uiso   1.00
C610   C     0.73438   0.02973   0.45924   0.00000  Uiso   1.00
C611   C     0.76575   0.47029   0.54077   0.00000  Uiso   1.00
C612   C     0.77993   0.48459   0.95923   0.00000  Uiso   1.00
C613   C     0.72008   0.01538   0.04077   0.00000  Uiso   1.00
C614   C     0.51568   0.22026   0.95925   0.00000  Uiso   1.00
C615   C     0.98434   0.27972   0.04075   0.00000  Uiso   1.00
C616   C     0.72004   0.01535   0.95928   0.00000  Uiso   1.00
C617   C     0.98330   0.27915   0.91863   0.00000  Uiso   1.00
C618   C     0.77997   0.48462   0.04072   0.00000  Uiso   1.00
C619   C     0.98439   0.27974   0.95924   0.00000  Uiso   1.00
C620   C     0.51572   0.22029   0.04077   0.00000  Uiso   1.00
C621   C     0.59751   0.34870   0.25016   0.00000  Uiso   1.00
C622   C     0.90250   0.15129   0.74983   0.00000  Uiso   1.00
C623   C     0.65217   0.09821   0.24965   0.00000  Uiso   1.00
C624   C     0.84789   0.40184   0.75031   0.00000  Uiso   1.00
C625   C     0.90228   0.15164   0.24994   0.00000  Uiso   1.00
C626   C     0.59778   0.34849   0.74987   0.00000  Uiso   1.00
C627   C     0.84788   0.40186   0.24967   0.00000  Uiso   1.00
C628   C     0.51680   0.22088   0.08137   0.00000  Uiso   1.00
C629   C     0.65212   0.09822   0.75040   0.00000  Uiso   1.00
C630   C     0.59787   0.15186   0.74967   0.00000  Uiso   1.00
C631   C     0.90212   0.34822   0.25041   0.00000  Uiso   1.00
C632   C     0.65227   0.40165   0.74994   0.00000  Uiso   1.00
C633   C     0.84779   0.09848   0.24987   0.00000  Uiso   1.00
C634   C     0.90219   0.34823   0.74962   0.00000  Uiso   1.00
C635   C     0.59788   0.15182   0.25032   0.00000  Uiso   1.00
C636   C     0.84752   0.09870   0.75016   0.00000  Uiso   1.00
C637   C     0.65249   0.40129   0.24983   0.00000  Uiso   1.00
C638   C     0.99999   0.24998   0.47959   0.00000  Uiso   1.00
C639   C     0.77931   0.48346   0.91863   0.00000  Uiso   1.00
C640   C     0.50001   0.24999   0.52041   0.00000  Uiso   1.00
C641   C     0.75005   0.00001   0.47958   0.00000  Uiso   1.00
C642   C     0.75006   0.00001   0.52042   0.00000  Uiso   1.00
C643   C     0.74999   0.49998   0.97959   0.00000  Uiso   1.00
C644   C     0.75001   0.49999   0.02041   0.00000  Uiso   1.00
C645   C     0.50004   0.25000   0.97958   0.00000  Uiso   1.00
C646   C     0.50005   0.25001   0.02042   0.00000  Uiso   1.00
C647   C     0.67839   0.39468   0.16601   0.00000  Uiso   1.00
C648   C     0.68540   0.40987   0.12566   0.00000  Uiso   1.00
C649   C     0.82160   0.10533   0.83397   0.00000  Uiso   1.00
C650   C     0.72070   0.01653   0.08136   0.00000  Uiso   1.00
C651   C     0.81458   0.09017   0.87433   0.00000  Uiso   1.00
C652   C     0.53293   0.10579   0.28192   0.00000  Uiso   1.00
C653   C     0.50918   0.08640   0.31169   0.00000  Uiso   1.00
C654   C     0.96738   0.39350   0.71778   0.00000  Uiso   1.00
C655   C     0.99124   0.41294   0.68812   0.00000  Uiso   1.00
C656   C     0.82477   0.10474   0.16431   0.00000  Uiso   1.00
C657   C     0.81787   0.08697   0.12519   0.00000  Uiso   1.00
C658   C     0.67789   0.39488   0.83396   0.00000  Uiso   1.00
C659   C     0.68470   0.41004   0.87432   0.00000  Uiso   1.00
C660   C     0.96738   0.39442   0.28097   0.00000  Uiso   1.00
C661   C     0.51672   0.22082   0.91864   0.00000  Uiso   1.00
C662   C     0.99119   0.41420   0.31030   0.00000  Uiso   1.00
C663   C     0.53236   0.10657   0.71871   0.00000  Uiso   1.00
C664   C     0.50876   0.08622   0.68962   0.00000  Uiso   1.00
C665   C     0.60015   0.03455   0.72506   0.00000  Uiso   1.00
C666   C     0.61294   0.49811   0.70886   0.00000  Uiso   1.00
C667   C     0.89868   0.46585   0.27655   0.00000  Uiso   1.00
C668   C     0.88507   0.00174   0.29351   0.00000  Uiso   1.00
C669   C     0.60740   0.33665   0.84408   0.00000  Uiso   1.00
C670   C     0.58186   0.30908   0.86279   0.00000  Uiso   1.00
C671   C     0.89890   0.17272   0.16256   0.00000  Uiso   1.00
C672   C     0.98319   0.27909   0.08136   0.00000  Uiso   1.00
C673   C     0.90465   0.16952   0.11907   0.00000  Uiso   1.00
C674   C     0.89896   0.46548   0.72272   0.00000  Uiso   1.00
C675   C     0.88580   0.00151   0.70568   0.00000  Uiso   1.00
C676   C     0.60158   0.03443   0.27755   0.00000  Uiso   1.00
C677   C     0.61575   0.49864   0.29425   0.00000  Uiso   1.00
C678   C     0.89232   0.16327   0.84427   0.00000  Uiso   1.00
C679   C     0.91780   0.19073   0.86315   0.00000  Uiso   1.00
C680   C     0.60771   0.33668   0.15575   0.00000  Uiso   1.00
C681   C     0.58224   0.30919   0.13691   0.00000  Uiso   1.00
C682   C     0.92842   0.14466   0.66602   0.00000  Uiso   1.00
C683   C     0.99997   0.24996   0.39836   0.00000  Uiso   1.00
C684   C     0.93542   0.15982   0.62566   0.00000  Uiso   1.00
C685   C     0.57160   0.35534   0.33397   0.00000  Uiso   1.00
C686   C     0.56459   0.34018   0.37434   0.00000  Uiso   1.00
C687   C     0.78302   0.35560   0.78190   0.00000  Uiso   1.00
C688   C     0.75923   0.33643   0.81179   0.00000  Uiso   1.00
C689   C     0.71719   0.14406   0.21798   0.00000  Uiso   1.00
C690   C     0.74118   0.16306   0.18813   0.00000  Uiso   1.00
C691   C     0.57473   0.35475   0.66431   0.00000  Uiso   1.00
C692   C     0.56784   0.33700   0.62519   0.00000  Uiso   1.00
C693   C     0.92792   0.14485   0.33395   0.00000  Uiso   1.00
C694   C     0.50004   0.25002   0.60164   0.00000  Uiso   1.00
C695   C     0.93476   0.16002   0.37430   0.00000  Uiso   1.00
C696   C     0.71737   0.14442   0.78097   0.00000  Uiso   1.00
C697   C     0.74118   0.16419   0.81032   0.00000  Uiso   1.00
C698   C     0.78235   0.35660   0.21870   0.00000  Uiso   1.00
C699   C     0.75876   0.33625   0.18960   0.00000  Uiso   1.00
C700   C     0.85014   0.28456   0.22506   0.00000  Uiso   1.00
C701   C     0.86289   0.24811   0.20883   0.00000  Uiso   1.00
C702   C     0.64867   0.21585   0.77658   0.00000  Uiso   1.00
C703   C     0.63500   0.25173   0.79351   0.00000  Uiso   1.00
C704   C     0.85741   0.08665   0.34409   0.00000  Uiso   1.00
C705   C     0.75000   0.49998   0.39834   0.00000  Uiso   1.00
C706   C     0.83187   0.05908   0.36280   0.00000  Uiso   1.00
C707   C     0.64890   0.42272   0.66255   0.00000  Uiso   1.00
C708   C     0.65480   0.41956   0.61907   0.00000  Uiso   1.00
C709   C     0.64859   0.21555   0.22230   0.00000  Uiso   1.00
C710   C     0.63445   0.25137   0.20564   0.00000  Uiso   1.00
C711   C     0.85173   0.28442   0.77775   0.00000  Uiso   1.00
C712   C     0.86633   0.24872   0.79429   0.00000  Uiso   1.00
C713   C     0.64229   0.41332   0.34424   0.00000  Uiso   1.00
C714   C     0.66777   0.44079   0.36310   0.00000  Uiso   1.00
C715   C     0.85781   0.08652   0.65583   0.00000  Uiso   1.00
C716   C     0.52939   0.23354   0.58133   0.00000  Uiso   1.00
C717   C     0.75001  -0.00000   0.60166   0.00000  Uiso   1.00
C718   C     0.83236   0.05898   0.63705   0.00000  Uiso   1.00
C719   C     0.94985   0.31996   0.39286   0.00000  Uiso   1.00
C720   C     0.91560   0.33947   0.37824   0.00000  Uiso   1.00
C721   C     0.55021   0.18004   0.60714   0.00000  Uiso   1.00
C722   C     0.58451   0.16053   0.62162   0.00000  Uiso   1.00
C723   C     0.67962   0.04957   0.39260   0.00000  Uiso   1.00
C724   C     0.66001   0.08346   0.37735   0.00000  Uiso   1.00
C725   C     0.82054   0.45057   0.60742   0.00000  Uiso   1.00
C726   C     0.84021   0.41672   0.62267   0.00000  Uiso   1.00
C727   C     0.55010   0.17993   0.39296   0.00000  Uiso   1.00
C728   C     0.74997   0.49996   0.89836   0.00000  Uiso   1.00
C729   C     0.58448   0.16033   0.37877   0.00000  Uiso   1.00
C730   C     0.94996   0.32012   0.60692   0.00000  Uiso   1.00
C731   C     0.91561   0.33976   0.62113   0.00000  Uiso   1.00
C732   C     0.82037   0.45039   0.39244   0.00000  Uiso   1.00
C733   C     0.83990   0.41659   0.37687   0.00000  Uiso   1.00
C734   C     0.67925   0.04892   0.60732   0.00000  Uiso   1.00
C735   C     0.65949   0.08222   0.62373   0.00000  Uiso   1.00
C736   C     0.69989   0.06998   0.89285   0.00000  Uiso   1.00
C737   C     0.66564   0.08953   0.87828   0.00000  Uiso   1.00
C738   C     0.80017   0.43001   0.10714   0.00000  Uiso   1.00
C739   C     0.75004   0.00002   0.10164   0.00000  Uiso   1.00
C740   C     0.83447   0.41048   0.12159   0.00000  Uiso   1.00
C741   C     0.92962   0.29960   0.89261   0.00000  Uiso   1.00
C742   C     0.91002   0.33350   0.87742   0.00000  Uiso   1.00
C743   C     0.57052   0.20052   0.10738   0.00000  Uiso   1.00
C744   C     0.59018   0.16664   0.12254   0.00000  Uiso   1.00
C745   C     0.80003   0.42989   0.89294   0.00000  Uiso   1.00
C746   C     0.83440   0.41024   0.87883   0.00000  Uiso   1.00
C747   C     0.70001   0.07015   0.10693   0.00000  Uiso   1.00
C748   C     0.66569   0.08981   0.12119   0.00000  Uiso   1.00
C749   C     0.57036   0.20037   0.89244   0.00000  Uiso   1.00
C750   C     0.50000   0.24998   0.89834   0.00000  Uiso   1.00
C751   C     0.58987   0.16657   0.87687   0.00000  Uiso   1.00
C752   C     0.92926   0.29895   0.10732   0.00000  Uiso   1.00
C753   C     0.90952   0.33225   0.12375   0.00000  Uiso   1.00
C754   C     0.50000   0.25000   0.10166   0.00000  Uiso   1.00
C755   C     0.55989   0.22020   0.47984   0.00000  Uiso   1.00
C756   C     0.94012   0.27977   0.52016   0.00000  Uiso   1.00
C757   C     0.78047   0.44057   0.47991   0.00000  Uiso   1.00
C758   C     0.71958   0.05941   0.52010   0.00000  Uiso   1.00
C759   C     0.94010   0.27976   0.47994   0.00000  Uiso   1.00
C760   C     0.73330   0.02914   0.41863   0.00000  Uiso   1.00
C761   C     0.55990   0.22021   0.52006   0.00000  Uiso   1.00
C762   C     0.71962   0.05943   0.47987   0.00000  Uiso   1.00
C763   C     0.78050   0.44059   0.52014   0.00000  Uiso   1.00
C764   C     0.80986   0.47015   0.97984   0.00000  Uiso   1.00
C765   C     0.69014   0.02982   0.02016   0.00000  Uiso   1.00
C766   C     0.53043   0.19056   0.97991   0.00000  Uiso   1.00
C767   C     0.96960   0.30942   0.02010   0.00000  Uiso   1.00
C768   C     0.69012   0.02980   0.97994   0.00000  Uiso   1.00
C769   C     0.80988   0.47017   0.02006   0.00000  Uiso   1.00
C770   C     0.96964   0.30944   0.97987   0.00000  Uiso   1.00
C771   C     0.76683   0.47089   0.58138   0.00000  Uiso   1.00
C772   C     0.53046   0.19058   0.02014   0.00000  Uiso   1.00
C773   C     0.75000   0.49999   0.35592   0.00000  Uiso   1.00
C774   C     0.74996   0.00000   0.64408   0.00000  Uiso   1.00
C775   C     0.99999   0.24999   0.35596   0.00000  Uiso   1.00
C776   C     0.50002   0.25001   0.64404   0.00000  Uiso   1.00
C777   C     0.99999   0.24999   0.85592   0.00000  Uiso   1.00
C778   C     0.99996   0.25000   0.14408   0.00000  Uiso   1.00
C779   C     0.74999   0.49999   0.85595   0.00000  Uiso   1.00
C780   C     0.75002   0.00001   0.14404   0.00000  Uiso   1.00
C781   C     0.68020   0.07013   0.24970   0.00000  Uiso   1.00
C782   C     0.52933   0.23348   0.41863   0.00000  Uiso   1.00
C783   C     0.81983   0.42989   0.75028   0.00000  Uiso   1.00
C784   C     0.92989   0.18009   0.24978   0.00000  Uiso   1.00
C785   C     0.57012   0.31997   0.75015   0.00000  Uiso   1.00
C786   C     0.81984   0.42990   0.24974   0.00000  Uiso   1.00
C787   C     0.68017   0.07014   0.75031   0.00000  Uiso   1.00
C788   C     0.57010   0.31997   0.24978   0.00000  Uiso   1.00
C789   C     0.92990   0.18003   0.75022   0.00000  Uiso   1.00
C790   C     0.67989   0.43009   0.74978   0.00000  Uiso   1.00
C791   C     0.82012   0.06997   0.25015   0.00000  Uiso   1.00
C792   C     0.93021   0.32014   0.74969   0.00000  Uiso   1.00
C793   C     0.97069   0.26651   0.58136   0.00000  Uiso   1.00
C794   C     0.56982   0.17989   0.25028   0.00000  Uiso   1.00
C795   C     0.82011   0.06997   0.74977   0.00000  Uiso   1.00
C796   C     0.67990   0.43003   0.25022   0.00000  Uiso   1.00
C797   C     0.56984   0.17990   0.74973   0.00000  Uiso   1.00
C798   C     0.93017   0.32014   0.25031   0.00000  Uiso   1.00
C799   C     0.63559   0.39147   0.21463   0.00000  Uiso   1.00
C800   C     0.86442   0.10853   0.78536   0.00000  Uiso   1.00
C801   C     0.59362   0.12051   0.27351   0.00000  Uiso   1.00
C802   C     0.90646   0.37956   0.72642   0.00000  Uiso   1.00
C803   C     0.86522   0.10791   0.21482   0.00000  Uiso   1.00
C804   C     0.76674   0.47083   0.41864   0.00000  Uiso   1.00
C805   C     0.63532   0.39175   0.78518   0.00000  Uiso   1.00
C806   C     0.90661   0.37976   0.27314   0.00000  Uiso   1.00
C807   C     0.59338   0.12034   0.72691   0.00000  Uiso   1.00
C808   C     0.62060   0.09331   0.72763   0.00000  Uiso   1.00
C809   C     0.87930   0.40671   0.27262   0.00000  Uiso   1.00
C810   C     0.60725   0.36587   0.78488   0.00000  Uiso   1.00
C811   C     0.89266   0.13426   0.21486   0.00000  Uiso   1.00
C812   C     0.87915   0.40653   0.72701   0.00000  Uiso   1.00
C813   C     0.62093   0.09356   0.27299   0.00000  Uiso   1.00
C814   C     0.89263   0.13425   0.78497   0.00000  Uiso   1.00
C815   C     0.73318   0.02909   0.58136   0.00000  Uiso   1.00
C816   C     0.60738   0.36574   0.21502   0.00000  Uiso   1.00
C817   C     0.88560   0.14146   0.71463   0.00000  Uiso   1.00
C818   C     0.61442   0.35853   0.28536   0.00000  Uiso   1.00
C819   C     0.84364   0.37052   0.77349   0.00000  Uiso   1.00
C820   C     0.65644   0.12953   0.22646   0.00000  Uiso   1.00
C821   C     0.61520   0.35793   0.71481   0.00000  Uiso   1.00
C822   C     0.88534   0.14174   0.28519   0.00000  Uiso   1.00
C823   C     0.65661   0.12975   0.77314   0.00000  Uiso   1.00
C824   C     0.84338   0.37034   0.22692   0.00000  Uiso   1.00
C825   C     0.87060   0.34332   0.22764   0.00000  Uiso   1.00
C826   C     0.72063   0.01646   0.91867   0.00000  Uiso   1.00
C827   C     0.62929   0.15670   0.77263   0.00000  Uiso   1.00
C828   C     0.85726   0.11586   0.28488   0.00000  Uiso   1.00
C829   C     0.64264   0.38428   0.71486   0.00000  Uiso   1.00
C830   C     0.62911   0.15647   0.22697   0.00000  Uiso   1.00
C831   C     0.87097   0.34360   0.77299   0.00000  Uiso   1.00
C832   C     0.64263   0.38426   0.28497   0.00000  Uiso   1.00
C833   C     0.85740   0.11572   0.71502   0.00000  Uiso   1.00
C834   C     0.52994   0.23461   0.45923   0.00000  Uiso   1.00
C835   C     0.97006   0.26536   0.54077   0.00000  Uiso   1.00
C836   C     0.76570   0.47026   0.45925   0.00000  Uiso   1.00
H837   H     0.58343   0.20865   0.46498   0.00000  Uiso   1.00
H838   H     0.66661   0.04138   0.03502   0.00000  Uiso   1.00
H839   H     0.96210   0.14940   0.61455   0.00000  Uiso   1.00
H840   H     0.91330   0.15122   0.60562   0.00000  Uiso   1.00
H841   H     0.54836   0.34700   0.31530   0.00000  Uiso   1.00
H842   H     0.57154   0.38569   0.33569   0.00000  Uiso   1.00
H843   H     0.53791   0.35062   0.38544   0.00000  Uiso   1.00
H844   H     0.56374   0.30987   0.37341   0.00000  Uiso   1.00
H845   H     0.58671   0.34876   0.39437   0.00000  Uiso   1.00
H846   H     0.78839   0.33624   0.75756   0.00000  Uiso   1.00
H847   H     0.76710   0.37928   0.77075   0.00000  Uiso   1.00
H848   H     0.75281   0.35539   0.83601   0.00000  Uiso   1.00
H849   H     0.54220   0.16718   0.96508   0.00000  Uiso   1.00
H850   H     0.73318   0.32754   0.79819   0.00000  Uiso   1.00
H851   H     0.77380   0.31211   0.82355   0.00000  Uiso   1.00
H852   H     0.73291   0.12019   0.22900   0.00000  Uiso   1.00
H853   H     0.71203   0.16338   0.24239   0.00000  Uiso   1.00
H854   H     0.76734   0.17162   0.20173   0.00000  Uiso   1.00
H855   H     0.74739   0.14411   0.16383   0.00000  Uiso   1.00
H856   H     0.72685   0.18758   0.17648   0.00000  Uiso   1.00
H857   H     0.57678   0.38472   0.65980   0.00000  Uiso   1.00
H858   H     0.55060   0.34929   0.68308   0.00000  Uiso   1.00
H859   H     0.56574   0.30692   0.62855   0.00000  Uiso   1.00
H860   H     0.95778   0.33278   0.03494   0.00000  Uiso   1.00
H861   H     0.54183   0.34765   0.61268   0.00000  Uiso   1.00
H862   H     0.59071   0.34323   0.60503   0.00000  Uiso   1.00
H863   H     0.95129   0.15310   0.31535   0.00000  Uiso   1.00
H864   H     0.92790   0.11450   0.33573   0.00000  Uiso   1.00
H865   H     0.91254   0.15147   0.39429   0.00000  Uiso   1.00
H866   H     0.96138   0.14957   0.38551   0.00000  Uiso   1.00
H867   H     0.93564   0.19033   0.37331   0.00000  Uiso   1.00
H868   H     0.71205   0.16325   0.75613   0.00000  Uiso   1.00
H869   H     0.73328   0.12048   0.77044   0.00000  Uiso   1.00
H870   H     0.72668   0.18882   0.82143   0.00000  Uiso   1.00
H871   H     0.66658   0.04136   0.96512   0.00000  Uiso   1.00
H872   H     0.74749   0.14577   0.83506   0.00000  Uiso   1.00
H873   H     0.76728   0.17268   0.79648   0.00000  Uiso   1.00
H874   H     0.76654   0.38101   0.22811   0.00000  Uiso   1.00
H875   H     0.78707   0.33848   0.24425   0.00000  Uiso   1.00
H876   H     0.73246   0.32824   0.20336   0.00000  Uiso   1.00
H877   H     0.75282   0.35410   0.16431   0.00000  Uiso   1.00
H878   H     0.77322   0.31129   0.17931   0.00000  Uiso   1.00
H879   H     0.82002   0.28659   0.22135   0.00000  Uiso   1.00
H880   H     0.85640   0.28472   0.25671   0.00000  Uiso   1.00
H881   H     0.85558   0.24623   0.17768   0.00000  Uiso   1.00
H882   H     0.83342   0.45861   0.03488   0.00000  Uiso   1.00
H883   H     0.89310   0.24571   0.21195   0.00000  Uiso   1.00
H884   H     0.84967   0.22536   0.22483   0.00000  Uiso   1.00
H885   H     0.64261   0.21611   0.74489   0.00000  Uiso   1.00
H886   H     0.67882   0.21445   0.78043   0.00000  Uiso   1.00
H887   H     0.64790   0.27499   0.77808   0.00000  Uiso   1.00
H888   H     0.60477   0.25374   0.79028   0.00000  Uiso   1.00
H889   H     0.64210   0.25317   0.82475   0.00000  Uiso   1.00
H890   H     0.86893   0.10396   0.36742   0.00000  Uiso   1.00
H891   H     0.88024   0.07114   0.33005   0.00000  Uiso   1.00
H892   H     0.80846   0.07335   0.37698   0.00000  Uiso   1.00
H893   H     0.95785   0.33281   0.96503   0.00000  Uiso   1.00
H894   H     0.82133   0.04012   0.34047   0.00000  Uiso   1.00
H895   H     0.84701   0.04292   0.38492   0.00000  Uiso   1.00
H896   H     0.66489   0.44649   0.67278   0.00000  Uiso   1.00
H897   H     0.61927   0.42836   0.66786   0.00000  Uiso   1.00
H898   H     0.63906   0.39612   0.60750   0.00000  Uiso   1.00
H899   H     0.64532   0.44503   0.60457   0.00000  Uiso   1.00
H900   H     0.68441   0.41540   0.61269   0.00000  Uiso   1.00
H901   H     0.67867   0.21426   0.21770   0.00000  Uiso   1.00
H902   H     0.64315   0.21579   0.25413   0.00000  Uiso   1.00
H903   H     0.64097   0.25286   0.17425   0.00000  Uiso   1.00
H904   H     0.54226   0.16721   0.03498   0.00000  Uiso   1.00
H905   H     0.60427   0.25325   0.20955   0.00000  Uiso   1.00
H906   H     0.64751   0.27468   0.22077   0.00000  Uiso   1.00
H907   H     0.85700   0.28428   0.74588   0.00000  Uiso   1.00
H908   H     0.82167   0.28538   0.78251   0.00000  Uiso   1.00
H909   H     0.85349   0.22530   0.77915   0.00000  Uiso   1.00
H910   H     0.89652   0.24719   0.79029   0.00000  Uiso   1.00
H911   H     0.85992   0.24710   0.82569   0.00000  Uiso   1.00
H912   H     0.63070   0.39588   0.36747   0.00000  Uiso   1.00
H913   H     0.61951   0.42888   0.33021   0.00000  Uiso   1.00
H914   H     0.69105   0.42645   0.37739   0.00000  Uiso   1.00
H915   H     0.67845   0.36433   0.16426   0.00000  Uiso   1.00
H916   H     0.67852   0.45977   0.34084   0.00000  Uiso   1.00
H917   H     0.65252   0.45694   0.38516   0.00000  Uiso   1.00
H918   H     0.88059   0.07102   0.66993   0.00000  Uiso   1.00
H919   H     0.86942   0.10389   0.63255   0.00000  Uiso   1.00
H920   H     0.84763   0.04277   0.61507   0.00000  Uiso   1.00
H921   H     0.82160   0.04006   0.65937   0.00000  Uiso   1.00
H922   H     0.80908   0.07327   0.62269   0.00000  Uiso   1.00
H923   H     0.97191   0.32292   0.37079   0.00000  Uiso   1.00
H924   H     0.95854   0.33365   0.42018   0.00000  Uiso   1.00
H925   H     0.89296   0.33644   0.39952   0.00000  Uiso   1.00
H926   H     0.70164   0.40301   0.18468   0.00000  Uiso   1.00
H927   H     0.92131   0.36902   0.37440   0.00000  Uiso   1.00
H928   H     0.90698   0.32770   0.35007   0.00000  Uiso   1.00
H929   H     0.54143   0.16635   0.57984   0.00000  Uiso   1.00
H930   H     0.52822   0.17705   0.62928   0.00000  Uiso   1.00
H931   H     0.59321   0.17228   0.64978   0.00000  Uiso   1.00
H932   H     0.57884   0.13097   0.62544   0.00000  Uiso   1.00
H933   H     0.60708   0.16361   0.60026   0.00000  Uiso   1.00
H934   H     0.66571   0.04113   0.41994   0.00000  Uiso   1.00
H935   H     0.67691   0.02736   0.37080   0.00000  Uiso   1.00
H936   H     0.67222   0.09196   0.34929   0.00000  Uiso   1.00
H937   H     0.68623   0.44019   0.12661   0.00000  Uiso   1.00
H938   H     0.63049   0.07750   0.37304   0.00000  Uiso   1.00
H939   H     0.66254   0.10619   0.39846   0.00000  Uiso   1.00
H940   H     0.82319   0.47277   0.62923   0.00000  Uiso   1.00
H941   H     0.83444   0.45905   0.58009   0.00000  Uiso   1.00
H942   H     0.83774   0.39399   0.60154   0.00000  Uiso   1.00
H943   H     0.86972   0.42273   0.62699   0.00000  Uiso   1.00
H944   H     0.82800   0.40817   0.65071   0.00000  Uiso   1.00
H945   H     0.52826   0.17692   0.37071   0.00000  Uiso   1.00
H946   H     0.54112   0.16633   0.42026   0.00000  Uiso   1.00
H947   H     0.60689   0.16340   0.40026   0.00000  Uiso   1.00
H948   H     0.91658   0.29132   0.53502   0.00000  Uiso   1.00
H949   H     0.71208   0.39946   0.11455   0.00000  Uiso   1.00
H950   H     0.57877   0.13077   0.37503   0.00000  Uiso   1.00
H951   H     0.59342   0.17200   0.35063   0.00000  Uiso   1.00
H952   H     0.95887   0.33366   0.57955   0.00000  Uiso   1.00
H953   H     0.97186   0.32319   0.62910   0.00000  Uiso   1.00
H954   H     0.90672   0.32814   0.64933   0.00000  Uiso   1.00
H955   H     0.92132   0.36932   0.62478   0.00000  Uiso   1.00
H956   H     0.89315   0.33663   0.59970   0.00000  Uiso   1.00
H957   H     0.83437   0.45864   0.41974   0.00000  Uiso   1.00
H958   H     0.82304   0.47274   0.37075   0.00000  Uiso   1.00
H959   H     0.82760   0.40830   0.34883   0.00000  Uiso   1.00
H960   H     0.66329   0.40129   0.10562   0.00000  Uiso   1.00
H961   H     0.86942   0.42254   0.37244   0.00000  Uiso   1.00
H962   H     0.83741   0.39371   0.39786   0.00000  Uiso   1.00
H963   H     0.67667   0.02601   0.62839   0.00000  Uiso   1.00
H964   H     0.66537   0.04125   0.57976   0.00000  Uiso   1.00
H965   H     0.66174   0.10556   0.60329   0.00000  Uiso   1.00
H966   H     0.63003   0.07595   0.62810   0.00000  Uiso   1.00
H967   H     0.67180   0.09002   0.65192   0.00000  Uiso   1.00
H968   H     0.72192   0.07293   0.87075   0.00000  Uiso   1.00
H969   H     0.70863   0.08367   0.92016   0.00000  Uiso   1.00
H970   H     0.64303   0.08652   0.89960   0.00000  Uiso   1.00
H971   H     0.79836   0.09700   0.81530   0.00000  Uiso   1.00
H972   H     0.67137   0.11907   0.87443   0.00000  Uiso   1.00
H973   H     0.65697   0.07776   0.85013   0.00000  Uiso   1.00
H974   H     0.79137   0.41633   0.07986   0.00000  Uiso   1.00
H975   H     0.77820   0.42704   0.12931   0.00000  Uiso   1.00
H976   H     0.84321   0.42222   0.14974   0.00000  Uiso   1.00
H977   H     0.82879   0.38093   0.12542   0.00000  Uiso   1.00
H978   H     0.85703   0.41354   0.10022   0.00000  Uiso   1.00
H979   H     0.91572   0.29112   0.91994   0.00000  Uiso   1.00
H980   H     0.92691   0.27741   0.87078   0.00000  Uiso   1.00
H981   H     0.92221   0.34204   0.84937   0.00000  Uiso   1.00
H982   H     0.82155   0.13569   0.83570   0.00000  Uiso   1.00
H983   H     0.88049   0.32757   0.87313   0.00000  Uiso   1.00
H984   H     0.91256   0.35621   0.89857   0.00000  Uiso   1.00
H985   H     0.57320   0.22269   0.12923   0.00000  Uiso   1.00
H986   H     0.58439   0.20904   0.08006   0.00000  Uiso   1.00
H987   H     0.58769   0.14395   0.10137   0.00000  Uiso   1.00
H988   H     0.61970   0.17263   0.12684   0.00000  Uiso   1.00
H989   H     0.57801   0.15805   0.15058   0.00000  Uiso   1.00
H990   H     0.77822   0.42691   0.87064   0.00000  Uiso   1.00
H991   H     0.79097   0.41630   0.92022   0.00000  Uiso   1.00
H992   H     0.85677   0.41327   0.90037   0.00000  Uiso   1.00
H993   H     0.78791   0.10061   0.88544   0.00000  Uiso   1.00
H994   H     0.82866   0.38070   0.87506   0.00000  Uiso   1.00
H995   H     0.84343   0.42191   0.85071   0.00000  Uiso   1.00
H996   H     0.70892   0.08369   0.07956   0.00000  Uiso   1.00
H997   H     0.72194   0.07320   0.12909   0.00000  Uiso   1.00
H998   H     0.65681   0.07817   0.14937   0.00000  Uiso   1.00
H999   H     0.67143   0.11936   0.12487   0.00000  Uiso   1.00
H1000  H     0.64322   0.08672   0.09977   0.00000  Uiso   1.00
H1001  H     0.58435   0.20860   0.91976   0.00000  Uiso   1.00
H1002  H     0.57303   0.22272   0.87076   0.00000  Uiso   1.00
H1003  H     0.57758   0.15829   0.84882   0.00000  Uiso   1.00
H1004  H     0.81373   0.05985   0.87340   0.00000  Uiso   1.00
H1005  H     0.61939   0.17251   0.87245   0.00000  Uiso   1.00
H1006  H     0.58737   0.14369   0.89785   0.00000  Uiso   1.00
H1007  H     0.92668   0.27603   0.12838   0.00000  Uiso   1.00
H1008  H     0.91538   0.29130   0.07976   0.00000  Uiso   1.00
H1009  H     0.91178   0.35560   0.10332   0.00000  Uiso   1.00
H1010  H     0.88006   0.32599   0.12812   0.00000  Uiso   1.00
H1011  H     0.92183   0.34003   0.15195   0.00000  Uiso   1.00
H1012  H     0.83670   0.09874   0.89437   0.00000  Uiso   1.00
H1013  H     0.53820   0.08665   0.25736   0.00000  Uiso   1.00
H1014  H     0.51702   0.12960   0.27107   0.00000  Uiso   1.00
H1015  H     0.50284   0.10516   0.33611   0.00000  Uiso   1.00
H1016  H     0.79225   0.41720   0.46508   0.00000  Uiso   1.00
H1017  H     0.98309   0.07766   0.29807   0.00000  Uiso   1.00
H1018  H     0.52374   0.06196   0.32318   0.00000  Uiso   1.00
H1019  H     0.98304   0.36930   0.72805   0.00000  Uiso   1.00
H1020  H     0.96258   0.41235   0.74269   0.00000  Uiso   1.00
H1021  H     0.51755   0.42111   0.70168   0.00000  Uiso   1.00
H1022  H     0.99717   0.39442   0.66339   0.00000  Uiso   1.00
H1023  H     0.97696   0.43774   0.67710   0.00000  Uiso   1.00
H1024  H     0.82685   0.13471   0.15977   0.00000  Uiso   1.00
H1025  H     0.80063   0.09932   0.18308   0.00000  Uiso   1.00
H1026  H     0.81572   0.05690   0.12859   0.00000  Uiso   1.00
H1027  H     0.70776   0.08276   0.53494   0.00000  Uiso   1.00
H1028  H     0.79188   0.09765   0.11266   0.00000  Uiso   1.00
H1029  H     0.84076   0.09314   0.10504   0.00000  Uiso   1.00
H1030  H     0.70127   0.40315   0.81538   0.00000  Uiso   1.00
H1031  H     0.67789   0.36453   0.83574   0.00000  Uiso   1.00
H1032  H     0.66247   0.40148   0.89429   0.00000  Uiso   1.00
H1033  H     0.71132   0.39960   0.88554   0.00000  Uiso   1.00
H1034  H     0.68558   0.44036   0.87334   0.00000  Uiso   1.00
H1035  H     0.96206   0.41324   0.25612   0.00000  Uiso   1.00
H1036  H     0.98329   0.37047   0.27044   0.00000  Uiso   1.00
H1037  H     0.97669   0.43883   0.32141   0.00000  Uiso   1.00
H1038  H     0.91655   0.29130   0.46512   0.00000  Uiso   1.00
H1039  H     0.99750   0.39579   0.33504   0.00000  Uiso   1.00
H1040  H     0.51729   0.42269   0.29646   0.00000  Uiso   1.00
H1041  H     0.51654   0.13098   0.72814   0.00000  Uiso   1.00
H1042  H     0.53709   0.08845   0.74426   0.00000  Uiso   1.00
H1043  H     0.52323   0.06127   0.67932   0.00000  Uiso   1.00
H1044  H     0.98247   0.07820   0.70338   0.00000  Uiso   1.00
H1045  H     0.50280   0.10409   0.66434   0.00000  Uiso   1.00
H1046  H     0.57003   0.03657   0.72131   0.00000  Uiso   1.00
H1047  H     0.60638   0.03473   0.75671   0.00000  Uiso   1.00
H1048  H     0.60569   0.49622   0.67769   0.00000  Uiso   1.00
H1049  H     0.58346   0.20867   0.53488   0.00000  Uiso   1.00
H1050  H     0.64314   0.49572   0.71204   0.00000  Uiso   1.00
H1051  H     0.59970   0.47537   0.72484   0.00000  Uiso   1.00
H1052  H     0.89259   0.46612   0.24488   0.00000  Uiso   1.00
H1053  H     0.92884   0.46442   0.28038   0.00000  Uiso   1.00
H1054  H     0.89795   0.02500   0.27805   0.00000  Uiso   1.00
H1055  H     0.85483   0.00377   0.29032   0.00000  Uiso   1.00
H1056  H     0.89220   0.00318   0.32473   0.00000  Uiso   1.00
H1057  H     0.61893   0.35396   0.86741   0.00000  Uiso   1.00
H1058  H     0.63024   0.32115   0.83004   0.00000  Uiso   1.00
H1059  H     0.55846   0.32334   0.87697   0.00000  Uiso   1.00
H1060  H     0.70782   0.08280   0.46503   0.00000  Uiso   1.00
H1061  H     0.57132   0.29012   0.84045   0.00000  Uiso   1.00
H1062  H     0.59701   0.29292   0.88490   0.00000  Uiso   1.00
H1063  H     0.91496   0.19647   0.17271   0.00000  Uiso   1.00
H1064  H     0.86930   0.17842   0.16797   0.00000  Uiso   1.00
H1065  H     0.88880   0.14612   0.10757   0.00000  Uiso   1.00
H1066  H     0.89521   0.19501   0.10458   0.00000  Uiso   1.00
H1067  H     0.93422   0.16526   0.11258   0.00000  Uiso   1.00
H1068  H     0.92909   0.46360   0.71874   0.00000  Uiso   1.00
H1069  H     0.89293   0.46594   0.75443   0.00000  Uiso   1.00
H1070  H     0.89275   0.00273   0.67438   0.00000  Uiso   1.00
H1071  H     0.79231   0.41724   0.53498   0.00000  Uiso   1.00
H1072  H     0.85561   0.00403   0.70916   0.00000  Uiso   1.00
H1073  H     0.89915   0.02461   0.72087   0.00000  Uiso   1.00
H1074  H     0.60714   0.03420   0.24574   0.00000  Uiso   1.00
H1075  H     0.57148   0.03562   0.28200   0.00000  Uiso   1.00
H1076  H     0.60282   0.47530   0.27906   0.00000  Uiso   1.00
H1077  H     0.64595   0.49685   0.29049   0.00000  Uiso   1.00
H1078  H     0.60911   0.49712   0.32561   0.00000  Uiso   1.00
H1079  H     0.88074   0.14580   0.86749   0.00000  Uiso   1.00
H1080  H     0.86952   0.17884   0.83027   0.00000  Uiso   1.00
H1081  H     0.94109   0.17637   0.87741   0.00000  Uiso   1.00
H1082  H     0.83339   0.45858   0.96497   0.00000  Uiso   1.00
H1083  H     0.92854   0.20973   0.84090   0.00000  Uiso   1.00
H1084  H     0.90256   0.20685   0.88523   0.00000  Uiso   1.00
H1085  H     0.63051   0.32114   0.16977   0.00000  Uiso   1.00
H1086  H     0.61929   0.35412   0.13252   0.00000  Uiso   1.00
H1087  H     0.59750   0.29304   0.11486   0.00000  Uiso   1.00
H1088  H     0.57151   0.29021   0.15918   0.00000  Uiso   1.00
H1089  H     0.55895   0.32352   0.12262   0.00000  Uiso   1.00
H1090  H     0.92848   0.11431   0.66430   0.00000  Uiso   1.00
H1091  H     0.95165   0.15301   0.68469   0.00000  Uiso   1.00
H1092  H     0.93624   0.19014   0.62658   0.00000  Uiso   1.00
O1093  O     0.75000   0.00000   0.25000   0.00000  Uiso   1.00
O1094  O     0.75000   0.46963   0.66245   0.00000  Uiso   1.00
O1095  O     0.96654   0.30762   0.10123   0.00000  Uiso   1.00
O1096  O     0.96964   0.25000   0.33755   0.00000  Uiso   1.00
O1097  O     0.53037   0.25000   0.66245   0.00000  Uiso   1.00
O1098  O     0.50000   0.21963   0.83755   0.00000  Uiso   1.00
O1099  O     0.50000   0.28037   0.16245   0.00000  Uiso   1.00
O1100  O     0.78037   0.00000   0.83755   0.00000  Uiso   1.00
O1101  O     0.71964   0.00000   0.16245   0.00000  Uiso   1.00
O1102  O     0.50000   0.28036   0.83755   0.00000  Uiso   1.00
O1103  O     0.50000   0.21963   0.16245   0.00000  Uiso   1.00
O1104  O     0.71964   0.00000   0.83755   0.00000  Uiso   1.00
O1105  O     0.75000   0.00000   0.75000   0.00000  Uiso   1.00
O1106  O     0.78037   0.00000   0.16245   0.00000  Uiso   1.00
O1107  O     0.70725   0.07308   0.27302   0.00000  Uiso   1.00
O1108  O     0.79276   0.42693   0.72698   0.00000  Uiso   1.00
O1109  O     0.92693   0.20725   0.27302   0.00000  Uiso   1.00
O1110  O     0.57308   0.29275   0.72698   0.00000  Uiso   1.00
O1111  O     0.79276   0.42693   0.27302   0.00000  Uiso   1.00
O1112  O     0.70725   0.07308   0.72698   0.00000  Uiso   1.00
O1113  O     0.57308   0.29275   0.27302   0.00000  Uiso   1.00
O1114  O     0.92693   0.20725   0.72698   0.00000  Uiso   1.00
O1115  O     0.70725   0.42692   0.72698   0.00000  Uiso   1.00
O1116  O     0.50000   0.25000   0.25000   0.00000  Uiso   1.00
O1117  O     0.79276   0.07308   0.27302   0.00000  Uiso   1.00
O1118  O     0.92693   0.29276   0.72698   0.00000  Uiso   1.00
O1119  O     0.57308   0.20724   0.27302   0.00000  Uiso   1.00
O1120  O     0.79276   0.07308   0.72698   0.00000  Uiso   1.00
O1121  O     0.70725   0.42692   0.27302   0.00000  Uiso   1.00
O1122  O     0.57308   0.20724   0.72698   0.00000  Uiso   1.00
O1123  O     0.92693   0.29276   0.27302   0.00000  Uiso   1.00
O1124  O     0.95725   0.32308   0.77302   0.00000  Uiso   1.00
O1125  O     0.54276   0.17692   0.22698   0.00000  Uiso   1.00
O1126  O     0.67693   0.45724   0.77302   0.00000  Uiso   1.00
O1127  O     0.50000   0.25000   0.75000   0.00000  Uiso   1.00
O1128  O     0.82308   0.04276   0.22698   0.00000  Uiso   1.00
O1129  O     0.54276   0.17692   0.77302   0.00000  Uiso   1.00
O1130  O     0.95725   0.32308   0.22698   0.00000  Uiso   1.00
O1131  O     0.82308   0.04276   0.77302   0.00000  Uiso   1.00
O1132  O     0.67693   0.45724   0.22698   0.00000  Uiso   1.00
O1133  O     0.95725   0.17693   0.22698   0.00000  Uiso   1.00
O1134  O     0.54276   0.32307   0.77302   0.00000  Uiso   1.00
O1135  O     0.67693   0.04276   0.22698   0.00000  Uiso   1.00
O1136  O     0.82308   0.45725   0.77302   0.00000  Uiso   1.00
O1137  O     0.54276   0.32307   0.22698   0.00000  Uiso   1.00
O1138  O     0.75000   0.46963   0.33755   0.00000  Uiso   1.00
O1139  O     0.95725   0.17693   0.77302   0.00000  Uiso   1.00
O1140  O     0.82308   0.45725   0.22698   0.00000  Uiso   1.00
O1141  O     0.67693   0.04276   0.77302   0.00000  Uiso   1.00
O1142  O     0.64449   0.40855   0.18000   0.00000  Uiso   1.00
O1143  O     0.85550   0.09146   0.82000   0.00000  Uiso   1.00
O1144  O     0.56535   0.11785   0.30019   0.00000  Uiso   1.00
O1145  O     0.93463   0.38221   0.69960   0.00000  Uiso   1.00
O1146  O     0.85734   0.09002   0.18044   0.00000  Uiso   1.00
O1147  O     0.64410   0.40884   0.81981   0.00000  Uiso   1.00
O1148  O     0.93502   0.38258   0.29958   0.00000  Uiso   1.00
O1149  O     0.75000   0.03037   0.66245   0.00000  Uiso   1.00
O1150  O     0.56513   0.11756   0.70027   0.00000  Uiso   1.00
O1151  O     0.61744   0.06290   0.70418   0.00000  Uiso   1.00
O1152  O     0.88204   0.43671   0.29677   0.00000  Uiso   1.00
O1153  O     0.58720   0.35909   0.81829   0.00000  Uiso   1.00
O1154  O     0.91177   0.14042   0.18073   0.00000  Uiso   1.00
O1155  O     0.88182   0.43651   0.70278   0.00000  Uiso   1.00
O1156  O     0.61831   0.06370   0.29739   0.00000  Uiso   1.00
O1157  O     0.91262   0.14102   0.81837   0.00000  Uiso   1.00
O1158  O     0.58740   0.35895   0.18162   0.00000  Uiso   1.00
O1159  O     0.89451   0.15853   0.67999   0.00000  Uiso   1.00
O1160  O     0.53037   0.25000   0.33755   0.00000  Uiso   1.00
O1161  O     0.60550   0.34146   0.32000   0.00000  Uiso   1.00
O1162  O     0.81536   0.36787   0.80015   0.00000  Uiso   1.00
O1163  O     0.68469   0.13218   0.19974   0.00000  Uiso   1.00
O1164  O     0.60731   0.34005   0.68043   0.00000  Uiso   1.00
O1165  O     0.89413   0.15881   0.31981   0.00000  Uiso   1.00
O1166  O     0.68501   0.13257   0.79958   0.00000  Uiso   1.00
O1167  O     0.81513   0.36756   0.20027   0.00000  Uiso   1.00
O1168  O     0.86744   0.31290   0.20419   0.00000  Uiso   1.00
O1169  O     0.63203   0.18669   0.79678   0.00000  Uiso   1.00
O1170  O     0.83721   0.10909   0.31829   0.00000  Uiso   1.00
O1171  O     0.96964   0.25000   0.66245   0.00000  Uiso   1.00
O1172  O     0.66177   0.39042   0.68073   0.00000  Uiso   1.00
O1173  O     0.63170   0.18632   0.20254   0.00000  Uiso   1.00
O1174  O     0.86840   0.31380   0.79749   0.00000  Uiso   1.00
O1175  O     0.66260   0.39104   0.31838   0.00000  Uiso   1.00
O1176  O     0.83747   0.10888   0.68160   0.00000  Uiso   1.00
O1177  O     0.94176   0.28265   0.39884   0.00000  Uiso   1.00
O1178  O     0.55825   0.21736   0.60117   0.00000  Uiso   1.00
O1179  O     0.71695   0.05786   0.39877   0.00000  Uiso   1.00
O1180  O     0.78322   0.44221   0.60125   0.00000  Uiso   1.00
O1181  O     0.55816   0.21726   0.39876   0.00000  Uiso   1.00
O1182  O     0.75000   0.03037   0.33755   0.00000  Uiso   1.00
O1183  O     0.94188   0.28278   0.60124   0.00000  Uiso   1.00
O1184  O     0.78305   0.44210   0.39878   0.00000  Uiso   1.00
O1185  O     0.71652   0.05760   0.60123   0.00000  Uiso   1.00
O1186  O     0.69178   0.03268   0.89883   0.00000  Uiso   1.00
O1187  O     0.80824   0.46733   0.10117   0.00000  Uiso   1.00
O1188  O     0.96697   0.30787   0.89877   0.00000  Uiso   1.00
O1189  O     0.53319   0.19219   0.10124   0.00000  Uiso   1.00
O1190  O     0.80813   0.46721   0.89876   0.00000  Uiso   1.00
O1191  O     0.69191   0.03282   0.10124   0.00000  Uiso   1.00
O1192  O     0.53303   0.19209   0.89878   0.00000  Uiso   1.00
Zn1193 Zn    0.70660   0.00000   0.21735   0.00000  Uiso   1.00
Zn1194 Zn    0.54341   0.25000   0.28265   0.00000  Uiso   1.00
Zn1195 Zn    0.75000   0.45659   0.71735   0.00000  Uiso   1.00
Zn1196 Zn    0.75000   0.04341   0.28265   0.00000  Uiso   1.00
Zn1197 Zn    0.54341   0.25000   0.71735   0.00000  Uiso   1.00
Zn1198 Zn    0.95660   0.25000   0.28265   0.00000  Uiso   1.00
Zn1199 Zn    0.75000   0.04341   0.71735   0.00000  Uiso   1.00
Zn1200 Zn    0.75000   0.45659   0.28265   0.00000  Uiso   1.00
Zn1201 Zn    0.79341  -0.00000   0.78265   0.00000  Uiso   1.00
Zn1202 Zn    0.50000   0.20660   0.21735   0.00000  Uiso   1.00
Zn1203 Zn    0.50000   0.29340   0.78265   0.00000  Uiso   1.00
Zn1204 Zn    0.79341   0.00000   0.21735   0.00000  Uiso   1.00
Zn1205 Zn    0.70660  -0.00000   0.78265   0.00000  Uiso   1.00
Zn1206 Zn    0.50000   0.29341   0.21735   0.00000  Uiso   1.00
Zn1207 Zn    0.50000   0.20659   0.78265   0.00000  Uiso   1.00
Zn1208 Zn    0.95660   0.25000   0.71735   0.00000  Uiso   1.00
C1209  C     0.47062   0.76644   0.41867   0.00000  Uiso   1.00
C1210  C     0.27938   0.98352   0.08133   0.00000  Uiso   1.00
C1211  C     0.23434   0.52972   0.54075   0.00000  Uiso   1.00
C1212  C     0.47003   0.76533   0.45928   0.00000  Uiso   1.00
C1213  C     0.02998   0.73464   0.54072   0.00000  Uiso   1.00
C1214  C     0.23438   0.52973   0.45924   0.00000  Uiso   1.00
C1215  C     0.26575   0.97029   0.54077   0.00000  Uiso   1.00
C1216  C     0.27993   0.98459   0.95923   0.00000  Uiso   1.00
C1217  C     0.22008   0.51538   0.04077   0.00000  Uiso   1.00
C1218  C     0.01568   0.72026   0.95925   0.00000  Uiso   1.00
C1219  C     0.48434   0.77972   0.04075   0.00000  Uiso   1.00
C1220  C     0.22004   0.51535   0.95928   0.00000  Uiso   1.00
C1221  C     0.48330   0.77915   0.91863   0.00000  Uiso   1.00
C1222  C     0.27997   0.98462   0.04072   0.00000  Uiso   1.00
C1223  C     0.48439   0.77974   0.95924   0.00000  Uiso   1.00
C1224  C     0.01572   0.72029   0.04077   0.00000  Uiso   1.00
C1225  C     0.09751   0.84870   0.25016   0.00000  Uiso   1.00
C1226  C     0.40250   0.65129   0.74983   0.00000  Uiso   1.00
C1227  C     0.15217   0.59821   0.24965   0.00000  Uiso   1.00
C1228  C     0.34789   0.90184   0.75031   0.00000  Uiso   1.00
C1229  C     0.40228   0.65164   0.24994   0.00000  Uiso   1.00
C1230  C     0.09778   0.84849   0.74987   0.00000  Uiso   1.00
C1231  C     0.34788   0.90186   0.24967   0.00000  Uiso   1.00
C1232  C     0.01680   0.72088   0.08137   0.00000  Uiso   1.00
C1233  C     0.15212   0.59822   0.75040   0.00000  Uiso   1.00
C1234  C     0.09787   0.65186   0.74967   0.00000  Uiso   1.00
C1235  C     0.40212   0.84822   0.25041   0.00000  Uiso   1.00
C1236  C     0.15227   0.90165   0.74994   0.00000  Uiso   1.00
C1237  C     0.34779   0.59848   0.24987   0.00000  Uiso   1.00
C1238  C     0.40219   0.84823   0.74962   0.00000  Uiso   1.00
C1239  C     0.09788   0.65182   0.25032   0.00000  Uiso   1.00
C1240  C     0.34752   0.59870   0.75016   0.00000  Uiso   1.00
C1241  C     0.15249   0.90129   0.24983   0.00000  Uiso   1.00
C1242  C     0.49999   0.74998   0.47959   0.00000  Uiso   1.00
C1243  C     0.27931   0.98346   0.91863   0.00000  Uiso   1.00
C1244  C     0.00001   0.74999   0.52041   0.00000  Uiso   1.00
C1245  C     0.25005   0.50001   0.47958   0.00000  Uiso   1.00
C1246  C     0.25006   0.50001   0.52042   0.00000  Uiso   1.00
C1247  C     0.24999   0.99998   0.97959   0.00000  Uiso   1.00
C1248  C     0.25001   0.99999   0.02041   0.00000  Uiso   1.00
C1249  C     0.00004   0.75000   0.97958   0.00000  Uiso   1.00
C1250  C     0.00005   0.75001   0.02042   0.00000  Uiso   1.00
C1251  C     0.17839   0.89468   0.16601   0.00000  Uiso   1.00
C1252  C     0.18540   0.90987   0.12566   0.00000  Uiso   1.00
C1253  C     0.32160   0.60533   0.83397   0.00000  Uiso   1.00
C1254  C     0.22070   0.51653   0.08136   0.00000  Uiso   1.00
C1255  C     0.31458   0.59017   0.87433   0.00000  Uiso   1.00
C1256  C     0.03293   0.60579   0.28192   0.00000  Uiso   1.00
C1257  C     0.00918   0.58640   0.31169   0.00000  Uiso   1.00
C1258  C     0.46738   0.89350   0.71778   0.00000  Uiso   1.00
C1259  C     0.49124   0.91294   0.68812   0.00000  Uiso   1.00
C1260  C     0.32477   0.60474   0.16431   0.00000  Uiso   1.00
C1261  C     0.31787   0.58697   0.12519   0.00000  Uiso   1.00
C1262  C     0.17789   0.89488   0.83396   0.00000  Uiso   1.00
C1263  C     0.18470   0.91004   0.87432   0.00000  Uiso   1.00
C1264  C     0.46738   0.89442   0.28097   0.00000  Uiso   1.00
C1265  C     0.01672   0.72082   0.91864   0.00000  Uiso   1.00
C1266  C     0.49119   0.91420   0.31030   0.00000  Uiso   1.00
C1267  C     0.03236   0.60657   0.71871   0.00000  Uiso   1.00
C1268  C     0.00876   0.58622   0.68962   0.00000  Uiso   1.00
C1269  C     0.10015   0.53455   0.72506   0.00000  Uiso   1.00
C1270  C     0.11294   0.99811   0.70886   0.00000  Uiso   1.00
C1271  C     0.39868   0.96585   0.27655   0.00000  Uiso   1.00
C1272  C     0.38507   0.50174   0.29351   0.00000  Uiso   1.00
C1273  C     0.10740   0.83665   0.84408   0.00000  Uiso   1.00
C1274  C     0.08186   0.80908   0.86279   0.00000  Uiso   1.00
C1275  C     0.39890   0.67272   0.16256   0.00000  Uiso   1.00
C1276  C     0.48319   0.77909   0.08136   0.00000  Uiso   1.00
C1277  C     0.40465   0.66952   0.11907   0.00000  Uiso   1.00
C1278  C     0.39896   0.96548   0.72272   0.00000  Uiso   1.00
C1279  C     0.38580   0.50151   0.70568   0.00000  Uiso   1.00
C1280  C     0.10158   0.53443   0.27755   0.00000  Uiso   1.00
C1281  C     0.11575   0.99864   0.29425   0.00000  Uiso   1.00
C1282  C     0.39232   0.66327   0.84427   0.00000  Uiso   1.00
C1283  C     0.41780   0.69073   0.86315   0.00000  Uiso   1.00
C1284  C     0.10771   0.83668   0.15575   0.00000  Uiso   1.00
C1285  C     0.08224   0.80919   0.13691   0.00000  Uiso   1.00
C1286  C     0.42842   0.64466   0.66602   0.00000  Uiso   1.00
C1287  C     0.49997   0.74996   0.39836   0.00000  Uiso   1.00
C1288  C     0.43542   0.65982   0.62566   0.00000  Uiso   1.00
C1289  C     0.07160   0.85534   0.33397   0.00000  Uiso   1.00
C1290  C     0.06459   0.84018   0.37434   0.00000  Uiso   1.00
C1291  C     0.28302   0.85560   0.78190   0.00000  Uiso   1.00
C1292  C     0.25923   0.83643   0.81179   0.00000  Uiso   1.00
C1293  C     0.21719   0.64406   0.21798   0.00000  Uiso   1.00
C1294  C     0.24118   0.66306   0.18813   0.00000  Uiso   1.00
C1295  C     0.07473   0.85475   0.66431   0.00000  Uiso   1.00
C1296  C     0.06784   0.83700   0.62519   0.00000  Uiso   1.00
C1297  C     0.42792   0.64485   0.33395   0.00000  Uiso   1.00
C1298  C     0.00004   0.75002   0.60164   0.00000  Uiso   1.00
C1299  C     0.43476   0.66002   0.37430   0.00000  Uiso   1.00
C1300  C     0.21737   0.64442   0.78097   0.00000  Uiso   1.00
C1301  C     0.24118   0.66419   0.81032   0.00000  Uiso   1.00
C1302  C     0.28235   0.85660   0.21870   0.00000  Uiso   1.00
C1303  C     0.25876   0.83625   0.18960   0.00000  Uiso   1.00
C1304  C     0.35014   0.78456   0.22506   0.00000  Uiso   1.00
C1305  C     0.36289   0.74811   0.20883   0.00000  Uiso   1.00
C1306  C     0.14867   0.71585   0.77658   0.00000  Uiso   1.00
C1307  C     0.13500   0.75173   0.79351   0.00000  Uiso   1.00
C1308  C     0.35741   0.58665   0.34409   0.00000  Uiso   1.00
C1309  C     0.25000   0.99998   0.39834   0.00000  Uiso   1.00
C1310  C     0.33187   0.55908   0.36280   0.00000  Uiso   1.00
C1311  C     0.14890   0.92272   0.66255   0.00000  Uiso   1.00
C1312  C     0.15480   0.91956   0.61907   0.00000  Uiso   1.00
C1313  C     0.14859   0.71555   0.22230   0.00000  Uiso   1.00
C1314  C     0.13445   0.75137   0.20564   0.00000  Uiso   1.00
C1315  C     0.35173   0.78442   0.77775   0.00000  Uiso   1.00
C1316  C     0.36633   0.74872   0.79429   0.00000  Uiso   1.00
C1317  C     0.14229   0.91332   0.34424   0.00000  Uiso   1.00
C1318  C     0.16777   0.94079   0.36310   0.00000  Uiso   1.00
C1319  C     0.35781   0.58652   0.65583   0.00000  Uiso   1.00
C1320  C     0.02939   0.73354   0.58133   0.00000  Uiso   1.00
C1321  C     0.25001   0.50000   0.60166   0.00000  Uiso   1.00
C1322  C     0.33236   0.55898   0.63705   0.00000  Uiso   1.00
C1323  C     0.44985   0.81996   0.39286   0.00000  Uiso   1.00
C1324  C     0.41560   0.83947   0.37824   0.00000  Uiso   1.00
C1325  C     0.05021   0.68004   0.60714   0.00000  Uiso   1.00
C1326  C     0.08451   0.66053   0.62162   0.00000  Uiso   1.00
C1327  C     0.17962   0.54957   0.39260   0.00000  Uiso   1.00
C1328  C     0.16001   0.58346   0.37735   0.00000  Uiso   1.00
C1329  C     0.32054   0.95057   0.60742   0.00000  Uiso   1.00
C1330  C     0.34021   0.91672   0.62267   0.00000  Uiso   1.00
C1331  C     0.05010   0.67993   0.39296   0.00000  Uiso   1.00
C1332  C     0.24997   0.99996   0.89836   0.00000  Uiso   1.00
C1333  C     0.08448   0.66033   0.37877   0.00000  Uiso   1.00
C1334  C     0.44996   0.82012   0.60692   0.00000  Uiso   1.00
C1335  C     0.41561   0.83976   0.62113   0.00000  Uiso   1.00
C1336  C     0.32037   0.95039   0.39244   0.00000  Uiso   1.00
C1337  C     0.33990   0.91659   0.37687   0.00000  Uiso   1.00
C1338  C     0.17925   0.54892   0.60732   0.00000  Uiso   1.00
C1339  C     0.15949   0.58222   0.62373   0.00000  Uiso   1.00
C1340  C     0.19989   0.56998   0.89285   0.00000  Uiso   1.00
C1341  C     0.16564   0.58953   0.87828   0.00000  Uiso   1.00
C1342  C     0.30017   0.93001   0.10714   0.00000  Uiso   1.00
C1343  C     0.25004   0.50002   0.10164   0.00000  Uiso   1.00
C1344  C     0.33447   0.91048   0.12159   0.00000  Uiso   1.00
C1345  C     0.42962   0.79960   0.89261   0.00000  Uiso   1.00
C1346  C     0.41002   0.83350   0.87742   0.00000  Uiso   1.00
C1347  C     0.07052   0.70052   0.10738   0.00000  Uiso   1.00
C1348  C     0.09018   0.66664   0.12254   0.00000  Uiso   1.00
C1349  C     0.30003   0.92989   0.89294   0.00000  Uiso   1.00
C1350  C     0.33440   0.91024   0.87883   0.00000  Uiso   1.00
C1351  C     0.20001   0.57015   0.10693   0.00000  Uiso   1.00
C1352  C     0.16569   0.58981   0.12119   0.00000  Uiso   1.00
C1353  C     0.07036   0.70037   0.89244   0.00000  Uiso   1.00
C1354  C    -0.00000   0.74998   0.89834   0.00000  Uiso   1.00
C1355  C     0.08987   0.66657   0.87687   0.00000  Uiso   1.00
C1356  C     0.42926   0.79895   0.10732   0.00000  Uiso   1.00
C1357  C     0.40952   0.83225   0.12375   0.00000  Uiso   1.00
C1358  C     0.00000   0.75000   0.10166   0.00000  Uiso   1.00
C1359  C     0.05989   0.72020   0.47984   0.00000  Uiso   1.00
C1360  C     0.44012   0.77977   0.52016   0.00000  Uiso   1.00
C1361  C     0.28047   0.94057   0.47991   0.00000  Uiso   1.00
C1362  C     0.21958   0.55941   0.52010   0.00000  Uiso   1.00
C1363  C     0.44010   0.77976   0.47994   0.00000  Uiso   1.00
C1364  C     0.23330   0.52914   0.41863   0.00000  Uiso   1.00
C1365  C     0.05990   0.72021   0.52006   0.00000  Uiso   1.00
C1366  C     0.21962   0.55943   0.47987   0.00000  Uiso   1.00
C1367  C     0.28050   0.94059   0.52014   0.00000  Uiso   1.00
C1368  C     0.30986   0.97015   0.97984   0.00000  Uiso   1.00
C1369  C     0.19014   0.52982   0.02016   0.00000  Uiso   1.00
C1370  C     0.03043   0.69056   0.97991   0.00000  Uiso   1.00
C1371  C     0.46960   0.80942   0.02010   0.00000  Uiso   1.00
C1372  C     0.19012   0.52980   0.97994   0.00000  Uiso   1.00
C1373  C     0.30988   0.97017   0.02006   0.00000  Uiso   1.00
C1374  C     0.46964   0.80944   0.97987   0.00000  Uiso   1.00
C1375  C     0.26683   0.97089   0.58138   0.00000  Uiso   1.00
C1376  C     0.03046   0.69058   0.02014   0.00000  Uiso   1.00
C1377  C     0.25000   0.99999   0.35592   0.00000  Uiso   1.00
C1378  C     0.24996   0.50000   0.64408   0.00000  Uiso   1.00
C1379  C     0.49999   0.74999   0.35596   0.00000  Uiso   1.00
C1380  C     0.00002   0.75001   0.64404   0.00000  Uiso   1.00
C1381  C     0.49999   0.74999   0.85592   0.00000  Uiso   1.00
C1382  C     0.49996   0.75000   0.14408   0.00000  Uiso   1.00
C1383  C     0.24999   0.99999   0.85595   0.00000  Uiso   1.00
C1384  C     0.25002   0.50001   0.14404   0.00000  Uiso   1.00
C1385  C     0.18020   0.57013   0.24970   0.00000  Uiso   1.00
C1386  C     0.02933   0.73348   0.41863   0.00000  Uiso   1.00
C1387  C     0.31983   0.92989   0.75028   0.00000  Uiso   1.00
C1388  C     0.42989   0.68009   0.24978   0.00000  Uiso   1.00
C1389  C     0.07012   0.81997   0.75015   0.00000  Uiso   1.00
C1390  C     0.31984   0.92990   0.24974   0.00000  Uiso   1.00
C1391  C     0.18017   0.57014   0.75031   0.00000  Uiso   1.00
C1392  C     0.07010   0.81997   0.24978   0.00000  Uiso   1.00
C1393  C     0.42990   0.68003   0.75022   0.00000  Uiso   1.00
C1394  C     0.17989   0.93009   0.74978   0.00000  Uiso   1.00
C1395  C     0.32012   0.56997   0.25015   0.00000  Uiso   1.00
C1396  C     0.43021   0.82014   0.74969   0.00000  Uiso   1.00
C1397  C     0.47069   0.76651   0.58136   0.00000  Uiso   1.00
C1398  C     0.06982   0.67989   0.25028   0.00000  Uiso   1.00
C1399  C     0.32011   0.56997   0.74977   0.00000  Uiso   1.00
C1400  C     0.17990   0.93003   0.25022   0.00000  Uiso   1.00
C1401  C     0.06984   0.67990   0.74973   0.00000  Uiso   1.00
C1402  C     0.43017   0.82014   0.25031   0.00000  Uiso   1.00
C1403  C     0.13559   0.89147   0.21463   0.00000  Uiso   1.00
C1404  C     0.36442   0.60853   0.78536   0.00000  Uiso   1.00
C1405  C     0.09362   0.62051   0.27351   0.00000  Uiso   1.00
C1406  C     0.40646   0.87956   0.72642   0.00000  Uiso   1.00
C1407  C     0.36522   0.60791   0.21482   0.00000  Uiso   1.00
C1408  C     0.26674   0.97083   0.41864   0.00000  Uiso   1.00
C1409  C     0.13532   0.89175   0.78518   0.00000  Uiso   1.00
C1410  C     0.40661   0.87976   0.27314   0.00000  Uiso   1.00
C1411  C     0.09338   0.62034   0.72691   0.00000  Uiso   1.00
C1412  C     0.12060   0.59331   0.72763   0.00000  Uiso   1.00
C1413  C     0.37930   0.90671   0.27262   0.00000  Uiso   1.00
C1414  C     0.10725   0.86587   0.78488   0.00000  Uiso   1.00
C1415  C     0.39266   0.63426   0.21486   0.00000  Uiso   1.00
C1416  C     0.37915   0.90653   0.72701   0.00000  Uiso   1.00
C1417  C     0.12093   0.59356   0.27299   0.00000  Uiso   1.00
C1418  C     0.39263   0.63425   0.78497   0.00000  Uiso   1.00
C1419  C     0.23318   0.52909   0.58136   0.00000  Uiso   1.00
C1420  C     0.10738   0.86574   0.21502   0.00000  Uiso   1.00
C1421  C     0.38560   0.64146   0.71463   0.00000  Uiso   1.00
C1422  C     0.11442   0.85853   0.28536   0.00000  Uiso   1.00
C1423  C     0.34364   0.87052   0.77349   0.00000  Uiso   1.00
C1424  C     0.15644   0.62953   0.22646   0.00000  Uiso   1.00
C1425  C     0.11520   0.85793   0.71481   0.00000  Uiso   1.00
C1426  C     0.38534   0.64174   0.28519   0.00000  Uiso   1.00
C1427  C     0.15661   0.62975   0.77314   0.00000  Uiso   1.00
C1428  C     0.34338   0.87034   0.22692   0.00000  Uiso   1.00
C1429  C     0.37060   0.84332   0.22764   0.00000  Uiso   1.00
C1430  C     0.22063   0.51646   0.91867   0.00000  Uiso   1.00
C1431  C     0.12929   0.65670   0.77263   0.00000  Uiso   1.00
C1432  C     0.35726   0.61586   0.28488   0.00000  Uiso   1.00
C1433  C     0.14264   0.88428   0.71486   0.00000  Uiso   1.00
C1434  C     0.12911   0.65647   0.22697   0.00000  Uiso   1.00
C1435  C     0.37097   0.84360   0.77299   0.00000  Uiso   1.00
C1436  C     0.14263   0.88426   0.28497   0.00000  Uiso   1.00
C1437  C     0.35740   0.61572   0.71502   0.00000  Uiso   1.00
C1438  C     0.02994   0.73461   0.45923   0.00000  Uiso   1.00
C1439  C     0.47006   0.76536   0.54077   0.00000  Uiso   1.00
C1440  C     0.26570   0.97026   0.45925   0.00000  Uiso   1.00
H1441  H     0.08343   0.70865   0.46498   0.00000  Uiso   1.00
H1442  H     0.16661   0.54138   0.03502   0.00000  Uiso   1.00
H1443  H     0.46210   0.64940   0.61455   0.00000  Uiso   1.00
H1444  H     0.41330   0.65122   0.60562   0.00000  Uiso   1.00
H1445  H     0.04836   0.84700   0.31530   0.00000  Uiso   1.00
H1446  H     0.07154   0.88569   0.33569   0.00000  Uiso   1.00
H1447  H     0.03791   0.85062   0.38544   0.00000  Uiso   1.00
H1448  H     0.06374   0.80987   0.37341   0.00000  Uiso   1.00
H1449  H     0.08671   0.84876   0.39437   0.00000  Uiso   1.00
H1450  H     0.28839   0.83624   0.75756   0.00000  Uiso   1.00
H1451  H     0.26710   0.87928   0.77075   0.00000  Uiso   1.00
H1452  H     0.25281   0.85539   0.83601   0.00000  Uiso   1.00
H1453  H     0.04220   0.66718   0.96508   0.00000  Uiso   1.00
H1454  H     0.23318   0.82754   0.79819   0.00000  Uiso   1.00
H1455  H     0.27380   0.81211   0.82355   0.00000  Uiso   1.00
H1456  H     0.23291   0.62019   0.22900   0.00000  Uiso   1.00
H1457  H     0.21203   0.66338   0.24239   0.00000  Uiso   1.00
H1458  H     0.26734   0.67162   0.20173   0.00000  Uiso   1.00
H1459  H     0.24739   0.64411   0.16383   0.00000  Uiso   1.00
H1460  H     0.22685   0.68758   0.17648   0.00000  Uiso   1.00
H1461  H     0.07678   0.88472   0.65980   0.00000  Uiso   1.00
H1462  H     0.05060   0.84929   0.68308   0.00000  Uiso   1.00
H1463  H     0.06574   0.80692   0.62855   0.00000  Uiso   1.00
H1464  H     0.45778   0.83278   0.03494   0.00000  Uiso   1.00
H1465  H     0.04183   0.84765   0.61268   0.00000  Uiso   1.00
H1466  H     0.09071   0.84323   0.60503   0.00000  Uiso   1.00
H1467  H     0.45129   0.65310   0.31535   0.00000  Uiso   1.00
H1468  H     0.42790   0.61450   0.33573   0.00000  Uiso   1.00
H1469  H     0.41254   0.65147   0.39429   0.00000  Uiso   1.00
H1470  H     0.46138   0.64957   0.38551   0.00000  Uiso   1.00
H1471  H     0.43564   0.69033   0.37331   0.00000  Uiso   1.00
H1472  H     0.21205   0.66325   0.75613   0.00000  Uiso   1.00
H1473  H     0.23328   0.62048   0.77044   0.00000  Uiso   1.00
H1474  H     0.22668   0.68882   0.82143   0.00000  Uiso   1.00
H1475  H     0.16658   0.54136   0.96512   0.00000  Uiso   1.00
H1476  H     0.24749   0.64577   0.83506   0.00000  Uiso   1.00
H1477  H     0.26728   0.67268   0.79648   0.00000  Uiso   1.00
H1478  H     0.26654   0.88101   0.22811   0.00000  Uiso   1.00
H1479  H     0.28707   0.83848   0.24425   0.00000  Uiso   1.00
H1480  H     0.23246   0.82824   0.20336   0.00000  Uiso   1.00
H1481  H     0.25282   0.85410   0.16431   0.00000  Uiso   1.00
H1482  H     0.27322   0.81129   0.17931   0.00000  Uiso   1.00
H1483  H     0.32002   0.78659   0.22135   0.00000  Uiso   1.00
H1484  H     0.35640   0.78472   0.25671   0.00000  Uiso   1.00
H1485  H     0.35558   0.74623   0.17768   0.00000  Uiso   1.00
H1486  H     0.33342   0.95861   0.03488   0.00000  Uiso   1.00
H1487  H     0.39310   0.74571   0.21195   0.00000  Uiso   1.00
H1488  H     0.34967   0.72536   0.22483   0.00000  Uiso   1.00
H1489  H     0.14261   0.71611   0.74489   0.00000  Uiso   1.00
H1490  H     0.17882   0.71445   0.78043   0.00000  Uiso   1.00
H1491  H     0.14790   0.77499   0.77808   0.00000  Uiso   1.00
H1492  H     0.10477   0.75374   0.79028   0.00000  Uiso   1.00
H1493  H     0.14210   0.75317   0.82475   0.00000  Uiso   1.00
H1494  H     0.36893   0.60396   0.36742   0.00000  Uiso   1.00
H1495  H     0.38024   0.57114   0.33005   0.00000  Uiso   1.00
H1496  H     0.30846   0.57335   0.37698   0.00000  Uiso   1.00
H1497  H     0.45785   0.83281   0.96503   0.00000  Uiso   1.00
H1498  H     0.32133   0.54012   0.34047   0.00000  Uiso   1.00
H1499  H     0.34701   0.54292   0.38492   0.00000  Uiso   1.00
H1500  H     0.16489   0.94649   0.67278   0.00000  Uiso   1.00
H1501  H     0.11927   0.92836   0.66786   0.00000  Uiso   1.00
H1502  H     0.13906   0.89612   0.60750   0.00000  Uiso   1.00
H1503  H     0.14532   0.94503   0.60457   0.00000  Uiso   1.00
H1504  H     0.18441   0.91540   0.61269   0.00000  Uiso   1.00
H1505  H     0.17867   0.71426   0.21770   0.00000  Uiso   1.00
H1506  H     0.14315   0.71579   0.25413   0.00000  Uiso   1.00
H1507  H     0.14097   0.75286   0.17425   0.00000  Uiso   1.00
H1508  H     0.04226   0.66721   0.03498   0.00000  Uiso   1.00
H1509  H     0.10427   0.75325   0.20955   0.00000  Uiso   1.00
H1510  H     0.14751   0.77468   0.22077   0.00000  Uiso   1.00
H1511  H     0.35700   0.78428   0.74588   0.00000  Uiso   1.00
H1512  H     0.32167   0.78538   0.78251   0.00000  Uiso   1.00
H1513  H     0.35349   0.72530   0.77915   0.00000  Uiso   1.00
H1514  H     0.39652   0.74719   0.79029   0.00000  Uiso   1.00
H1515  H     0.35992   0.74710   0.82569   0.00000  Uiso   1.00
H1516  H     0.13070   0.89588   0.36747   0.00000  Uiso   1.00
H1517  H     0.11951   0.92888   0.33021   0.00000  Uiso   1.00
H1518  H     0.19105   0.92645   0.37739   0.00000  Uiso   1.00
H1519  H     0.17845   0.86433   0.16426   0.00000  Uiso   1.00
H1520  H     0.17852   0.95977   0.34084   0.00000  Uiso   1.00
H1521  H     0.15252   0.95694   0.38516   0.00000  Uiso   1.00
H1522  H     0.38059   0.57102   0.66993   0.00000  Uiso   1.00
H1523  H     0.36942   0.60389   0.63255   0.00000  Uiso   1.00
H1524  H     0.34763   0.54277   0.61507   0.00000  Uiso   1.00
H1525  H     0.32160   0.54006   0.65937   0.00000  Uiso   1.00
H1526  H     0.30908   0.57327   0.62269   0.00000  Uiso   1.00
H1527  H     0.47191   0.82292   0.37079   0.00000  Uiso   1.00
H1528  H     0.45854   0.83365   0.42018   0.00000  Uiso   1.00
H1529  H     0.39296   0.83644   0.39952   0.00000  Uiso   1.00
H1530  H     0.20164   0.90301   0.18468   0.00000  Uiso   1.00
H1531  H     0.42131   0.86902   0.37440   0.00000  Uiso   1.00
H1532  H     0.40698   0.82770   0.35007   0.00000  Uiso   1.00
H1533  H     0.04143   0.66635   0.57984   0.00000  Uiso   1.00
H1534  H     0.02822   0.67705   0.62928   0.00000  Uiso   1.00
H1535  H     0.09321   0.67228   0.64978   0.00000  Uiso   1.00
H1536  H     0.07884   0.63097   0.62544   0.00000  Uiso   1.00
H1537  H     0.10708   0.66361   0.60026   0.00000  Uiso   1.00
H1538  H     0.16571   0.54113   0.41994   0.00000  Uiso   1.00
H1539  H     0.17691   0.52736   0.37080   0.00000  Uiso   1.00
H1540  H     0.17222   0.59196   0.34929   0.00000  Uiso   1.00
H1541  H     0.18623   0.94019   0.12661   0.00000  Uiso   1.00
H1542  H     0.13049   0.57750   0.37304   0.00000  Uiso   1.00
H1543  H     0.16254   0.60619   0.39846   0.00000  Uiso   1.00
H1544  H     0.32319   0.97277   0.62923   0.00000  Uiso   1.00
H1545  H     0.33444   0.95905   0.58009   0.00000  Uiso   1.00
H1546  H     0.33774   0.89399   0.60154   0.00000  Uiso   1.00
H1547  H     0.36972   0.92273   0.62699   0.00000  Uiso   1.00
H1548  H     0.32800   0.90817   0.65071   0.00000  Uiso   1.00
H1549  H     0.02826   0.67692   0.37071   0.00000  Uiso   1.00
H1550  H     0.04112   0.66633   0.42026   0.00000  Uiso   1.00
H1551  H     0.10689   0.66340   0.40026   0.00000  Uiso   1.00
H1552  H     0.41658   0.79132   0.53502   0.00000  Uiso   1.00
H1553  H     0.21208   0.89946   0.11455   0.00000  Uiso   1.00
H1554  H     0.07877   0.63077   0.37503   0.00000  Uiso   1.00
H1555  H     0.09342   0.67200   0.35063   0.00000  Uiso   1.00
H1556  H     0.45887   0.83366   0.57955   0.00000  Uiso   1.00
H1557  H     0.47186   0.82319   0.62910   0.00000  Uiso   1.00
H1558  H     0.40672   0.82814   0.64933   0.00000  Uiso   1.00
H1559  H     0.42132   0.86932   0.62478   0.00000  Uiso   1.00
H1560  H     0.39315   0.83663   0.59970   0.00000  Uiso   1.00
H1561  H     0.33437   0.95864   0.41974   0.00000  Uiso   1.00
H1562  H     0.32304   0.97274   0.37075   0.00000  Uiso   1.00
H1563  H     0.32760   0.90830   0.34883   0.00000  Uiso   1.00
H1564  H     0.16329   0.90129   0.10562   0.00000  Uiso   1.00
H1565  H     0.36942   0.92254   0.37244   0.00000  Uiso   1.00
H1566  H     0.33741   0.89371   0.39786   0.00000  Uiso   1.00
H1567  H     0.17667   0.52601   0.62839   0.00000  Uiso   1.00
H1568  H     0.16537   0.54125   0.57976   0.00000  Uiso   1.00
H1569  H     0.16174   0.60556   0.60329   0.00000  Uiso   1.00
H1570  H     0.13003   0.57595   0.62810   0.00000  Uiso   1.00
H1571  H     0.17180   0.59002   0.65192   0.00000  Uiso   1.00
H1572  H     0.22192   0.57293   0.87075   0.00000  Uiso   1.00
H1573  H     0.20863   0.58367   0.92016   0.00000  Uiso   1.00
H1574  H     0.14303   0.58652   0.89960   0.00000  Uiso   1.00
H1575  H     0.29836   0.59700   0.81530   0.00000  Uiso   1.00
H1576  H     0.17137   0.61907   0.87443   0.00000  Uiso   1.00
H1577  H     0.15697   0.57776   0.85013   0.00000  Uiso   1.00
H1578  H     0.29137   0.91633   0.07986   0.00000  Uiso   1.00
H1579  H     0.27820   0.92704   0.12931   0.00000  Uiso   1.00
H1580  H     0.34321   0.92222   0.14974   0.00000  Uiso   1.00
H1581  H     0.32879   0.88093   0.12542   0.00000  Uiso   1.00
H1582  H     0.35703   0.91354   0.10022   0.00000  Uiso   1.00
H1583  H     0.41572   0.79112   0.91994   0.00000  Uiso   1.00
H1584  H     0.42691   0.77741   0.87078   0.00000  Uiso   1.00
H1585  H     0.42221   0.84204   0.84937   0.00000  Uiso   1.00
H1586  H     0.32155   0.63569   0.83570   0.00000  Uiso   1.00
H1587  H     0.38049   0.82757   0.87313   0.00000  Uiso   1.00
H1588  H     0.41256   0.85621   0.89857   0.00000  Uiso   1.00
H1589  H     0.07320   0.72269   0.12923   0.00000  Uiso   1.00
H1590  H     0.08439   0.70904   0.08006   0.00000  Uiso   1.00
H1591  H     0.08769   0.64395   0.10137   0.00000  Uiso   1.00
H1592  H     0.11970   0.67263   0.12684   0.00000  Uiso   1.00
H1593  H     0.07801   0.65805   0.15058   0.00000  Uiso   1.00
H1594  H     0.27822   0.92691   0.87064   0.00000  Uiso   1.00
H1595  H     0.29097   0.91630   0.92022   0.00000  Uiso   1.00
H1596  H     0.35677   0.91327   0.90037   0.00000  Uiso   1.00
H1597  H     0.28791   0.60061   0.88544   0.00000  Uiso   1.00
H1598  H     0.32866   0.88070   0.87506   0.00000  Uiso   1.00
H1599  H     0.34343   0.92191   0.85071   0.00000  Uiso   1.00
H1600  H     0.20892   0.58369   0.07956   0.00000  Uiso   1.00
H1601  H     0.22194   0.57320   0.12909   0.00000  Uiso   1.00
H1602  H     0.15681   0.57817   0.14937   0.00000  Uiso   1.00
H1603  H     0.17143   0.61936   0.12487   0.00000  Uiso   1.00
H1604  H     0.14322   0.58672   0.09977   0.00000  Uiso   1.00
H1605  H     0.08435   0.70860   0.91976   0.00000  Uiso   1.00
H1606  H     0.07303   0.72272   0.87076   0.00000  Uiso   1.00
H1607  H     0.07758   0.65829   0.84882   0.00000  Uiso   1.00
H1608  H     0.31373   0.55985   0.87340   0.00000  Uiso   1.00
H1609  H     0.11939   0.67251   0.87245   0.00000  Uiso   1.00
H1610  H     0.08737   0.64369   0.89785   0.00000  Uiso   1.00
H1611  H     0.42668   0.77603   0.12838   0.00000  Uiso   1.00
H1612  H     0.41538   0.79130   0.07976   0.00000  Uiso   1.00
H1613  H     0.41178   0.85560   0.10332   0.00000  Uiso   1.00
H1614  H     0.38006   0.82599   0.12812   0.00000  Uiso   1.00
H1615  H     0.42183   0.84003   0.15195   0.00000  Uiso   1.00
H1616  H     0.33670   0.59874   0.89437   0.00000  Uiso   1.00
H1617  H     0.03820   0.58665   0.25736   0.00000  Uiso   1.00
H1618  H     0.01702   0.62960   0.27107   0.00000  Uiso   1.00
H1619  H     0.00284   0.60516   0.33611   0.00000  Uiso   1.00
H1620  H     0.29225   0.91720   0.46508   0.00000  Uiso   1.00
H1621  H     0.48309   0.57766   0.29807   0.00000  Uiso   1.00
H1622  H     0.02374   0.56196   0.32318   0.00000  Uiso   1.00
H1623  H     0.48304   0.86930   0.72805   0.00000  Uiso   1.00
H1624  H     0.46258   0.91235   0.74269   0.00000  Uiso   1.00
H1625  H     0.01755   0.92111   0.70168   0.00000  Uiso   1.00
H1626  H     0.49717   0.89442   0.66339   0.00000  Uiso   1.00
H1627  H     0.47696   0.93774   0.67710   0.00000  Uiso   1.00
H1628  H     0.32685   0.63471   0.15977   0.00000  Uiso   1.00
H1629  H     0.30063   0.59932   0.18308   0.00000  Uiso   1.00
H1630  H     0.31572   0.55690   0.12859   0.00000  Uiso   1.00
H1631  H     0.20776   0.58276   0.53494   0.00000  Uiso   1.00
H1632  H     0.29188   0.59765   0.11266   0.00000  Uiso   1.00
H1633  H     0.34076   0.59314   0.10504   0.00000  Uiso   1.00
H1634  H     0.20127   0.90315   0.81538   0.00000  Uiso   1.00
H1635  H     0.17789   0.86453   0.83574   0.00000  Uiso   1.00
H1636  H     0.16247   0.90148   0.89429   0.00000  Uiso   1.00
H1637  H     0.21132   0.89960   0.88554   0.00000  Uiso   1.00
H1638  H     0.18558   0.94036   0.87334   0.00000  Uiso   1.00
H1639  H     0.46206   0.91324   0.25612   0.00000  Uiso   1.00
H1640  H     0.48329   0.87047   0.27044   0.00000  Uiso   1.00
H1641  H     0.47669   0.93883   0.32141   0.00000  Uiso   1.00
H1642  H     0.41655   0.79130   0.46512   0.00000  Uiso   1.00
H1643  H     0.49750   0.89579   0.33504   0.00000  Uiso   1.00
H1644  H     0.01729   0.92269   0.29646   0.00000  Uiso   1.00
H1645  H     0.01654   0.63098   0.72814   0.00000  Uiso   1.00
H1646  H     0.03709   0.58845   0.74426   0.00000  Uiso   1.00
H1647  H     0.02323   0.56127   0.67932   0.00000  Uiso   1.00
H1648  H     0.48247   0.57820   0.70338   0.00000  Uiso   1.00
H1649  H     0.00280   0.60409   0.66434   0.00000  Uiso   1.00
H1650  H     0.07003   0.53657   0.72131   0.00000  Uiso   1.00
H1651  H     0.10638   0.53473   0.75671   0.00000  Uiso   1.00
H1652  H     0.10569   0.99622   0.67769   0.00000  Uiso   1.00
H1653  H     0.08346   0.70867   0.53488   0.00000  Uiso   1.00
H1654  H     0.14314   0.99572   0.71204   0.00000  Uiso   1.00
H1655  H     0.09970   0.97537   0.72484   0.00000  Uiso   1.00
H1656  H     0.39259   0.96612   0.24488   0.00000  Uiso   1.00
H1657  H     0.42884   0.96442   0.28038   0.00000  Uiso   1.00
H1658  H     0.39795   0.52500   0.27805   0.00000  Uiso   1.00
H1659  H     0.35483   0.50377   0.29032   0.00000  Uiso   1.00
H1660  H     0.39220   0.50318   0.32473   0.00000  Uiso   1.00
H1661  H     0.11893   0.85396   0.86741   0.00000  Uiso   1.00
H1662  H     0.13024   0.82115   0.83004   0.00000  Uiso   1.00
H1663  H     0.05846   0.82334   0.87697   0.00000  Uiso   1.00
H1664  H     0.20782   0.58280   0.46503   0.00000  Uiso   1.00
H1665  H     0.07132   0.79012   0.84045   0.00000  Uiso   1.00
H1666  H     0.09701   0.79292   0.88490   0.00000  Uiso   1.00
H1667  H     0.41496   0.69647   0.17271   0.00000  Uiso   1.00
H1668  H     0.36930   0.67842   0.16797   0.00000  Uiso   1.00
H1669  H     0.38880   0.64612   0.10757   0.00000  Uiso   1.00
H1670  H     0.39521   0.69501   0.10458   0.00000  Uiso   1.00
H1671  H     0.43422   0.66526   0.11258   0.00000  Uiso   1.00
H1672  H     0.42909   0.96360   0.71874   0.00000  Uiso   1.00
H1673  H     0.39293   0.96594   0.75443   0.00000  Uiso   1.00
H1674  H     0.39275   0.50273   0.67438   0.00000  Uiso   1.00
H1675  H     0.29231   0.91724   0.53498   0.00000  Uiso   1.00
H1676  H     0.35561   0.50403   0.70916   0.00000  Uiso   1.00
H1677  H     0.39915   0.52461   0.72087   0.00000  Uiso   1.00
H1678  H     0.10714   0.53420   0.24574   0.00000  Uiso   1.00
H1679  H     0.07148   0.53562   0.28200   0.00000  Uiso   1.00
H1680  H     0.10282   0.97530   0.27906   0.00000  Uiso   1.00
H1681  H     0.14595   0.99685   0.29049   0.00000  Uiso   1.00
H1682  H     0.10911   0.99712   0.32561   0.00000  Uiso   1.00
H1683  H     0.38074   0.64580   0.86749   0.00000  Uiso   1.00
H1684  H     0.36952   0.67884   0.83027   0.00000  Uiso   1.00
H1685  H     0.44109   0.67637   0.87741   0.00000  Uiso   1.00
H1686  H     0.33339   0.95858   0.96497   0.00000  Uiso   1.00
H1687  H     0.42854   0.70973   0.84090   0.00000  Uiso   1.00
H1688  H     0.40256   0.70685   0.88523   0.00000  Uiso   1.00
H1689  H     0.13051   0.82114   0.16977   0.00000  Uiso   1.00
H1690  H     0.11929   0.85412   0.13252   0.00000  Uiso   1.00
H1691  H     0.09750   0.79304   0.11486   0.00000  Uiso   1.00
H1692  H     0.07151   0.79021   0.15918   0.00000  Uiso   1.00
H1693  H     0.05895   0.82352   0.12262   0.00000  Uiso   1.00
H1694  H     0.42848   0.61431   0.66430   0.00000  Uiso   1.00
H1695  H     0.45165   0.65301   0.68469   0.00000  Uiso   1.00
H1696  H     0.43624   0.69014   0.62658   0.00000  Uiso   1.00
O1697  O     0.25000   0.50000   0.25000   0.00000  Uiso   1.00
O1698  O     0.25000   0.96963   0.66245   0.00000  Uiso   1.00
O1699  O     0.46654   0.80762   0.10123   0.00000  Uiso   1.00
O1700  O     0.46964   0.75000   0.33755   0.00000  Uiso   1.00
O1701  O     0.03037   0.75000   0.66245   0.00000  Uiso   1.00
O1702  O     0.00000   0.71963   0.83755   0.00000  Uiso   1.00
O1703  O     0.00000   0.78037   0.16245   0.00000  Uiso   1.00
O1704  O     0.28037   0.50000   0.83755   0.00000  Uiso   1.00
O1705  O     0.21964   0.50000   0.16245   0.00000  Uiso   1.00
O1706  O     0.00000   0.78036   0.83755   0.00000  Uiso   1.00
O1707  O     0.00000   0.71963   0.16245   0.00000  Uiso   1.00
O1708  O     0.21964   0.50000   0.83755   0.00000  Uiso   1.00
O1709  O     0.25000   0.50000   0.75000   0.00000  Uiso   1.00
O1710  O     0.28037   0.50000   0.16245   0.00000  Uiso   1.00
O1711  O     0.20725   0.57308   0.27302   0.00000  Uiso   1.00
O1712  O     0.29276   0.92693   0.72698   0.00000  Uiso   1.00
O1713  O     0.42693   0.70725   0.27302   0.00000  Uiso   1.00
O1714  O     0.07308   0.79275   0.72698   0.00000  Uiso   1.00
O1715  O     0.29276   0.92693   0.27302   0.00000  Uiso   1.00
O1716  O     0.20725   0.57308   0.72698   0.00000  Uiso   1.00
O1717  O     0.07308   0.79275   0.27302   0.00000  Uiso   1.00
O1718  O     0.42693   0.70725   0.72698   0.00000  Uiso   1.00
O1719  O     0.20725   0.92692   0.72698   0.00000  Uiso   1.00
O1720  O     0.00000   0.75000   0.25000   0.00000  Uiso   1.00
O1721  O     0.29276   0.57308   0.27302   0.00000  Uiso   1.00
O1722  O     0.42693   0.79276   0.72698   0.00000  Uiso   1.00
O1723  O     0.07308   0.70724   0.27302   0.00000  Uiso   1.00
O1724  O     0.29276   0.57308   0.72698   0.00000  Uiso   1.00
O1725  O     0.20725   0.92692   0.27302   0.00000  Uiso   1.00
O1726  O     0.07308   0.70724   0.72698   0.00000  Uiso   1.00
O1727  O     0.42693   0.79276   0.27302   0.00000  Uiso   1.00
O1728  O     0.45725   0.82308   0.77302   0.00000  Uiso   1.00
O1729  O     0.04276   0.67692   0.22698   0.00000  Uiso   1.00
O1730  O     0.17693   0.95724   0.77302   0.00000  Uiso   1.00
O1731  O     0.00000   0.75000   0.75000   0.00000  Uiso   1.00
O1732  O     0.32308   0.54276   0.22698   0.00000  Uiso   1.00
O1733  O     0.04276   0.67692   0.77302   0.00000  Uiso   1.00
O1734  O     0.45725   0.82308   0.22698   0.00000  Uiso   1.00
O1735  O     0.32308   0.54276   0.77302   0.00000  Uiso   1.00
O1736  O     0.17693   0.95724   0.22698   0.00000  Uiso   1.00
O1737  O     0.45725   0.67693   0.22698   0.00000  Uiso   1.00
O1738  O     0.04276   0.82307   0.77302   0.00000  Uiso   1.00
O1739  O     0.17693   0.54276   0.22698   0.00000  Uiso   1.00
O1740  O     0.32308   0.95725   0.77302   0.00000  Uiso   1.00
O1741  O     0.04276   0.82307   0.22698   0.00000  Uiso   1.00
O1742  O     0.25000   0.96963   0.33755   0.00000  Uiso   1.00
O1743  O     0.45725   0.67693   0.77302   0.00000  Uiso   1.00
O1744  O     0.32308   0.95725   0.22698   0.00000  Uiso   1.00
O1745  O     0.17693   0.54276   0.77302   0.00000  Uiso   1.00
O1746  O     0.14449   0.90855   0.18000   0.00000  Uiso   1.00
O1747  O     0.35550   0.59146   0.82000   0.00000  Uiso   1.00
O1748  O     0.06535   0.61785   0.30019   0.00000  Uiso   1.00
O1749  O     0.43463   0.88221   0.69960   0.00000  Uiso   1.00
O1750  O     0.35734   0.59002   0.18044   0.00000  Uiso   1.00
O1751  O     0.14410   0.90884   0.81981   0.00000  Uiso   1.00
O1752  O     0.43502   0.88258   0.29958   0.00000  Uiso   1.00
O1753  O     0.25000   0.53037   0.66245   0.00000  Uiso   1.00
O1754  O     0.06513   0.61756   0.70027   0.00000  Uiso   1.00
O1755  O     0.11744   0.56290   0.70418   0.00000  Uiso   1.00
O1756  O     0.38204   0.93671   0.29677   0.00000  Uiso   1.00
O1757  O     0.08720   0.85909   0.81829   0.00000  Uiso   1.00
O1758  O     0.41177   0.64042   0.18073   0.00000  Uiso   1.00
O1759  O     0.38182   0.93651   0.70278   0.00000  Uiso   1.00
O1760  O     0.11831   0.56370   0.29739   0.00000  Uiso   1.00
O1761  O     0.41262   0.64102   0.81837   0.00000  Uiso   1.00
O1762  O     0.08740   0.85895   0.18162   0.00000  Uiso   1.00
O1763  O     0.39451   0.65853   0.67999   0.00000  Uiso   1.00
O1764  O     0.03037   0.75000   0.33755   0.00000  Uiso   1.00
O1765  O     0.10550   0.84146   0.32000   0.00000  Uiso   1.00
O1766  O     0.31536   0.86787   0.80015   0.00000  Uiso   1.00
O1767  O     0.18469   0.63218   0.19974   0.00000  Uiso   1.00
O1768  O     0.10731   0.84005   0.68043   0.00000  Uiso   1.00
O1769  O     0.39413   0.65881   0.31981   0.00000  Uiso   1.00
O1770  O     0.18501   0.63257   0.79958   0.00000  Uiso   1.00
O1771  O     0.31513   0.86756   0.20027   0.00000  Uiso   1.00
O1772  O     0.36744   0.81290   0.20419   0.00000  Uiso   1.00
O1773  O     0.13203   0.68669   0.79678   0.00000  Uiso   1.00
O1774  O     0.33721   0.60909   0.31829   0.00000  Uiso   1.00
O1775  O     0.46964   0.75000   0.66245   0.00000  Uiso   1.00
O1776  O     0.16177   0.89042   0.68073   0.00000  Uiso   1.00
O1777  O     0.13170   0.68632   0.20254   0.00000  Uiso   1.00
O1778  O     0.36840   0.81380   0.79749   0.00000  Uiso   1.00
O1779  O     0.16260   0.89104   0.31838   0.00000  Uiso   1.00
O1780  O     0.33747   0.60888   0.68160   0.00000  Uiso   1.00
O1781  O     0.44176   0.78265   0.39884   0.00000  Uiso   1.00
O1782  O     0.05825   0.71736   0.60117   0.00000  Uiso   1.00
O1783  O     0.21695   0.55786   0.39877   0.00000  Uiso   1.00
O1784  O     0.28322   0.94221   0.60125   0.00000  Uiso   1.00
O1785  O     0.05816   0.71726   0.39876   0.00000  Uiso   1.00
O1786  O     0.25000   0.53037   0.33755   0.00000  Uiso   1.00
O1787  O     0.44188   0.78278   0.60124   0.00000  Uiso   1.00
O1788  O     0.28305   0.94210   0.39878   0.00000  Uiso   1.00
O1789  O     0.21652   0.55760   0.60123   0.00000  Uiso   1.00
O1790  O     0.19178   0.53268   0.89883   0.00000  Uiso   1.00
O1791  O     0.30824   0.96733   0.10117   0.00000  Uiso   1.00
O1792  O     0.46697   0.80787   0.89877   0.00000  Uiso   1.00
O1793  O     0.03319   0.69219   0.10124   0.00000  Uiso   1.00
O1794  O     0.30813   0.96721   0.89876   0.00000  Uiso   1.00
O1795  O     0.19191   0.53282   0.10124   0.00000  Uiso   1.00
O1796  O     0.03303   0.69209   0.89878   0.00000  Uiso   1.00
Zn1797 Zn    0.20660   0.50000   0.21735   0.00000  Uiso   1.00
Zn1798 Zn    0.04341   0.75000   0.28265   0.00000  Uiso   1.00
Zn1799 Zn    0.25000   0.95659   0.71735   0.00000  Uiso   1.00
Zn1800 Zn    0.25000   0.54341   0.28265   0.00000  Uiso   1.00
Zn1801 Zn    0.04341   0.75000   0.71735   0.00000  Uiso   1.00
Zn1802 Zn    0.45660   0.75000   0.28265   0.00000  Uiso   1.00
Zn1803 Zn    0.25000   0.54341   0.71735   0.00000  Uiso   1.00
Zn1804 Zn    0.25000   0.95659   0.28265   0.00000  Uiso   1.00
Zn1805 Zn    0.29341   0.50000   0.78265   0.00000  Uiso   1.00
Zn1806 Zn    0.00000   0.70660   0.21735   0.00000  Uiso   1.00
Zn1807 Zn    0.00000   0.79340   0.78265   0.00000  Uiso   1.00
Zn1808 Zn    0.29341   0.50000   0.21735   0.00000  Uiso   1.00
Zn1809 Zn    0.20660   0.50000   0.78265   0.00000  Uiso   1.00
Zn1810 Zn    0.00000   0.79341   0.21735   0.00000  Uiso   1.00
Zn1811 Zn    0.00000   0.70659   0.78265   0.00000  Uiso   1.00
Zn1812 Zn    0.45660   0.75000   0.71735   0.00000  Uiso   1.00
C1813  C     0.97062   0.76644   0.41867   0.00000  Uiso   1.00
C1814  C     0.77938   0.98352   0.08133   0.00000  Uiso   1.00
C1815  C     0.73434   0.52972   0.54075   0.00000  Uiso   1.00
C1816  C     0.97003   0.76533   0.45928   0.00000  Uiso   1.00
C1817  C     0.52998   0.73464   0.54072   0.00000  Uiso   1.00
C1818  C     0.73438   0.52973   0.45924   0.00000  Uiso   1.00
C1819  C     0.76575   0.97029   0.54077   0.00000  Uiso   1.00
C1820  C     0.77993   0.98459   0.95923   0.00000  Uiso   1.00
C1821  C     0.72008   0.51538   0.04077   0.00000  Uiso   1.00
C1822  C     0.51568   0.72026   0.95925   0.00000  Uiso   1.00
C1823  C     0.98434   0.77972   0.04075   0.00000  Uiso   1.00
C1824  C     0.72004   0.51535   0.95928   0.00000  Uiso   1.00
C1825  C     0.98330   0.77915   0.91863   0.00000  Uiso   1.00
C1826  C     0.77997   0.98462   0.04072   0.00000  Uiso   1.00
C1827  C     0.98439   0.77974   0.95924   0.00000  Uiso   1.00
C1828  C     0.51572   0.72029   0.04077   0.00000  Uiso   1.00
C1829  C     0.59751   0.84870   0.25016   0.00000  Uiso   1.00
C1830  C     0.90250   0.65129   0.74983   0.00000  Uiso   1.00
C1831  C     0.65217   0.59821   0.24965   0.00000  Uiso   1.00
C1832  C     0.84789   0.90184   0.75031   0.00000  Uiso   1.00
C1833  C     0.90228   0.65164   0.24994   0.00000  Uiso   1.00
C1834  C     0.59778   0.84849   0.74987   0.00000  Uiso   1.00
C1835  C     0.84788   0.90186   0.24967   0.00000  Uiso   1.00
C1836  C     0.51680   0.72088   0.08137   0.00000  Uiso   1.00
C1837  C     0.65212   0.59822   0.75040   0.00000  Uiso   1.00
C1838  C     0.59787   0.65186   0.74967   0.00000  Uiso   1.00
C1839  C     0.90212   0.84822   0.25041   0.00000  Uiso   1.00
C1840  C     0.65227   0.90165   0.74994   0.00000  Uiso   1.00
C1841  C     0.84779   0.59848   0.24987   0.00000  Uiso   1.00
C1842  C     0.90219   0.84823   0.74962   0.00000  Uiso   1.00
C1843  C     0.59788   0.65182   0.25032   0.00000  Uiso   1.00
C1844  C     0.84752   0.59870   0.75016   0.00000  Uiso   1.00
C1845  C     0.65249   0.90129   0.24983   0.00000  Uiso   1.00
C1846  C     0.99999   0.74998   0.47959   0.00000  Uiso   1.00
C1847  C     0.77931   0.98346   0.91863   0.00000  Uiso   1.00
C1848  C     0.50001   0.74999   0.52041   0.00000  Uiso   1.00
C1849  C     0.75005   0.50001   0.47958   0.00000  Uiso   1.00
C1850  C     0.75006   0.50001   0.52042   0.00000  Uiso   1.00
C1851  C     0.74999   0.99998   0.97959   0.00000  Uiso   1.00
C1852  C     0.75001   0.99999   0.02041   0.00000  Uiso   1.00
C1853  C     0.50004   0.75000   0.97958   0.00000  Uiso   1.00
C1854  C     0.50005   0.75001   0.02042   0.00000  Uiso   1.00
C1855  C     0.67839   0.89468   0.16601   0.00000  Uiso   1.00
C1856  C     0.68540   0.90987   0.12566   0.00000  Uiso   1.00
C1857  C     0.82160   0.60533   0.83397   0.00000  Uiso   1.00
C1858  C     0.72070   0.51653   0.08136   0.00000  Uiso   1.00
C1859  C     0.81458   0.59017   0.87433   0.00000  Uiso   1.00
C1860  C     0.53293   0.60579   0.28192   0.00000  Uiso   1.00
C1861  C     0.50918   0.58640   0.31169   0.00000  Uiso   1.00
C1862  C     0.96738   0.89350   0.71778   0.00000  Uiso   1.00
C1863  C     0.99124   0.91294   0.68812   0.00000  Uiso   1.00
C1864  C     0.82477   0.60474   0.16431   0.00000  Uiso   1.00
C1865  C     0.81787   0.58697   0.12519   0.00000  Uiso   1.00
C1866  C     0.67789   0.89488   0.83396   0.00000  Uiso   1.00
C1867  C     0.68470   0.91004   0.87432   0.00000  Uiso   1.00
C1868  C     0.96738   0.89442   0.28097   0.00000  Uiso   1.00
C1869  C     0.51672   0.72082   0.91864   0.00000  Uiso   1.00
C1870  C     0.99119   0.91420   0.31030   0.00000  Uiso   1.00
C1871  C     0.53236   0.60657   0.71871   0.00000  Uiso   1.00
C1872  C     0.50876   0.58622   0.68962   0.00000  Uiso   1.00
C1873  C     0.60015   0.53455   0.72506   0.00000  Uiso   1.00
C1874  C     0.61294   0.99811   0.70886   0.00000  Uiso   1.00
C1875  C     0.89868   0.96585   0.27655   0.00000  Uiso   1.00
C1876  C     0.88507   0.50174   0.29351   0.00000  Uiso   1.00
C1877  C     0.60740   0.83665   0.84408   0.00000  Uiso   1.00
C1878  C     0.58186   0.80908   0.86279   0.00000  Uiso   1.00
C1879  C     0.89890   0.67272   0.16256   0.00000  Uiso   1.00
C1880  C     0.98319   0.77909   0.08136   0.00000  Uiso   1.00
C1881  C     0.90465   0.66952   0.11907   0.00000  Uiso   1.00
C1882  C     0.89896   0.96548   0.72272   0.00000  Uiso   1.00
C1883  C     0.88580   0.50151   0.70568   0.00000  Uiso   1.00
C1884  C     0.60158   0.53443   0.27755   0.00000  Uiso   1.00
C1885  C     0.61575   0.99864   0.29425   0.00000  Uiso   1.00
C1886  C     0.89232   0.66327   0.84427   0.00000  Uiso   1.00
C1887  C     0.91780   0.69073   0.86315   0.00000  Uiso   1.00
C1888  C     0.60771   0.83668   0.15575   0.00000  Uiso   1.00
C1889  C     0.58224   0.80919   0.13691   0.00000  Uiso   1.00
C1890  C     0.92842   0.64466   0.66602   0.00000  Uiso   1.00
C1891  C     0.99997   0.74996   0.39836   0.00000  Uiso   1.00
C1892  C     0.93542   0.65982   0.62566   0.00000  Uiso   1.00
C1893  C     0.57160   0.85534   0.33397   0.00000  Uiso   1.00
C1894  C     0.56459   0.84018   0.37434   0.00000  Uiso   1.00
C1895  C     0.78302   0.85560   0.78190   0.00000  Uiso   1.00
C1896  C     0.75923   0.83643   0.81179   0.00000  Uiso   1.00
C1897  C     0.71719   0.64406   0.21798   0.00000  Uiso   1.00
C1898  C     0.74118   0.66306   0.18813   0.00000  Uiso   1.00
C1899  C     0.57473   0.85475   0.66431   0.00000  Uiso   1.00
C1900  C     0.56784   0.83700   0.62519   0.00000  Uiso   1.00
C1901  C     0.92792   0.64485   0.33395   0.00000  Uiso   1.00
C1902  C     0.50004   0.75002   0.60164   0.00000  Uiso   1.00
C1903  C     0.93476   0.66002   0.37430   0.00000  Uiso   1.00
C1904  C     0.71737   0.64442   0.78097   0.00000  Uiso   1.00
C1905  C     0.74118   0.66419   0.81032   0.00000  Uiso   1.00
C1906  C     0.78235   0.85660   0.21870   0.00000  Uiso   1.00
C1907  C     0.75876   0.83625   0.18960   0.00000  Uiso   1.00
C1908  C     0.85014   0.78456   0.22506   0.00000  Uiso   1.00
C1909  C     0.86289   0.74811   0.20883   0.00000  Uiso   1.00
C1910  C     0.64867   0.71585   0.77658   0.00000  Uiso   1.00
C1911  C     0.63500   0.75173   0.79351   0.00000  Uiso   1.00
C1912  C     0.85741   0.58665   0.34409   0.00000  Uiso   1.00
C1913  C     0.75000   0.99998   0.39834   0.00000  Uiso   1.00
C1914  C     0.83187   0.55908   0.36280   0.00000  Uiso   1.00
C1915  C     0.64890   0.92272   0.66255   0.00000  Uiso   1.00
C1916  C     0.65480   0.91956   0.61907   0.00000  Uiso   1.00
C1917  C     0.64859   0.71555   0.22230   0.00000  Uiso   1.00
C1918  C     0.63445   0.75137   0.20564   0.00000  Uiso   1.00
C1919  C     0.85173   0.78442   0.77775   0.00000  Uiso   1.00
C1920  C     0.86633   0.74872   0.79429   0.00000  Uiso   1.00
C1921  C     0.64229   0.91332   0.34424   0.00000  Uiso   1.00
C1922  C     0.66777   0.94079   0.36310   0.00000  Uiso   1.00
C1923  C     0.85781   0.58652   0.65583   0.00000  Uiso   1.00
C1924  C     0.52939   0.73354   0.58133   0.00000  Uiso   1.00
C1925  C     0.75001   0.50000   0.60166   0.00000  Uiso   1.00
C1926  C     0.83236   0.55898   0.63705   0.00000  Uiso   1.00
C1927  C     0.94985   0.81996   0.39286   0.00000  Uiso   1.00
C1928  C     0.91560   0.83947   0.37824   0.00000  Uiso   1.00
C1929  C     0.55021   0.68004   0.60714   0.00000  Uiso   1.00
C1930  C     0.58451   0.66053   0.62162   0.00000  Uiso   1.00
C1931  C     0.67962   0.54957   0.39260   0.00000  Uiso   1.00
C1932  C     0.66001   0.58346   0.37735   0.00000  Uiso   1.00
C1933  C     0.82054   0.95057   0.60742   0.00000  Uiso   1.00
C1934  C     0.84021   0.91672   0.62267   0.00000  Uiso   1.00
C1935  C     0.55010   0.67993   0.39296   0.00000  Uiso   1.00
C1936  C     0.74997   0.99996   0.89836   0.00000  Uiso   1.00
C1937  C     0.58448   0.66033   0.37877   0.00000  Uiso   1.00
C1938  C     0.94996   0.82012   0.60692   0.00000  Uiso   1.00
C1939  C     0.91561   0.83976   0.62113   0.00000  Uiso   1.00
C1940  C     0.82037   0.95039   0.39244   0.00000  Uiso   1.00
C1941  C     0.83990   0.91659   0.37687   0.00000  Uiso   1.00
C1942  C     0.67925   0.54892   0.60732   0.00000  Uiso   1.00
C1943  C     0.65949   0.58222   0.62373   0.00000  Uiso   1.00
C1944  C     0.69989   0.56998   0.89285   0.00000  Uiso   1.00
C1945  C     0.66564   0.58953   0.87828   0.00000  Uiso   1.00
C1946  C     0.80017   0.93001   0.10714   0.00000  Uiso   1.00
C1947  C     0.75004   0.50002   0.10164   0.00000  Uiso   1.00
C1948  C     0.83447   0.91048   0.12159   0.00000  Uiso   1.00
C1949  C     0.92962   0.79960   0.89261   0.00000  Uiso   1.00
C1950  C     0.91002   0.83350   0.87742   0.00000  Uiso   1.00
C1951  C     0.57052   0.70052   0.10738   0.00000  Uiso   1.00
C1952  C     0.59018   0.66664   0.12254   0.00000  Uiso   1.00
C1953  C     0.80003   0.92989   0.89294   0.00000  Uiso   1.00
C1954  C     0.83440   0.91024   0.87883   0.00000  Uiso   1.00
C1955  C     0.70001   0.57015   0.10693   0.00000  Uiso   1.00
C1956  C     0.66569   0.58981   0.12119   0.00000  Uiso   1.00
C1957  C     0.57036   0.70037   0.89244   0.00000  Uiso   1.00
C1958  C     0.50000   0.74998   0.89834   0.00000  Uiso   1.00
C1959  C     0.58987   0.66657   0.87687   0.00000  Uiso   1.00
C1960  C     0.92926   0.79895   0.10732   0.00000  Uiso   1.00
C1961  C     0.90952   0.83225   0.12375   0.00000  Uiso   1.00
C1962  C     0.50000   0.75000   0.10166   0.00000  Uiso   1.00
C1963  C     0.55989   0.72020   0.47984   0.00000  Uiso   1.00
C1964  C     0.94012   0.77977   0.52016   0.00000  Uiso   1.00
C1965  C     0.78047   0.94057   0.47991   0.00000  Uiso   1.00
C1966  C     0.71958   0.55941   0.52010   0.00000  Uiso   1.00
C1967  C     0.94010   0.77976   0.47994   0.00000  Uiso   1.00
C1968  C     0.73330   0.52914   0.41863   0.00000  Uiso   1.00
C1969  C     0.55990   0.72021   0.52006   0.00000  Uiso   1.00
C1970  C     0.71962   0.55943   0.47987   0.00000  Uiso   1.00
C1971  C     0.78050   0.94059   0.52014   0.00000  Uiso   1.00
C1972  C     0.80986   0.97015   0.97984   0.00000  Uiso   1.00
C1973  C     0.69014   0.52982   0.02016   0.00000  Uiso   1.00
C1974  C     0.53043   0.69056   0.97991   0.00000  Uiso   1.00
C1975  C     0.96960   0.80942   0.02010   0.00000  Uiso   1.00
C1976  C     0.69012   0.52980   0.97994   0.00000  Uiso   1.00
C1977  C     0.80988   0.97017   0.02006   0.00000  Uiso   1.00
C1978  C     0.96964   0.80944   0.97987   0.00000  Uiso   1.00
C1979  C     0.76683   0.97089   0.58138   0.00000  Uiso   1.00
C1980  C     0.53046   0.69058   0.02014   0.00000  Uiso   1.00
C1981  C     0.75000   0.99999   0.35592   0.00000  Uiso   1.00
C1982  C     0.74996   0.50000   0.64408   0.00000  Uiso   1.00
C1983  C     0.99999   0.74999   0.35596   0.00000  Uiso   1.00
C1984  C     0.50002   0.75001   0.64404   0.00000  Uiso   1.00
C1985  C     0.99999   0.74999   0.85592   0.00000  Uiso   1.00
C1986  C     0.99996   0.75000   0.14408   0.00000  Uiso   1.00
C1987  C     0.74999   0.99999   0.85595   0.00000  Uiso   1.00
C1988  C     0.75002   0.50001   0.14404   0.00000  Uiso   1.00
C1989  C     0.68020   0.57013   0.24970   0.00000  Uiso   1.00
C1990  C     0.52933   0.73348   0.41863   0.00000  Uiso   1.00
C1991  C     0.81983   0.92989   0.75028   0.00000  Uiso   1.00
C1992  C     0.92989   0.68009   0.24978   0.00000  Uiso   1.00
C1993  C     0.57012   0.81997   0.75015   0.00000  Uiso   1.00
C1994  C     0.81984   0.92990   0.24974   0.00000  Uiso   1.00
C1995  C     0.68017   0.57014   0.75031   0.00000  Uiso   1.00
C1996  C     0.57010   0.81997   0.24978   0.00000  Uiso   1.00
C1997  C     0.92990   0.68003   0.75022   0.00000  Uiso   1.00
C1998  C     0.67989   0.93009   0.74978   0.00000  Uiso   1.00
C1999  C     0.82012   0.56997   0.25015   0.00000  Uiso   1.00
C2000  C     0.93021   0.82014   0.74969   0.00000  Uiso   1.00
C2001  C     0.97069   0.76651   0.58136   0.00000  Uiso   1.00
C2002  C     0.56982   0.67989   0.25028   0.00000  Uiso   1.00
C2003  C     0.82011   0.56997   0.74977   0.00000  Uiso   1.00
C2004  C     0.67990   0.93003   0.25022   0.00000  Uiso   1.00
C2005  C     0.56984   0.67990   0.74973   0.00000  Uiso   1.00
C2006  C     0.93017   0.82014   0.25031   0.00000  Uiso   1.00
C2007  C     0.63559   0.89147   0.21463   0.00000  Uiso   1.00
C2008  C     0.86442   0.60853   0.78536   0.00000  Uiso   1.00
C2009  C     0.59362   0.62051   0.27351   0.00000  Uiso   1.00
C2010  C     0.90646   0.87956   0.72642   0.00000  Uiso   1.00
C2011  C     0.86522   0.60791   0.21482   0.00000  Uiso   1.00
C2012  C     0.76674   0.97083   0.41864   0.00000  Uiso   1.00
C2013  C     0.63532   0.89175   0.78518   0.00000  Uiso   1.00
C2014  C     0.90661   0.87976   0.27314   0.00000  Uiso   1.00
C2015  C     0.59338   0.62034   0.72691   0.00000  Uiso   1.00
C2016  C     0.62060   0.59331   0.72763   0.00000  Uiso   1.00
C2017  C     0.87930   0.90671   0.27262   0.00000  Uiso   1.00
C2018  C     0.60725   0.86587   0.78488   0.00000  Uiso   1.00
C2019  C     0.89266   0.63426   0.21486   0.00000  Uiso   1.00
C2020  C     0.87915   0.90653   0.72701   0.00000  Uiso   1.00
C2021  C     0.62093   0.59356   0.27299   0.00000  Uiso   1.00
C2022  C     0.89263   0.63425   0.78497   0.00000  Uiso   1.00
C2023  C     0.73318   0.52909   0.58136   0.00000  Uiso   1.00
C2024  C     0.60738   0.86574   0.21502   0.00000  Uiso   1.00
C2025  C     0.88560   0.64146   0.71463   0.00000  Uiso   1.00
C2026  C     0.61442   0.85853   0.28536   0.00000  Uiso   1.00
C2027  C     0.84364   0.87052   0.77349   0.00000  Uiso   1.00
C2028  C     0.65644   0.62953   0.22646   0.00000  Uiso   1.00
C2029  C     0.61520   0.85793   0.71481   0.00000  Uiso   1.00
C2030  C     0.88534   0.64174   0.28519   0.00000  Uiso   1.00
C2031  C     0.65661   0.62975   0.77314   0.00000  Uiso   1.00
C2032  C     0.84338   0.87034   0.22692   0.00000  Uiso   1.00
C2033  C     0.87060   0.84332   0.22764   0.00000  Uiso   1.00
C2034  C     0.72063   0.51646   0.91867   0.00000  Uiso   1.00
C2035  C     0.62929   0.65670   0.77263   0.00000  Uiso   1.00
C2036  C     0.85726   0.61586   0.28488   0.00000  Uiso   1.00
C2037  C     0.64264   0.88428   0.71486   0.00000  Uiso   1.00
C2038  C     0.62911   0.65647   0.22697   0.00000  Uiso   1.00
C2039  C     0.87097   0.84360   0.77299   0.00000  Uiso   1.00
C2040  C     0.64263   0.88426   0.28497   0.00000  Uiso   1.00
C2041  C     0.85740   0.61572   0.71502   0.00000  Uiso   1.00
C2042  C     0.52994   0.73461   0.45923   0.00000  Uiso   1.00
C2043  C     0.97006   0.76536   0.54077   0.00000  Uiso   1.00
C2044  C     0.76570   0.97026   0.45925   0.00000  Uiso   1.00
H2045  H     0.58343   0.70865   0.46498   0.00000  Uiso   1.00
H2046  H     0.66661   0.54138   0.03502   0.00000  Uiso   1.00
H2047  H     0.96210   0.64940   0.61455   0.00000  Uiso   1.00
H2048  H     0.91330   0.65122   0.60562   0.00000  Uiso   1.00
H2049  H     0.54836   0.84700   0.31530   0.00000  Uiso   1.00
H2050  H     0.57154   0.88569   0.33569   0.00000  Uiso   1.00
H2051  H     0.53791   0.85062   0.38544   0.00000  Uiso   1.00
H2052  H     0.56374   0.80987   0.37341   0.00000  Uiso   1.00
H2053  H     0.58671   0.84876   0.39437   0.00000  Uiso   1.00
H2054  H     0.78839   0.83624   0.75756   0.00000  Uiso   1.00
H2055  H     0.76710   0.87928   0.77075   0.00000  Uiso   1.00
H2056  H     0.75281   0.85539   0.83601   0.00000  Uiso   1.00
H2057  H     0.54220   0.66718   0.96508   0.00000  Uiso   1.00
H2058  H     0.73318   0.82754   0.79819   0.00000  Uiso   1.00
H2059  H     0.77380   0.81211   0.82355   0.00000  Uiso   1.00
H2060  H     0.73291   0.62019   0.22900   0.00000  Uiso   1.00
H2061  H     0.71203   0.66338   0.24239   0.00000  Uiso   1.00
H2062  H     0.76734   0.67162   0.20173   0.00000  Uiso   1.00
H2063  H     0.74739   0.64411   0.16383   0.00000  Uiso   1.00
H2064  H     0.72685   0.68758   0.17648   0.00000  Uiso   1.00
H2065  H     0.57678   0.88472   0.65980   0.00000  Uiso   1.00
H2066  H     0.55060   0.84929   0.68308   0.00000  Uiso   1.00
H2067  H     0.56574   0.80692   0.62855   0.00000  Uiso   1.00
H2068  H     0.95778   0.83278   0.03494   0.00000  Uiso   1.00
H2069  H     0.54183   0.84765   0.61268   0.00000  Uiso   1.00
H2070  H     0.59071   0.84323   0.60503   0.00000  Uiso   1.00
H2071  H     0.95129   0.65310   0.31535   0.00000  Uiso   1.00
H2072  H     0.92790   0.61450   0.33573   0.00000  Uiso   1.00
H2073  H     0.91254   0.65147   0.39429   0.00000  Uiso   1.00
H2074  H     0.96138   0.64957   0.38551   0.00000  Uiso   1.00
H2075  H     0.93564   0.69033   0.37331   0.00000  Uiso   1.00
H2076  H     0.71205   0.66325   0.75613   0.00000  Uiso   1.00
H2077  H     0.73328   0.62048   0.77044   0.00000  Uiso   1.00
H2078  H     0.72668   0.68882   0.82143   0.00000  Uiso   1.00
H2079  H     0.66658   0.54136   0.96512   0.00000  Uiso   1.00
H2080  H     0.74749   0.64577   0.83506   0.00000  Uiso   1.00
H2081  H     0.76728   0.67268   0.79648   0.00000  Uiso   1.00
H2082  H     0.76654   0.88101   0.22811   0.00000  Uiso   1.00
H2083  H     0.78707   0.83848   0.24425   0.00000  Uiso   1.00
H2084  H     0.73246   0.82824   0.20336   0.00000  Uiso   1.00
H2085  H     0.75282   0.85410   0.16431   0.00000  Uiso   1.00
H2086  H     0.77322   0.81129   0.17931   0.00000  Uiso   1.00
H2087  H     0.82002   0.78659   0.22135   0.00000  Uiso   1.00
H2088  H     0.85640   0.78472   0.25671   0.00000  Uiso   1.00
H2089  H     0.85558   0.74623   0.17768   0.00000  Uiso   1.00
H2090  H     0.83342   0.95861   0.03488   0.00000  Uiso   1.00
H2091  H     0.89310   0.74571   0.21195   0.00000  Uiso   1.00
H2092  H     0.84967   0.72536   0.22483   0.00000  Uiso   1.00
H2093  H     0.64261   0.71611   0.74489   0.00000  Uiso   1.00
H2094  H     0.67882   0.71445   0.78043   0.00000  Uiso   1.00
H2095  H     0.64790   0.77499   0.77808   0.00000  Uiso   1.00
H2096  H     0.60477   0.75374   0.79028   0.00000  Uiso   1.00
H2097  H     0.64210   0.75317   0.82475   0.00000  Uiso   1.00
H2098  H     0.86893   0.60396   0.36742   0.00000  Uiso   1.00
H2099  H     0.88024   0.57114   0.33005   0.00000  Uiso   1.00
H2100  H     0.80846   0.57335   0.37698   0.00000  Uiso   1.00
H2101  H     0.95785   0.83281   0.96503   0.00000  Uiso   1.00
H2102  H     0.82133   0.54012   0.34047   0.00000  Uiso   1.00
H2103  H     0.84701   0.54292   0.38492   0.00000  Uiso   1.00
H2104  H     0.66489   0.94649   0.67278   0.00000  Uiso   1.00
H2105  H     0.61927   0.92836   0.66786   0.00000  Uiso   1.00
H2106  H     0.63906   0.89612   0.60750   0.00000  Uiso   1.00
H2107  H     0.64532   0.94503   0.60457   0.00000  Uiso   1.00
H2108  H     0.68441   0.91540   0.61269   0.00000  Uiso   1.00
H2109  H     0.67867   0.71426   0.21770   0.00000  Uiso   1.00
H2110  H     0.64315   0.71579   0.25413   0.00000  Uiso   1.00
H2111  H     0.64097   0.75286   0.17425   0.00000  Uiso   1.00
H2112  H     0.54226   0.66721   0.03498   0.00000  Uiso   1.00
H2113  H     0.60427   0.75325   0.20955   0.00000  Uiso   1.00
H2114  H     0.64751   0.77468   0.22077   0.00000  Uiso   1.00
H2115  H     0.85700   0.78428   0.74588   0.00000  Uiso   1.00
H2116  H     0.82167   0.78538   0.78251   0.00000  Uiso   1.00
H2117  H     0.85349   0.72530   0.77915   0.00000  Uiso   1.00
H2118  H     0.89652   0.74719   0.79029   0.00000  Uiso   1.00
H2119  H     0.85992   0.74710   0.82569   0.00000  Uiso   1.00
H2120  H     0.63070   0.89588   0.36747   0.00000  Uiso   1.00
H2121  H     0.61951   0.92888   0.33021   0.00000  Uiso   1.00
H2122  H     0.69105   0.92645   0.37739   0.00000  Uiso   1.00
H2123  H     0.67845   0.86433   0.16426   0.00000  Uiso   1.00
H2124  H     0.67852   0.95977   0.34084   0.00000  Uiso   1.00
H2125  H     0.65252   0.95694   0.38516   0.00000  Uiso   1.00
H2126  H     0.88059   0.57102   0.66993   0.00000  Uiso   1.00
H2127  H     0.86942   0.60389   0.63255   0.00000  Uiso   1.00
H2128  H     0.84763   0.54277   0.61507   0.00000  Uiso   1.00
H2129  H     0.82160   0.54006   0.65937   0.00000  Uiso   1.00
H2130  H     0.80908   0.57327   0.62269   0.00000  Uiso   1.00
H2131  H     0.97191   0.82292   0.37079   0.00000  Uiso   1.00
H2132  H     0.95854   0.83365   0.42018   0.00000  Uiso   1.00
H2133  H     0.89296   0.83644   0.39952   0.00000  Uiso   1.00
H2134  H     0.70164   0.90301   0.18468   0.00000  Uiso   1.00
H2135  H     0.92131   0.86902   0.37440   0.00000  Uiso   1.00
H2136  H     0.90698   0.82770   0.35007   0.00000  Uiso   1.00
H2137  H     0.54143   0.66635   0.57984   0.00000  Uiso   1.00
H2138  H     0.52822   0.67705   0.62928   0.00000  Uiso   1.00
H2139  H     0.59321   0.67228   0.64978   0.00000  Uiso   1.00
H2140  H     0.57884   0.63097   0.62544   0.00000  Uiso   1.00
H2141  H     0.60708   0.66361   0.60026   0.00000  Uiso   1.00
H2142  H     0.66571   0.54113   0.41994   0.00000  Uiso   1.00
H2143  H     0.67691   0.52736   0.37080   0.00000  Uiso   1.00
H2144  H     0.67222   0.59196   0.34929   0.00000  Uiso   1.00
H2145  H     0.68623   0.94019   0.12661   0.00000  Uiso   1.00
H2146  H     0.63049   0.57750   0.37304   0.00000  Uiso   1.00
H2147  H     0.66254   0.60619   0.39846   0.00000  Uiso   1.00
H2148  H     0.82319   0.97277   0.62923   0.00000  Uiso   1.00
H2149  H     0.83444   0.95905   0.58009   0.00000  Uiso   1.00
H2150  H     0.83774   0.89399   0.60154   0.00000  Uiso   1.00
H2151  H     0.86972   0.92273   0.62699   0.00000  Uiso   1.00
H2152  H     0.82800   0.90817   0.65071   0.00000  Uiso   1.00
H2153  H     0.52826   0.67692   0.37071   0.00000  Uiso   1.00
H2154  H     0.54112   0.66633   0.42026   0.00000  Uiso   1.00
H2155  H     0.60689   0.66340   0.40026   0.00000  Uiso   1.00
H2156  H     0.91658   0.79132   0.53502   0.00000  Uiso   1.00
H2157  H     0.71208   0.89946   0.11455   0.00000  Uiso   1.00
H2158  H     0.57877   0.63077   0.37503   0.00000  Uiso   1.00
H2159  H     0.59342   0.67200   0.35063   0.00000  Uiso   1.00
H2160  H     0.95887   0.83366   0.57955   0.00000  Uiso   1.00
H2161  H     0.97186   0.82319   0.62910   0.00000  Uiso   1.00
H2162  H     0.90672   0.82814   0.64933   0.00000  Uiso   1.00
H2163  H     0.92132   0.86932   0.62478   0.00000  Uiso   1.00
H2164  H     0.89315   0.83663   0.59970   0.00000  Uiso   1.00
H2165  H     0.83437   0.95864   0.41974   0.00000  Uiso   1.00
H2166  H     0.82304   0.97274   0.37075   0.00000  Uiso   1.00
H2167  H     0.82760   0.90830   0.34883   0.00000  Uiso   1.00
H2168  H     0.66329   0.90129   0.10562   0.00000  Uiso   1.00
H2169  H     0.86942   0.92254   0.37244   0.00000  Uiso   1.00
H2170  H     0.83741   0.89371   0.39786   0.00000  Uiso   1.00
H2171  H     0.67667   0.52601   0.62839   0.00000  Uiso   1.00
H2172  H     0.66537   0.54125   0.57976   0.00000  Uiso   1.00
H2173  H     0.66174   0.60556   0.60329   0.00000  Uiso   1.00
H2174  H     0.63003   0.57595   0.62810   0.00000  Uiso   1.00
H2175  H     0.67180   0.59002   0.65192   0.00000  Uiso   1.00
H2176  H     0.72192   0.57293   0.87075   0.00000  Uiso   1.00
H2177  H     0.70863   0.58367   0.92016   0.00000  Uiso   1.00
H2178  H     0.64303   0.58652   0.89960   0.00000  Uiso   1.00
H2179  H     0.79836   0.59700   0.81530   0.00000  Uiso   1.00
H2180  H     0.67137   0.61907   0.87443   0.00000  Uiso   1.00
H2181  H     0.65697   0.57776   0.85013   0.00000  Uiso   1.00
H2182  H     0.79137   0.91633   0.07986   0.00000  Uiso   1.00
H2183  H     0.77820   0.92704   0.12931   0.00000  Uiso   1.00
H2184  H     0.84321   0.92222   0.14974   0.00000  Uiso   1.00
H2185  H     0.82879   0.88093   0.12542   0.00000  Uiso   1.00
H2186  H     0.85703   0.91354   0.10022   0.00000  Uiso   1.00
H2187  H     0.91572   0.79112   0.91994   0.00000  Uiso   1.00
H2188  H     0.92691   0.77741   0.87078   0.00000  Uiso   1.00
H2189  H     0.92221   0.84204   0.84937   0.00000  Uiso   1.00
H2190  H     0.82155   0.63569   0.83570   0.00000  Uiso   1.00
H2191  H     0.88049   0.82757   0.87313   0.00000  Uiso   1.00
H2192  H     0.91256   0.85621   0.89857   0.00000  Uiso   1.00
H2193  H     0.57320   0.72269   0.12923   0.00000  Uiso   1.00
H2194  H     0.58439   0.70904   0.08006   0.00000  Uiso   1.00
H2195  H     0.58769   0.64395   0.10137   0.00000  Uiso   1.00
H2196  H     0.61970   0.67263   0.12684   0.00000  Uiso   1.00
H2197  H     0.57801   0.65805   0.15058   0.00000  Uiso   1.00
H2198  H     0.77822   0.92691   0.87064   0.00000  Uiso   1.00
H2199  H     0.79097   0.91630   0.92022   0.00000  Uiso   1.00
H2200  H     0.85677   0.91327   0.90037   0.00000  Uiso   1.00
H2201  H     0.78791   0.60061   0.88544   0.00000  Uiso   1.00
H2202  H     0.82866   0.88070   0.87506   0.00000  Uiso   1.00
H2203  H     0.84343   0.92191   0.85071   0.00000  Uiso   1.00
H2204  H     0.70892   0.58369   0.07956   0.00000  Uiso   1.00
H2205  H     0.72194   0.57320   0.12909   0.00000  Uiso   1.00
H2206  H     0.65681   0.57817   0.14937   0.00000  Uiso   1.00
H2207  H     0.67143   0.61936   0.12487   0.00000  Uiso   1.00
H2208  H     0.64322   0.58672   0.09977   0.00000  Uiso   1.00
H2209  H     0.58435   0.70860   0.91976   0.00000  Uiso   1.00
H2210  H     0.57303   0.72272   0.87076   0.00000  Uiso   1.00
H2211  H     0.57758   0.65829   0.84882   0.00000  Uiso   1.00
H2212  H     0.81373   0.55985   0.87340   0.00000  Uiso   1.00
H2213  H     0.61939   0.67251   0.87245   0.00000  Uiso   1.00
H2214  H     0.58737   0.64369   0.89785   0.00000  Uiso   1.00
H2215  H     0.92668   0.77603   0.12838   0.00000  Uiso   1.00
H2216  H     0.91538   0.79130   0.07976   0.00000  Uiso   1.00
H2217  H     0.91178   0.85560   0.10332   0.00000  Uiso   1.00
H2218  H     0.88006   0.82599   0.12812   0.00000  Uiso   1.00
H2219  H     0.92183   0.84003   0.15195   0.00000  Uiso   1.00
H2220  H     0.83670   0.59874   0.89437   0.00000  Uiso   1.00
H2221  H     0.53820   0.58665   0.25736   0.00000  Uiso   1.00
H2222  H     0.51702   0.62960   0.27107   0.00000  Uiso   1.00
H2223  H     0.50284   0.60516   0.33611   0.00000  Uiso   1.00
H2224  H     0.79225   0.91720   0.46508   0.00000  Uiso   1.00
H2225  H     0.98309   0.57766   0.29807   0.00000  Uiso   1.00
H2226  H     0.52374   0.56196   0.32318   0.00000  Uiso   1.00
H2227  H     0.98304   0.86930   0.72805   0.00000  Uiso   1.00
H2228  H     0.96258   0.91235   0.74269   0.00000  Uiso   1.00
H2229  H     0.51755   0.92111   0.70168   0.00000  Uiso   1.00
H2230  H     0.99717   0.89442   0.66339   0.00000  Uiso   1.00
H2231  H     0.97696   0.93774   0.67710   0.00000  Uiso   1.00
H2232  H     0.82685   0.63471   0.15977   0.00000  Uiso   1.00
H2233  H     0.80063   0.59932   0.18308   0.00000  Uiso   1.00
H2234  H     0.81572   0.55690   0.12859   0.00000  Uiso   1.00
H2235  H     0.70776   0.58276   0.53494   0.00000  Uiso   1.00
H2236  H     0.79188   0.59765   0.11266   0.00000  Uiso   1.00
H2237  H     0.84076   0.59314   0.10504   0.00000  Uiso   1.00
H2238  H     0.70127   0.90315   0.81538   0.00000  Uiso   1.00
H2239  H     0.67789   0.86453   0.83574   0.00000  Uiso   1.00
H2240  H     0.66247   0.90148   0.89429   0.00000  Uiso   1.00
H2241  H     0.71132   0.89960   0.88554   0.00000  Uiso   1.00
H2242  H     0.68558   0.94036   0.87334   0.00000  Uiso   1.00
H2243  H     0.96206   0.91324   0.25612   0.00000  Uiso   1.00
H2244  H     0.98329   0.87047   0.27044   0.00000  Uiso   1.00
H2245  H     0.97669   0.93883   0.32141   0.00000  Uiso   1.00
H2246  H     0.91655   0.79130   0.46512   0.00000  Uiso   1.00
H2247  H     0.99750   0.89579   0.33504   0.00000  Uiso   1.00
H2248  H     0.51729   0.92269   0.29646   0.00000  Uiso   1.00
H2249  H     0.51654   0.63098   0.72814   0.00000  Uiso   1.00
H2250  H     0.53709   0.58845   0.74426   0.00000  Uiso   1.00
H2251  H     0.52323   0.56127   0.67932   0.00000  Uiso   1.00
H2252  H     0.98247   0.57820   0.70338   0.00000  Uiso   1.00
H2253  H     0.50280   0.60409   0.66434   0.00000  Uiso   1.00
H2254  H     0.57003   0.53657   0.72131   0.00000  Uiso   1.00
H2255  H     0.60638   0.53473   0.75671   0.00000  Uiso   1.00
H2256  H     0.60569   0.99622   0.67769   0.00000  Uiso   1.00
H2257  H     0.58346   0.70867   0.53488   0.00000  Uiso   1.00
H2258  H     0.64314   0.99572   0.71204   0.00000  Uiso   1.00
H2259  H     0.59970   0.97537   0.72484   0.00000  Uiso   1.00
H2260  H     0.89259   0.96612   0.24488   0.00000  Uiso   1.00
H2261  H     0.92884   0.96442   0.28038   0.00000  Uiso   1.00
H2262  H     0.89795   0.52500   0.27805   0.00000  Uiso   1.00
H2263  H     0.85483   0.50377   0.29032   0.00000  Uiso   1.00
H2264  H     0.89220   0.50318   0.32473   0.00000  Uiso   1.00
H2265  H     0.61893   0.85396   0.86741   0.00000  Uiso   1.00
H2266  H     0.63024   0.82115   0.83004   0.00000  Uiso   1.00
H2267  H     0.55846   0.82334   0.87697   0.00000  Uiso   1.00
H2268  H     0.70782   0.58280   0.46503   0.00000  Uiso   1.00
H2269  H     0.57132   0.79012   0.84045   0.00000  Uiso   1.00
H2270  H     0.59701   0.79292   0.88490   0.00000  Uiso   1.00
H2271  H     0.91496   0.69647   0.17271   0.00000  Uiso   1.00
H2272  H     0.86930   0.67842   0.16797   0.00000  Uiso   1.00
H2273  H     0.88880   0.64612   0.10757   0.00000  Uiso   1.00
H2274  H     0.89521   0.69501   0.10458   0.00000  Uiso   1.00
H2275  H     0.93422   0.66526   0.11258   0.00000  Uiso   1.00
H2276  H     0.92909   0.96360   0.71874   0.00000  Uiso   1.00
H2277  H     0.89293   0.96594   0.75443   0.00000  Uiso   1.00
H2278  H     0.89275   0.50273   0.67438   0.00000  Uiso   1.00
H2279  H     0.79231   0.91724   0.53498   0.00000  Uiso   1.00
H2280  H     0.85561   0.50403   0.70916   0.00000  Uiso   1.00
H2281  H     0.89915   0.52461   0.72087   0.00000  Uiso   1.00
H2282  H     0.60714   0.53420   0.24574   0.00000  Uiso   1.00
H2283  H     0.57148   0.53562   0.28200   0.00000  Uiso   1.00
H2284  H     0.60282   0.97530   0.27906   0.00000  Uiso   1.00
H2285  H     0.64595   0.99685   0.29049   0.00000  Uiso   1.00
H2286  H     0.60911   0.99712   0.32561   0.00000  Uiso   1.00
H2287  H     0.88074   0.64580   0.86749   0.00000  Uiso   1.00
H2288  H     0.86952   0.67884   0.83027   0.00000  Uiso   1.00
H2289  H     0.94109   0.67637   0.87741   0.00000  Uiso   1.00
H2290  H     0.83339   0.95858   0.96497   0.00000  Uiso   1.00
H2291  H     0.92854   0.70973   0.84090   0.00000  Uiso   1.00
H2292  H     0.90256   0.70685   0.88523   0.00000  Uiso   1.00
H2293  H     0.63051   0.82114   0.16977   0.00000  Uiso   1.00
H2294  H     0.61929   0.85412   0.13252   0.00000  Uiso   1.00
H2295  H     0.59750   0.79304   0.11486   0.00000  Uiso   1.00
H2296  H     0.57151   0.79021   0.15918   0.00000  Uiso   1.00
H2297  H     0.55895   0.82352   0.12262   0.00000  Uiso   1.00
H2298  H     0.92848   0.61431   0.66430   0.00000  Uiso   1.00
H2299  H     0.95165   0.65301   0.68469   0.00000  Uiso   1.00
H2300  H     0.93624   0.69014   0.62658   0.00000  Uiso   1.00
O2301  O     0.75000   0.50000   0.25000   0.00000  Uiso   1.00
O2302  O     0.75000   0.96963   0.66245   0.00000  Uiso   1.00
O2303  O     0.96654   0.80762   0.10123   0.00000  Uiso   1.00
O2304  O     0.96964   0.75000   0.33755   0.00000  Uiso   1.00
O2305  O     0.53037   0.75000   0.66245   0.00000  Uiso   1.00
O2306  O     0.50000   0.71963   0.83755   0.00000  Uiso   1.00
O2307  O     0.50000   0.78037   0.16245   0.00000  Uiso   1.00
O2308  O     0.78037   0.50000   0.83755   0.00000  Uiso   1.00
O2309  O     0.71964   0.50000   0.16245   0.00000  Uiso   1.00
O2310  O     0.50000   0.78036   0.83755   0.00000  Uiso   1.00
O2311  O     0.50000   0.71963   0.16245   0.00000  Uiso   1.00
O2312  O     0.71964   0.50000   0.83755   0.00000  Uiso   1.00
O2313  O     0.75000   0.50000   0.75000   0.00000  Uiso   1.00
O2314  O     0.78037   0.50000   0.16245   0.00000  Uiso   1.00
O2315  O     0.70725   0.57308   0.27302   0.00000  Uiso   1.00
O2316  O     0.79276   0.92693   0.72698   0.00000  Uiso   1.00
O2317  O     0.92693   0.70725   0.27302   0.00000  Uiso   1.00
O2318  O     0.57308   0.79275   0.72698   0.00000  Uiso   1.00
O2319  O     0.79276   0.92693   0.27302   0.00000  Uiso   1.00
O2320  O     0.70725   0.57308   0.72698   0.00000  Uiso   1.00
O2321  O     0.57308   0.79275   0.27302   0.00000  Uiso   1.00
O2322  O     0.92693   0.70725   0.72698   0.00000  Uiso   1.00
O2323  O     0.70725   0.92692   0.72698   0.00000  Uiso   1.00
O2324  O     0.50000   0.75000   0.25000   0.00000  Uiso   1.00
O2325  O     0.79276   0.57308   0.27302   0.00000  Uiso   1.00
O2326  O     0.92693   0.79276   0.72698   0.00000  Uiso   1.00
O2327  O     0.57308   0.70724   0.27302   0.00000  Uiso   1.00
O2328  O     0.79276   0.57308   0.72698   0.00000  Uiso   1.00
O2329  O     0.70725   0.92692   0.27302   0.00000  Uiso   1.00
O2330  O     0.57308   0.70724   0.72698   0.00000  Uiso   1.00
O2331  O     0.92693   0.79276   0.27302   0.00000  Uiso   1.00
O2332  O     0.95725   0.82308   0.77302   0.00000  Uiso   1.00
O2333  O     0.54276   0.67692   0.22698   0.00000  Uiso   1.00
O2334  O     0.67693   0.95724   0.77302   0.00000  Uiso   1.00
O2335  O     0.50000   0.75000   0.75000   0.00000  Uiso   1.00
O2336  O     0.82308   0.54276   0.22698   0.00000  Uiso   1.00
O2337  O     0.54276   0.67692   0.77302   0.00000  Uiso   1.00
O2338  O     0.95725   0.82308   0.22698   0.00000  Uiso   1.00
O2339  O     0.82308   0.54276   0.77302   0.00000  Uiso   1.00
O2340  O     0.67693   0.95724   0.22698   0.00000  Uiso   1.00
O2341  O     0.95725   0.67693   0.22698   0.00000  Uiso   1.00
O2342  O     0.54276   0.82307   0.77302   0.00000  Uiso   1.00
O2343  O     0.67693   0.54276   0.22698   0.00000  Uiso   1.00
O2344  O     0.82308   0.95725   0.77302   0.00000  Uiso   1.00
O2345  O     0.54276   0.82307   0.22698   0.00000  Uiso   1.00
O2346  O     0.75000   0.96963   0.33755   0.00000  Uiso   1.00
O2347  O     0.95725   0.67693   0.77302   0.00000  Uiso   1.00
O2348  O     0.82308   0.95725   0.22698   0.00000  Uiso   1.00
O2349  O     0.67693   0.54276   0.77302   0.00000  Uiso   1.00
O2350  O     0.64449   0.90855   0.18000   0.00000  Uiso   1.00
O2351  O     0.85550   0.59146   0.82000   0.00000  Uiso   1.00
O2352  O     0.56535   0.61785   0.30019   0.00000  Uiso   1.00
O2353  O     0.93463   0.88221   0.69960   0.00000  Uiso   1.00
O2354  O     0.85734   0.59002   0.18044   0.00000  Uiso   1.00
O2355  O     0.64410   0.90884   0.81981   0.00000  Uiso   1.00
O2356  O     0.93502   0.88258   0.29958   0.00000  Uiso   1.00
O2357  O     0.75000   0.53037   0.66245   0.00000  Uiso   1.00
O2358  O     0.56513   0.61756   0.70027   0.00000  Uiso   1.00
O2359  O     0.61744   0.56290   0.70418   0.00000  Uiso   1.00
O2360  O     0.88204   0.93671   0.29677   0.00000  Uiso   1.00
O2361  O     0.58720   0.85909   0.81829   0.00000  Uiso   1.00
O2362  O     0.91177   0.64042   0.18073   0.00000  Uiso   1.00
O2363  O     0.88182   0.93651   0.70278   0.00000  Uiso   1.00
O2364  O     0.61831   0.56370   0.29739   0.00000  Uiso   1.00
O2365  O     0.91262   0.64102   0.81837   0.00000  Uiso   1.00
O2366  O     0.58740   0.85895   0.18162   0.00000  Uiso   1.00
O2367  O     0.89451   0.65853   0.67999   0.00000  Uiso   1.00
O2368  O     0.53037   0.75000   0.33755   0.00000  Uiso   1.00
O2369  O     0.60550   0.84146   0.32000   0.00000  Uiso   1.00
O2370  O     0.81536   0.86787   0.80015   0.00000  Uiso   1.00
O2371  O     0.68469   0.63218   0.19974   0.00000  Uiso   1.00
O2372  O     0.60731   0.84005   0.68043   0.00000  Uiso   1.00
O2373  O     0.89413   0.65881   0.31981   0.00000  Uiso   1.00
O2374  O     0.68501   0.63257   0.79958   0.00000  Uiso   1.00
O2375  O     0.81513   0.86756   0.20027   0.00000  Uiso   1.00
O2376  O     0.86744   0.81290   0.20419   0.00000  Uiso   1.00
O2377  O     0.63203   0.68669   0.79678   0.00000  Uiso   1.00
O2378  O     0.83721   0.60909   0.31829   0.00000  Uiso   1.00
O2379  O     0.96964   0.75000   0.66245   0.00000  Uiso   1.00
O2380  O     0.66177   0.89042   0.68073   0.00000  Uiso   1.00
O2381  O     0.63170   0.68632   0.20254   0.00000  Uiso   1.00
O2382  O     0.86840   0.81380   0.79749   0.00000  Uiso   1.00
O2383  O     0.66260   0.89104   0.31838   0.00000  Uiso   1.00
O2384  O     0.83747   0.60888   0.68160   0.00000  Uiso   1.00
O2385  O     0.94176   0.78265   0.39884   0.00000  Uiso   1.00
O2386  O     0.55825   0.71736   0.60117   0.00000  Uiso   1.00
O2387  O     0.71695   0.55786   0.39877   0.00000  Uiso   1.00
O2388  O     0.78322   0.94221   0.60125   0.00000  Uiso   1.00
O2389  O     0.55816   0.71726   0.39876   0.00000  Uiso   1.00
O2390  O     0.75000   0.53037   0.33755   0.00000  Uiso   1.00
O2391  O     0.94188   0.78278   0.60124   0.00000  Uiso   1.00
O2392  O     0.78305   0.94210   0.39878   0.00000  Uiso   1.00
O2393  O     0.71652   0.55760   0.60123   0.00000  Uiso   1.00
O2394  O     0.69178   0.53268   0.89883   0.00000  Uiso   1.00
O2395  O     0.80824   0.96733   0.10117   0.00000  Uiso   1.00
O2396  O     0.96697   0.80787   0.89877   0.00000  Uiso   1.00
O2397  O     0.53319   0.69219   0.10124   0.00000  Uiso   1.00
O2398  O     0.80813   0.96721   0.89876   0.00000  Uiso   1.00
O2399  O     0.69191   0.53282   0.10124   0.00000  Uiso   1.00
O2400  O     0.53303   0.69209   0.89878   0.00000  Uiso   1.00
Zn2401 Zn    0.70660   0.50000   0.21735   0.00000  Uiso   1.00
Zn2402 Zn    0.54341   0.75000   0.28265   0.00000  Uiso   1.00
Zn2403 Zn    0.75000   0.95659   0.71735   0.00000  Uiso   1.00
Zn2404 Zn    0.75000   0.54341   0.28265   0.00000  Uiso   1.00
Zn2405 Zn    0.54341   0.75000   0.71735   0.00000  Uiso   1.00
Zn2406 Zn    0.95660   0.75000   0.28265   0.00000  Uiso   1.00
Zn2407 Zn    0.75000   0.54341   0.71735   0.00000  Uiso   1.00
Zn2408 Zn    0.75000   0.95659   0.28265   0.00000  Uiso   1.00
Zn2409 Zn    0.79341   0.50000   0.78265   0.00000  Uiso   1.00
Zn2410 Zn    0.50000   0.70660   0.21735   0.00000  Uiso   1.00
Zn2411 Zn    0.50000   0.79340   0.78265   0.00000  Uiso   1.00
Zn2412 Zn    0.79341   0.50000   0.21735   0.00000  Uiso   1.00
Zn2413 Zn    0.70660   0.50000   0.78265   0.00000  Uiso   1.00
Zn2414 Zn    0.50000   0.79341   0.21735   0.00000  Uiso   1.00
Zn2415 Zn    0.50000   0.70659   0.78265   0.00000  Uiso   1.00
Zn2416 Zn    0.95660   0.75000   0.71735   0.00000  Uiso   1.00
loop_
_geom_bond_atom_site_label_1
_geom_bond_atom_site_label_2
_geom_bond_distance
_geom_bond_site_symmetry_2
_ccdc_geom_bond_type
C1     C79     1.411   .     A
C1     C4      1.403   .     A
C1     O573    1.386   .     S
C2     C14     1.403   .     A
C2     O583    1.385   .     S
C2     C1343   1.411   .     S
C3     C211    1.403   .     A
C3     C154    1.403   .     A
C3     C38     1.412   .     A
C4     C155    1.403   .     A
C4     C34     1.412   .     A
C5     C36     1.412   .     A
C5     C112    1.403   .     A
C5     C157    1.403   .     A
C6     C158    1.403   .     A
C6     C37     1.412   .     A
C6     C156    1.403   .     A
C7     C159    1.403   .     A
C7     C167    1.403   .     A
C7     C1246   1.412   .     S
C8     C35     1.403   .     A
C8     C160    1.403   .     A
C8     C39     1.412   .     A
C9     C46     1.403   .     A
C9     C161    1.403   .     A
C9     C1248   1.412   1_545 S
C10    C162    1.403   .     A
C10    C41     1.412   .     A
C10    C57     1.403   .     A
C11    C68     1.403   .     A
C11    C163    1.403   .     A
C11    C646    1.412   .     S
C12    C222    1.403   .     A
C12    C164    1.403   .     A
C12    C1247   1.412   1_545 S
C13    O584    1.386   .     S
C13    C750    1.411   .     A
C13    C15     1.403   .     A
C14    C165    1.403   .     A
C14    C40     1.412   .     A
C15    C166    1.403   .     A
C15    C645    1.412   .     S
C16    C168    1.403   .     A
C16    C24     1.403   .     A
C16    C42     1.412   .     A
C17    C184    1.455   .     S
C17    C212    1.411   .     A
C17    C214    1.411   .     A
C18    C210    1.411   .     A
C18    C185    1.455   .     S
C18    C213    1.411   .     A
C19    C177    1.444   .     S
C19    C209    1.406   .     A
C19    C216    1.407   .     A
C20    C215    1.406   .     A
C20    C179    1.444   .     S
C20    C208    1.406   .     A
C21    C218    1.412   .     A
C21    C180    1.453   .     S
C21    C207    1.414   .     A
C22    C181    1.456   .     S
C22    C217    1.410   .     A
C22    C206    1.411   .     A
C23    C182    1.443   .     S
C23    C220    1.406   .     A
C23    C205    1.406   .     A
C24    C150    1.411   .     A
C24    O585    1.386   .     S
C25    C204    1.406   .     A
C25    C219    1.407   .     A
C25    C183    1.445   .     S
C26    C203    1.406   .     A
C26    C223    1.406   .     A
C26    C193    1.443   .     S
C27    C202    1.407   .     A
C27    C221    1.406   .     A
C27    C194    1.445   .     S
C28    C201    1.412   .     A
C28    C186    1.453   .     S
C28    C225    1.414   .     A
C29    C199    1.410   .     A
C29    C224    1.411   .     A
C29    C187    1.456   .     S
C30    C198    1.407   .     A
C30    C227    1.406   .     A
C30    C188    1.444   .     S
C31    C226    1.406   .     A
C31    C190    1.444   .     S
C31    C197    1.406   .     A
C32    C196    1.411   .     A
C32    C191    1.455   .     S
C32    C229    1.411   .     A
C33    C195    1.411   .     A
C33    C228    1.411   .     A
C33    C192    1.455   .     S
C34    C640    1.409   .     S
C34    C834    1.412   .     S
C35    C124    1.411   .     A
C35    O586    1.385   .     S
C36    C638    1.409   1_455 S
C36    C835    1.412   1_455 S
C37    C38     1.410   .     A
C37    C1440   1.412   1_545 S
C38    C1215   1.412   1_545 S
C39    C1220   1.412   .     S
C39    C40     1.410   1_556 S
C40    C1217   1.412   .     S
C40    C39     1.410   1_554 S
C41    C619    1.412   1_455 S
C41    C42     1.410   1_556 S
C42    C615    1.412   1_455 S
C42    C41     1.410   1_554 S
C43    C44     1.522   .     S
C43    O538    1.417   .     S
C43    H322    1.110   .     S
C43    H311    1.112   .     S
C44    H333    1.110   .     S
C44    H356    1.110   .     S
C44    H345    1.111   .     S
C45    O539    1.417   .     S
C45    H378    1.112   .     S
C45    H367    1.110   .     S
C45    C47     1.522   .     S
C46    O587    1.385   .     S
C46    C135    1.411   .     A
C47    H408    1.110   .     S
C47    H400    1.110   .     S
C47    H389    1.111   .     S
C48    H410    1.109   .     S
C48    O540    1.414   .     S
C48    H409    1.116   .     S
C48    C49     1.521   .     S
C49    H414    1.110   .     S
C49    H411    1.111   .     S
C49    H1017   1.111   1_455 S
C50    H415    1.108   .     S
C50    H416    1.116   .     S
C50    C51     1.522   .     S
C50    O541    1.414   .     S
C51    H418    1.111   .     S
C51    H419    1.110   .     S
C51    H1021   1.111   .     S
C52    C53     1.521   .     S
C52    O542    1.415   .     S
C52    H421    1.111   .     S
C52    H420    1.110   .     S
C53    H422    1.110   .     S
C53    H425    1.110   .     S
C53    H424    1.111   .     S
C54    H426    1.110   .     S
C54    C55     1.522   .     S
C54    H427    1.112   .     S
C54    O543    1.418   .     S
C55    H430    1.110   .     S
C55    H429    1.111   .     S
C55    H428    1.110   .     S
C56    O544    1.414   .     S
C56    C58     1.522   .     S
C56    H431    1.116   .     S
C56    H432    1.109   .     S
C57    O588    1.386   .     S
C57    C146    1.411   .     S
C58    H435    1.111   .     S
C58    H433    1.110   .     S
C58    H1040   1.111   .     S
C59    O546    1.414   .     S
C59    C60     1.522   .     S
C59    H438    1.116   .     S
C59    H437    1.108   .     S
C60    H441    1.111   .     S
C60    H439    1.110   .     S
C60    H1044   1.111   1_455 S
C61    H442    1.108   .     S
C61    O547    1.414   .     S
C61    H443    1.117   .     S
C61    C1270   1.516   1_545 S
C62    H447    1.111   .     S
C62    H446    1.110   .     S
C62    H444    1.111   .     S
C62    C1269   1.516   .     S
C63    O548    1.414   .     S
C63    H449    1.108   .     S
C63    H448    1.116   .     S
C63    C1272   1.518   .     S
C64    H452    1.111   .     S
C64    H450    1.111   .     S
C64    H451    1.110   .     S
C64    C1271   1.518   1_545 S
C65    H454    1.115   .     S
C65    H453    1.110   .     S
C65    O549    1.415   .     S
C65    C66     1.521   .     S
C66    H455    1.111   .     S
C66    H458    1.110   .     S
C66    H457    1.109   .     S
C67    H460    1.113   .     S
C67    C69     1.520   .     S
C67    O550    1.415   .     S
C67    H459    1.109   .     S
C68    O491    1.386   .     S
C68    C754    1.411   .     S
C69    H462    1.111   .     S
C69    H461    1.110   .     S
C69    H463    1.111   .     S
C70    H464    1.109   .     S
C70    H465    1.116   .     S
C70    O551    1.414   .     S
C70    C1279   1.518   .     S
C71    H469    1.111   .     S
C71    H468    1.110   .     S
C71    H466    1.111   .     S
C71    C1278   1.518   1_545 S
C72    H470    1.116   .     S
C72    H471    1.109   .     S
C72    O552    1.414   .     S
C72    C1281   1.518   1_545 S
C73    H474    1.111   .     S
C73    H473    1.110   .     S
C73    H472    1.111   .     S
C73    C1280   1.518   .     S
C74    H476    1.115   .     S
C74    H475    1.110   .     S
C74    O553    1.415   .     S
C74    C75     1.521   .     S
C75    H479    1.109   .     S
C75    H477    1.111   .     S
C75    H480    1.110   .     S
C76    H482    1.110   .     S
C76    O554    1.415   .     S
C76    H481    1.115   .     S
C76    C77     1.521   .     S
C77    H483    1.110   .     S
C77    H485    1.111   .     S
C77    H484    1.109   .     S
C78    C80     1.522   .     S
C78    H486    1.112   .     S
C78    H487    1.110   .     S
C78    O555    1.417   .     S
C79    C171    1.464   .     S
C79    C782    1.411   .     S
C80    H236    1.110   .     S
C80    H235    1.111   .     S
C80    H488    1.110   .     S
C81    H238    1.112   .     S
C81    H237    1.110   .     S
C81    C82     1.522   .     S
C81    O557    1.417   .     S
C82    H239    1.111   .     S
C82    H241    1.110   .     S
C82    H240    1.110   .     S
C83    H242    1.116   .     S
C83    C84     1.521   .     S
C83    H243    1.109   .     S
C83    O558    1.414   .     S
C84    H247    1.110   .     S
C84    H244    1.111   .     S
C84    H246    1.111   .     S
C85    H248    1.108   .     S
C85    O559    1.414   .     S
C85    H249    1.116   .     S
C85    C86     1.522   .     S
C86    H251    1.111   .     S
C86    H252    1.110   .     S
C86    H250    1.111   .     S
C87    H254    1.111   .     S
C87    C88     1.521   .     S
C87    H253    1.110   .     S
C87    O560    1.415   .     S
C88    H257    1.111   .     S
C88    H255    1.110   .     S
C88    H258    1.110   .     S
C89    H259    1.110   .     S
C89    C91     1.522   .     S
C89    H260    1.112   .     S
C89    O561    1.418   .     S
C90    C172    1.464   .     S
C90    C112    1.411   .     A
C90    C793    1.411   1_455 S
C91    H263    1.110   .     S
C91    H261    1.110   .     S
C91    H262    1.111   .     S
C92    O562    1.414   .     S
C92    H265    1.109   .     S
C92    C93     1.522   .     S
C92    H264    1.116   .     S
C93    H269    1.111   .     S
C93    H268    1.111   .     S
C93    H266    1.110   .     S
C94    O563    1.414   .     S
C94    H270    1.108   .     S
C94    C95     1.522   .     S
C94    H271    1.116   .     S
C95    H273    1.111   .     S
C95    H272    1.111   .     S
C95    H274    1.110   .     S
C96    O564    1.414   .     S
C96    H276    1.117   .     S
C96    C97     1.516   .     S
C96    H275    1.108   .     S
C97    H280    1.111   .     S
C97    H277    1.111   .     S
C97    H279    1.110   .     S
C98    C99     1.518   .     S
C98    H281    1.116   .     S
C98    H282    1.108   .     S
C98    O565    1.414   .     S
C99    H284    1.110   .     S
C99    H285    1.111   .     S
C99    H283    1.111   .     S
C100   H287    1.115   .     S
C100   H286    1.110   .     S
C100   O566    1.415   .     S
C100   C102    1.521   .     S
C101   C200    1.411   .     A
C101   C169    1.464   .     S
C101   C1364   1.411   .     S
C102   H291    1.111   .     S
C102   H288    1.111   .     S
C102   H290    1.109   .     S
C103   H293    1.113   .     S
C103   H292    1.108   .     S
C103   C104    1.521   .     S
C103   O568    1.415   .     S
C104   H295    1.111   .     S
C104   H294    1.110   .     S
C104   H296    1.111   .     S
C105   O569    1.414   .     S
C105   H298    1.117   .     S
C105   C106    1.518   .     S
C105   H297    1.109   .     S
C106   H301    1.110   .     S
C106   H302    1.111   .     S
C106   H299    1.111   .     S
C107   O570    1.414   .     S
C107   H303    1.117   .     S
C107   C108    1.518   .     S
C107   H304    1.109   .     S
C108   H306    1.110   .     S
C108   H305    1.111   .     S
C108   H307    1.111   .     S
C109   H308    1.110   .     S
C109   O571    1.415   .     S
C109   C110    1.521   .     S
C109   H309    1.115   .     S
C110   H312    1.109   .     S
C110   H310    1.111   .     S
C110   H313    1.110   .     S
C111   H314    1.115   .     S
C111   C114    1.521   .     S
C111   O572    1.415   .     S
C111   H315    1.110   .     S
C112   O574    1.385   .     S
C113   C1375   1.411   1_545 A
C113   C170    1.465   .     S
C113   C211    1.411   .     S
C114   H316    1.110   .     S
C114   H317    1.109   .     S
C114   H318    1.111   .     S
C115   H320    1.116   .     S
C115   C116    1.521   .     S
C115   O573    1.413   .     S
C115   H319    1.113   .     S
C116   H321    1.111   .     S
C116   H323    1.110   .     S
C116   H324    1.111   .     S
C117   H326    1.113   .     S
C117   O574    1.413   .     S
C117   C118    1.521   .     S
C117   H325    1.116   .     S
C118   H327    1.111   .     S
C118   H329    1.111   .     S
C118   H328    1.110   .     S
C119   H330    1.115   .     S
C119   C120    1.521   .     S
C119   H331    1.113   .     S
C119   O575    1.413   .     S
C120   H334    1.110   .     S
C120   H332    1.111   .     S
C120   H335    1.111   .     S
C121   H336    1.113   .     S
C121   H337    1.115   .     S
C121   C122    1.521   .     S
C121   O576    1.413   .     S
C122   H338    1.111   .     S
C122   H339    1.110   .     S
C122   H340    1.111   .     S
C123   H341    1.113   .     S
C123   O577    1.413   .     S
C123   C125    1.521   .     S
C123   H342    1.116   .     S
C124   C175    1.464   .     S
C124   C1430   1.411   .     S
C125   H346    1.110   .     S
C125   H347    1.111   .     S
C125   H343    1.111   .     S
C126   C127    1.521   .     S
C126   H349    1.113   .     S
C126   O579    1.413   .     S
C126   H348    1.116   .     S
C127   H351    1.110   .     S
C127   H352    1.111   .     S
C127   H350    1.111   .     S
C128   C129    1.521   .     S
C128   H354    1.113   .     S
C128   O580    1.413   .     S
C128   H353    1.115   .     S
C129   H355    1.111   .     S
C129   H357    1.110   .     S
C129   H358    1.111   .     S
C130   O581    1.413   .     S
C130   C131    1.521   .     S
C130   H359    1.114   .     S
C130   H360    1.115   .     S
C131   H362    1.110   .     S
C131   H363    1.111   .     S
C131   H361    1.111   .     S
C132   H365    1.116   .     S
C132   O582    1.413   .     S
C132   H364    1.113   .     S
C132   C133    1.521   .     S
C133   H366    1.111   .     S
C133   H368    1.110   .     S
C133   H369    1.111   .     S
C134   O583    1.413   .     S
C134   H370    1.116   .     S
C134   C136    1.521   .     S
C134   H371    1.113   .     S
C135   C176    1.464   .     S
C135   C1210   1.411   1_545 S
C136   H372    1.111   .     S
C136   H373    1.110   .     S
C136   H374    1.111   .     S
C137   H376    1.113   .     S
C137   C138    1.521   .     S
C137   O584    1.413   .     S
C137   H375    1.115   .     S
C138   H379    1.110   .     S
C138   H377    1.111   .     S
C138   H380    1.111   .     S
C139   C140    1.521   .     S
C139   O585    1.413   .     S
C139   H381    1.113   .     S
C139   H382    1.115   .     S
C140   H384    1.110   .     S
C140   H383    1.111   .     S
C140   H385    1.111   .     S
C141   H386    1.113   .     S
C141   O586    1.413   .     S
C141   H387    1.116   .     S
C141   C142    1.520   .     S
C142   H390    1.110   .     S
C142   H388    1.111   .     S
C142   H391    1.111   .     S
C143   C144    1.521   .     S
C143   H392    1.116   .     S
C143   O587    1.413   .     S
C143   H393    1.113   .     S
C144   H395    1.110   .     S
C144   H394    1.111   .     S
C144   H396    1.111   .     S
C145   O588    1.413   .     S
C145   H398    1.113   .     S
C145   C147    1.521   .     S
C145   H397    1.115   .     S
C146   C777    1.464   1_455 S
C146   C617    1.411   1_455 A
C147   H401    1.110   .     S
C147   H399    1.111   .     S
C147   H402    1.111   .     S
C148   C149    1.521   .     S
C148   H403    1.114   .     S
C148   H404    1.115   .     S
C148   O491    1.413   .     S
C149   H406    1.110   .     S
C149   H405    1.111   .     S
C149   H407    1.111   .     S
C150   C672    1.411   1_455 S
C150   C778    1.465   1_455 S
C151   C230    1.403   .     A
C151   H233    1.083   .     S
C151   C157    1.389   .     A
C152   C231    1.403   .     A
C152   C155    1.389   .     A
C152   H344    1.083   .     S
C153   C232    1.403   .     A
C153   H412    1.083   .     S
C153   C159    1.389   .     A
C154   C158    1.389   .     A
C154   H423    1.083   .     S
C155   H434    1.083   .     S
C156   O575    1.386   .     S
C156   C1309   1.411   1_545 S
C157   H445    1.083   .     S
C158   H456    1.083   .     S
C159   H467    1.083   .     S
C160   H478    1.083   .     S
C160   C165    1.389   1_556 S
C161   H234    1.083   .     S
C161   C164    1.389   1_554 S
C162   H245    1.083   .     S
C162   C168    1.389   1_556 S
C163   H256    1.083   .     S
C163   C166    1.389   1_554 S
C164   H267    1.083   .     S
C164   C161    1.389   1_556 S
C165   H278    1.083   .     S
C165   C160    1.389   1_554 S
C166   H289    1.083   .     S
C166   C163    1.389   1_556 S
C167   O576    1.386   .     S
C167   C1321   1.411   .     A
C168   H300    1.083   .     S
C168   C162    1.389   1_554 S
C169   O534    1.279   .     A
C169   O1786   1.279   .     S
C170   O545    1.280   .     A
C170   O1698   1.279   1_545 S
C171   O492    1.277   .     A
C171   O1160   1.276   .     S
C172   O493    1.277   .     A
C172   O1171   1.277   1_455 S
C173   C750    1.464   .     S
C173   O1098   1.279   .     S
C173   O1102   1.279   .     S
C174   O1099   1.280   .     A
C174   C754    1.465   .     S
C174   O1103   1.279   .     S
C175   O1704   1.276   .     S
C175   O1708   1.277   .     S
C176   O497    1.277   .     A
C176   O502    1.277   .     A
C177   O503    1.279   .     A
C177   O531    1.279   .     A
C178   O577    1.385   .     S
C178   C230    1.402   .     A
C178   C683    1.411   1_455 S
C179   O532    1.279   .     A
C179   O504    1.279   .     A
C180   O529    1.275   .     A
C180   O505    1.282   .     A
C181   O530    1.276   .     A
C181   O506    1.282   .     A
C182   O507    1.278   .     A
C182   O536    1.277   .     A
C183   O537    1.278   .     A
C183   O508    1.278   .     A
C184   O509    1.282   .     A
C184   O533    1.275   .     A
C185   O535    1.275   .     A
C185   O510    1.282   .     A
C186   O511    1.275   .     A
C186   O522    1.282   .     A
C187   O513    1.276   .     A
C187   O524    1.282   .     A
C188   O514    1.279   .     A
C188   O520    1.279   .     A
C189   O579    1.385   .     S
C189   C231    1.402   .     A
C189   C694    1.411   .     S
C190   O515    1.279   .     A
C190   O521    1.279   .     A
C191   O516    1.275   .     A
C191   O527    1.282   .     A
C192   O517    1.275   .     A
C192   O528    1.282   .     A
C193   O525    1.278   .     A
C193   O518    1.277   .     A
C194   O526    1.278   .     A
C194   O519    1.278   .     A
C195   C212    1.399   .     A
C195   O538    1.388   .     S
C196   C210    1.399   .     A
C196   O539    1.388   .     S
C197   O540    1.386   .     S
C197   C209    1.397   .     A
C198   O541    1.386   .     S
C198   C208    1.397   .     A
C199   O542    1.387   .     S
C199   C207    1.394   .     A
C200   O580    1.386   .     S
C200   C232    1.403   .     A
C201   C206    1.399   .     A
C201   O543    1.388   .     S
C202   O544    1.386   .     S
C202   C205    1.397   .     A
C203   C204    1.396   .     A
C203   O546    1.386   .     S
C204   O547    1.382   .     S
C205   O548    1.383   .     S
C206   O549    1.388   .     S
C207   O550    1.388   .     S
C208   O551    1.383   .     S
C209   O552    1.383   .     S
C210   O553    1.388   .     S
C211   O581    1.386   .     S
C212   O554    1.388   .     S
C213   C229    1.399   .     A
C213   O555    1.388   .     S
C214   O557    1.388   .     S
C214   C228    1.399   .     A
C215   O558    1.385   .     S
C215   C227    1.396   .     A
C216   C226    1.397   .     A
C216   O559    1.386   .     S
C217   C225    1.394   .     A
C217   O560    1.387   .     S
C218   O561    1.388   .     S
C218   C224    1.399   .     A
C219   O562    1.386   .     S
C219   C223    1.397   .     A
C220   O563    1.386   .     S
C220   C221    1.396   .     A
C221   O564    1.382   .     S
C222   O582    1.385   .     S
C222   C1332   1.411   1_545 S
C223   O565    1.383   .     S
C224   O566    1.388   .     S
C225   O568    1.388   .     S
C226   O569    1.383   .     S
C227   O570    1.383   .     S
C228   O571    1.388   .     S
C229   O572    1.388   .     S
C230   C638    1.412   1_455 S
C231   C640    1.412   .     S
C232   C1245   1.412   .     S
H413   C653    1.111   .     S
H417   C655    1.111   1_455 S
H436   C662    1.111   1_455 S
H440   C664    1.111   .     S
O489   Zn592   1.948   .     S
O489   Zn589   1.944   .     S
O489   Zn600   1.942   .     S
O489   Zn1804  1.947   1_545 S
O490   Zn591   1.954   .     S
O490   C1378   1.279   .     S
O492   Zn594   1.955   .     S
O493   Zn593   1.955   .     S
O494   Zn603   1.955   .     S
O494   C777    1.279   1_455 S
O495   C778    1.280   1_455 A
O495   Zn602   1.955   .     S
O496   C1383   1.276   1_545 S
O496   Zn597   1.954   .     S
O497   Zn589   1.954   .     S
O498   Zn599   1.954   .     S
O498   C777    1.279   1_455 S
O499   C778    1.279   1_455 S
O499   Zn598   1.954   .     S
O500   C1383   1.277   1_545 S
O500   Zn601   1.955   .     S
O501   Zn595   1.947   .     S
O501   Zn1799  1.948   1_545 S
O501   Zn597   1.944   .     S
O501   Zn601   1.942   .     S
O502   Zn600   1.955   .     S
O503   Zn592   1.923   .     S
O504   Zn591   1.923   .     S
O505   Zn594   1.937   .     S
O506   Zn593   1.937   .     S
O507   Zn596   1.922   .     S
O508   Zn595   1.922   .     S
O509   Zn590   1.936   .     S
O510   Zn604   1.936   .     S
O511   Zn591   1.934   .     S
O512   Zn602   1.947   .     S
O512   Zn598   1.948   .     S
O512   Zn1198  1.942   1_455 S
O512   Zn590   1.944   .     S
O513   Zn592   1.934   .     S
O514   Zn604   1.925   .     S
O515   Zn590   1.925   .     S
O516   Zn595   1.935   .     S
O517   Zn596   1.935   .     S
O518   Zn593   1.925   .     S
O519   Zn594   1.925   .     S
O520   Zn1203  1.923   .     S
O521   Zn598   1.923   .     S
O522   Zn1809  1.937   .     S
O523   Zn593   1.942   .     S
O523   Zn603   1.947   .     S
O523   Zn599   1.948   .     S
O523   Zn1208  1.944   1_455 S
O524   Zn600   1.937   .     S
O525   Zn603   1.922   .     S
O526   Zn1206  1.922   .     S
O527   Zn597   1.936   .     S
O528   Zn1797  1.936   .     S
O529   Zn1202  1.934   .     S
O530   Zn599   1.934   .     S
O531   Zn589   1.925   .     S
O532   Zn1805  1.925   .     S
O533   Zn602   1.935   .     S
O534   Zn596   1.955   .     S
O535   Zn1207  1.935   .     S
O536   Zn1808  1.925   .     S
O537   Zn601   1.925   .     S
O545   Zn595   1.955   .     S
O556   Zn590   1.954   .     S
O556   C775    1.276   1_455 S
O567   Zn604   1.954   .     S
O567   C776    1.277   .     S
O578   Zn592   1.954   .     S
O578   C1377   1.279   1_545 S
Zn589  O1736   1.936   1_545 S
Zn591  O1709   1.948   .     S
Zn594  O1116   1.942   .     S
Zn596  O1697   1.947   .     S
Zn597  O1740   1.925   1_545 S
Zn598  O1133   1.934   1_455 S
Zn599  O1124   1.923   1_455 S
Zn600  O1744   1.925   1_545 S
Zn601  O1730   1.937   1_545 S
Zn602  O1130   1.922   1_455 S
Zn603  O1139   1.935   1_455 S
Zn604  O1127   1.944   .     S
C605   C683    1.411   .     A
C605   C608    1.403   .     A
C605   O1177   1.386   .     S
C606   C618    1.403   .     A
C606   O1187   1.385   .     S
C606   C1947   1.411   .     S
C607   C815    1.403   .     A
C607   C758    1.403   .     A
C607   C642    1.412   .     A
C608   C759    1.403   .     A
C608   C638    1.412   .     A
C609   C640    1.412   .     A
C609   C716    1.403   .     A
C609   C761    1.403   .     A
C610   C762    1.403   .     A
C610   C641    1.412   .     A
C610   C760    1.403   .     A
C611   C763    1.403   .     A
C611   C771    1.403   .     A
C611   C1850   1.412   .     S
C612   C639    1.403   .     A
C612   C764    1.403   .     A
C612   C643    1.412   .     A
C613   C650    1.403   .     A
C613   C765    1.403   .     A
C613   C1852   1.412   1_545 S
C614   C766    1.403   .     A
C614   C645    1.412   .     A
C614   C661    1.403   .     A
C615   C672    1.403   .     A
C615   C767    1.403   .     A
C615   C42     1.412   1_655 S
C616   C826    1.403   .     A
C616   C768    1.403   .     A
C616   C1851   1.412   1_545 S
C617   O1188   1.386   .     S
C617   C146    1.411   1_655 A
C617   C619    1.403   .     A
C618   C769    1.403   .     A
C618   C644    1.412   .     A
C619   C770    1.403   .     A
C619   C41     1.412   1_655 S
C620   C772    1.403   .     A
C620   C628    1.403   .     A
C620   C646    1.412   .     A
C621   C788    1.455   .     S
C621   C816    1.411   .     A
C621   C818    1.411   .     A
C622   C814    1.411   .     A
C622   C789    1.455   .     S
C622   C817    1.411   .     A
C623   C781    1.444   .     S
C623   C813    1.406   .     A
C623   C820    1.407   .     A
C624   C819    1.406   .     A
C624   C783    1.444   .     S
C624   C812    1.406   .     A
C625   C822    1.412   .     A
C625   C784    1.453   .     S
C625   C811    1.414   .     A
C626   C785    1.456   .     S
C626   C821    1.410   .     A
C626   C810    1.411   .     A
C627   C786    1.443   .     S
C627   C824    1.406   .     A
C627   C809    1.406   .     A
C628   C754    1.411   .     A
C628   O1189   1.386   .     S
C629   C808    1.406   .     A
C629   C823    1.407   .     A
C629   C787    1.445   .     S
C630   C807    1.406   .     A
C630   C827    1.406   .     A
C630   C797    1.443   .     S
C631   C806    1.407   .     A
C631   C825    1.406   .     A
C631   C798    1.445   .     S
C632   C805    1.412   .     A
C632   C790    1.453   .     S
C632   C829    1.414   .     A
C633   C803    1.410   .     A
C633   C828    1.411   .     A
C633   C791    1.456   .     S
C634   C802    1.407   .     A
C634   C831    1.406   .     A
C634   C792    1.444   .     S
C635   C830    1.406   .     A
C635   C794    1.444   .     S
C635   C801    1.406   .     A
C636   C800    1.411   .     A
C636   C795    1.455   .     S
C636   C833    1.411   .     A
C637   C799    1.411   .     A
C637   C832    1.411   .     A
C637   C796    1.455   .     S
C638   C36     1.409   1_655 S
C638   C230    1.412   1_655 S
C639   C728    1.411   .     A
C639   O1190   1.385   .     S
C641   C642    1.410   .     A
C641   C2044   1.412   1_545 S
C642   C1819   1.412   1_545 S
C643   C1824   1.412   .     S
C643   C644    1.410   1_556 S
C644   C1821   1.412   .     S
C644   C643    1.410   1_554 S
C645   C646    1.410   1_556 S
C646   C645    1.410   1_554 S
C647   C648    1.522   .     S
C647   O1142   1.417   .     S
C647   H926    1.110   .     S
C647   H915    1.112   .     S
C648   H937    1.110   .     S
C648   H960    1.110   .     S
C648   H949    1.111   .     S
C649   O1143   1.417   .     S
C649   H982    1.112   .     S
C649   H971    1.110   .     S
C649   C651    1.522   .     S
C650   O1191   1.385   .     S
C650   C739    1.411   .     A
C651   H1012   1.110   .     S
C651   H1004   1.110   .     S
C651   H993    1.111   .     S
C652   H1014   1.109   .     S
C652   O1144   1.414   .     S
C652   H1013   1.116   .     S
C652   C653    1.521   .     S
C653   H1018   1.110   .     S
C653   H1015   1.111   .     S
C654   H1019   1.108   .     S
C654   H1020   1.116   .     S
C654   C655    1.522   .     S
C654   O1145   1.414   .     S
C655   H1022   1.111   .     S
C655   H1023   1.110   .     S
C655   H417    1.111   1_655 S
C656   C657    1.521   .     S
C656   O1146   1.415   .     S
C656   H1025   1.111   .     S
C656   H1024   1.110   .     S
C657   H1026   1.110   .     S
C657   H1029   1.110   .     S
C657   H1028   1.111   .     S
C658   H1030   1.110   .     S
C658   C659    1.522   .     S
C658   H1031   1.112   .     S
C658   O1147   1.418   .     S
C659   H1034   1.110   .     S
C659   H1033   1.111   .     S
C659   H1032   1.110   .     S
C660   O1148   1.414   .     S
C660   C662    1.522   .     S
C660   H1035   1.116   .     S
C660   H1036   1.109   .     S
C661   O1192   1.386   .     S
C661   C750    1.411   .     S
C662   H1039   1.111   .     S
C662   H1037   1.110   .     S
C662   H436    1.111   1_655 S
C663   O1150   1.414   .     S
C663   C664    1.522   .     S
C663   H1042   1.116   .     S
C663   H1041   1.108   .     S
C664   H1045   1.111   .     S
C664   H1043   1.110   .     S
C665   H1046   1.108   .     S
C665   O1151   1.414   .     S
C665   H1047   1.117   .     S
C665   C1874   1.516   1_545 S
C666   H1051   1.111   .     S
C666   H1050   1.110   .     S
C666   H1048   1.111   .     S
C666   C1873   1.516   .     S
C667   O1152   1.414   .     S
C667   H1053   1.108   .     S
C667   H1052   1.116   .     S
C667   C1876   1.518   .     S
C668   H1056   1.111   .     S
C668   H1054   1.111   .     S
C668   H1055   1.110   .     S
C668   C1875   1.518   1_545 S
C669   H1058   1.115   .     S
C669   H1057   1.110   .     S
C669   O1153   1.415   .     S
C669   C670    1.521   .     S
C670   H1059   1.111   .     S
C670   H1062   1.110   .     S
C670   H1061   1.109   .     S
C671   H1064   1.113   .     S
C671   C673    1.520   .     S
C671   O1154   1.415   .     S
C671   H1063   1.109   .     S
C672   O1095   1.386   .     S
C672   C150    1.411   1_655 S
C673   H1066   1.111   .     S
C673   H1065   1.110   .     S
C673   H1067   1.111   .     S
C674   H1068   1.109   .     S
C674   H1069   1.116   .     S
C674   O1155   1.414   .     S
C674   C1883   1.518   .     S
C675   H1073   1.111   .     S
C675   H1072   1.110   .     S
C675   H1070   1.111   .     S
C675   C1882   1.518   1_545 S
C676   H1074   1.116   .     S
C676   H1075   1.109   .     S
C676   O1156   1.414   .     S
C676   C1885   1.518   1_545 S
C677   H1078   1.111   .     S
C677   H1077   1.110   .     S
C677   H1076   1.111   .     S
C677   C1884   1.518   .     S
C678   H1080   1.115   .     S
C678   H1079   1.110   .     S
C678   O1157   1.415   .     S
C678   C679    1.521   .     S
C679   H1083   1.109   .     S
C679   H1081   1.111   .     S
C679   H1084   1.110   .     S
C680   H1086   1.110   .     S
C680   O1158   1.415   .     S
C680   H1085   1.115   .     S
C680   C681    1.521   .     S
C681   H1087   1.110   .     S
C681   H1089   1.111   .     S
C681   H1088   1.109   .     S
C682   C684    1.522   .     S
C682   H1090   1.112   .     S
C682   H1091   1.110   .     S
C682   O1159   1.417   .     S
C683   C775    1.464   .     S
C683   C178    1.411   1_655 S
C684   H840    1.110   .     S
C684   H839    1.111   .     S
C684   H1092   1.110   .     S
C685   H842    1.112   .     S
C685   H841    1.110   .     S
C685   C686    1.522   .     S
C685   O1161   1.417   .     S
C686   H843    1.111   .     S
C686   H845    1.110   .     S
C686   H844    1.110   .     S
C687   H846    1.116   .     S
C687   C688    1.521   .     S
C687   H847    1.109   .     S
C687   O1162   1.414   .     S
C688   H851    1.110   .     S
C688   H848    1.111   .     S
C688   H850    1.111   .     S
C689   H852    1.108   .     S
C689   O1163   1.414   .     S
C689   H853    1.116   .     S
C689   C690    1.522   .     S
C690   H855    1.111   .     S
C690   H856    1.110   .     S
C690   H854    1.111   .     S
C691   H858    1.111   .     S
C691   C692    1.521   .     S
C691   H857    1.110   .     S
C691   O1164   1.415   .     S
C692   H861    1.111   .     S
C692   H859    1.110   .     S
C692   H862    1.110   .     S
C693   H863    1.110   .     S
C693   C695    1.522   .     S
C693   H864    1.112   .     S
C693   O1165   1.418   .     S
C694   C776    1.464   .     S
C694   C716    1.411   .     A
C695   H867    1.110   .     S
C695   H865    1.110   .     S
C695   H866    1.111   .     S
C696   O1166   1.414   .     S
C696   H869    1.109   .     S
C696   C697    1.522   .     S
C696   H868    1.116   .     S
C697   H873    1.111   .     S
C697   H872    1.111   .     S
C697   H870    1.110   .     S
C698   O1167   1.414   .     S
C698   H874    1.108   .     S
C698   C699    1.522   .     S
C698   H875    1.116   .     S
C699   H877    1.111   .     S
C699   H876    1.111   .     S
C699   H878    1.110   .     S
C700   O1168   1.414   .     S
C700   H880    1.117   .     S
C700   C701    1.516   .     S
C700   H879    1.108   .     S
C701   H884    1.111   .     S
C701   H881    1.111   .     S
C701   H883    1.110   .     S
C702   C703    1.518   .     S
C702   H885    1.116   .     S
C702   H886    1.108   .     S
C702   O1169   1.414   .     S
C703   H888    1.110   .     S
C703   H889    1.111   .     S
C703   H887    1.111   .     S
C704   H891    1.115   .     S
C704   H890    1.110   .     S
C704   O1170   1.415   .     S
C704   C706    1.521   .     S
C705   C804    1.411   .     A
C705   C773    1.464   .     S
C705   C1968   1.411   .     S
C706   H895    1.111   .     S
C706   H892    1.111   .     S
C706   H894    1.109   .     S
C707   H897    1.113   .     S
C707   H896    1.108   .     S
C707   C708    1.521   .     S
C707   O1172   1.415   .     S
C708   H899    1.111   .     S
C708   H898    1.110   .     S
C708   H900    1.111   .     S
C709   O1173   1.414   .     S
C709   H902    1.117   .     S
C709   C710    1.518   .     S
C709   H901    1.109   .     S
C710   H905    1.110   .     S
C710   H906    1.111   .     S
C710   H903    1.111   .     S
C711   O1174   1.414   .     S
C711   H907    1.117   .     S
C711   C712    1.518   .     S
C711   H908    1.109   .     S
C712   H910    1.110   .     S
C712   H909    1.111   .     S
C712   H911    1.111   .     S
C713   H912    1.110   .     S
C713   O1175   1.415   .     S
C713   C714    1.521   .     S
C713   H913    1.115   .     S
C714   H916    1.109   .     S
C714   H914    1.111   .     S
C714   H917    1.110   .     S
C715   H918    1.115   .     S
C715   C718    1.521   .     S
C715   O1176   1.415   .     S
C715   H919    1.110   .     S
C716   O1178   1.385   .     S
C717   C1979   1.411   1_545 A
C717   C774    1.465   .     S
C717   C815    1.411   .     S
C718   H920    1.110   .     S
C718   H921    1.109   .     S
C718   H922    1.111   .     S
C719   H924    1.116   .     S
C719   C720    1.521   .     S
C719   O1177   1.413   .     S
C719   H923    1.113   .     S
C720   H925    1.111   .     S
C720   H927    1.110   .     S
C720   H928    1.111   .     S
C721   H930    1.113   .     S
C721   O1178   1.413   .     S
C721   C722    1.521   .     S
C721   H929    1.116   .     S
C722   H931    1.111   .     S
C722   H933    1.111   .     S
C722   H932    1.110   .     S
C723   H934    1.115   .     S
C723   C724    1.521   .     S
C723   H935    1.113   .     S
C723   O1179   1.413   .     S
C724   H938    1.110   .     S
C724   H936    1.111   .     S
C724   H939    1.111   .     S
C725   H940    1.113   .     S
C725   H941    1.115   .     S
C725   C726    1.521   .     S
C725   O1180   1.413   .     S
C726   H942    1.111   .     S
C726   H943    1.110   .     S
C726   H944    1.111   .     S
C727   H945    1.113   .     S
C727   O1181   1.413   .     S
C727   C729    1.521   .     S
C727   H946    1.116   .     S
C728   C779    1.464   .     S
C728   C2034   1.411   .     S
C729   H950    1.110   .     S
C729   H951    1.111   .     S
C729   H947    1.111   .     S
C730   C731    1.521   .     S
C730   H953    1.113   .     S
C730   O1183   1.413   .     S
C730   H952    1.116   .     S
C731   H955    1.110   .     S
C731   H956    1.111   .     S
C731   H954    1.111   .     S
C732   C733    1.521   .     S
C732   H958    1.113   .     S
C732   O1184   1.413   .     S
C732   H957    1.115   .     S
C733   H959    1.111   .     S
C733   H961    1.110   .     S
C733   H962    1.111   .     S
C734   O1185   1.413   .     S
C734   C735    1.521   .     S
C734   H963    1.114   .     S
C734   H964    1.115   .     S
C735   H966    1.110   .     S
C735   H967    1.111   .     S
C735   H965    1.111   .     S
C736   H969    1.116   .     S
C736   O1186   1.413   .     S
C736   H968    1.113   .     S
C736   C737    1.521   .     S
C737   H970    1.111   .     S
C737   H972    1.110   .     S
C737   H973    1.111   .     S
C738   O1187   1.413   .     S
C738   H974    1.116   .     S
C738   C740    1.521   .     S
C738   H975    1.113   .     S
C739   C780    1.464   .     S
C739   C1814   1.411   1_545 S
C740   H976    1.111   .     S
C740   H977    1.110   .     S
C740   H978    1.111   .     S
C741   H980    1.113   .     S
C741   C742    1.521   .     S
C741   O1188   1.413   .     S
C741   H979    1.115   .     S
C742   H983    1.110   .     S
C742   H981    1.111   .     S
C742   H984    1.111   .     S
C743   C744    1.521   .     S
C743   O1189   1.413   .     S
C743   H985    1.113   .     S
C743   H986    1.115   .     S
C744   H988    1.110   .     S
C744   H987    1.111   .     S
C744   H989    1.111   .     S
C745   H990    1.113   .     S
C745   O1190   1.413   .     S
C745   H991    1.116   .     S
C745   C746    1.520   .     S
C746   H994    1.110   .     S
C746   H992    1.111   .     S
C746   H995    1.111   .     S
C747   C748    1.521   .     S
C747   H996    1.116   .     S
C747   O1191   1.413   .     S
C747   H997    1.113   .     S
C748   H999    1.110   .     S
C748   H998    1.111   .     S
C748   H1000   1.111   .     S
C749   O1192   1.413   .     S
C749   H1002   1.113   .     S
C749   C751    1.521   .     S
C749   H1001   1.115   .     S
C751   H1005   1.110   .     S
C751   H1003   1.111   .     S
C751   H1006   1.111   .     S
C752   C753    1.521   .     S
C752   H1007   1.114   .     S
C752   H1008   1.115   .     S
C752   O1095   1.413   .     S
C753   H1010   1.110   .     S
C753   H1009   1.111   .     S
C753   H1011   1.111   .     S
C755   C834    1.403   .     A
C755   H837    1.083   .     S
C755   C761    1.389   .     A
C756   C835    1.403   .     A
C756   C759    1.389   .     A
C756   H948    1.083   .     S
C757   C836    1.403   .     A
C757   H1016   1.083   .     S
C757   C763    1.389   .     A
C758   C762    1.389   .     A
C758   H1027   1.083   .     S
C759   H1038   1.083   .     S
C760   O1179   1.386   .     S
C760   C1913   1.411   1_545 S
C761   H1049   1.083   .     S
C762   H1060   1.083   .     S
C763   H1071   1.083   .     S
C764   H1082   1.083   .     S
C764   C769    1.389   1_556 S
C765   H838    1.083   .     S
C765   C768    1.389   1_554 S
C766   H849    1.083   .     S
C766   C772    1.389   1_556 S
C767   H860    1.083   .     S
C767   C770    1.389   1_554 S
C768   H871    1.083   .     S
C768   C765    1.389   1_556 S
C769   H882    1.083   .     S
C769   C764    1.389   1_554 S
C770   H893    1.083   .     S
C770   C767    1.389   1_556 S
C771   O1180   1.386   .     S
C771   C1925   1.411   .     A
C772   H904    1.083   .     S
C772   C766    1.389   1_554 S
C773   O1138   1.279   .     A
C773   O2390   1.279   .     S
C774   O1149   1.280   .     A
C774   O2302   1.279   1_545 S
C775   O1096   1.277   .     A
C775   O556    1.276   1_655 S
C776   O1097   1.277   .     A
C777   C146    1.464   1_655 S
C777   O494    1.279   1_655 S
C777   O498    1.279   1_655 S
C778   O495    1.280   1_655 A
C778   C150    1.465   1_655 S
C778   O499    1.279   1_655 S
C779   O2308   1.276   .     S
C779   O2312   1.277   .     S
C780   O1101   1.277   .     A
C780   O1106   1.277   .     A
C781   O1107   1.279   .     A
C781   O1135   1.279   .     A
C782   O1181   1.385   .     S
C782   C834    1.402   .     A
C783   O1136   1.279   .     A
C783   O1108   1.279   .     A
C784   O1133   1.275   .     A
C784   O1109   1.282   .     A
C785   O1134   1.276   .     A
C785   O1110   1.282   .     A
C786   O1111   1.278   .     A
C786   O1140   1.277   .     A
C787   O1141   1.278   .     A
C787   O1112   1.278   .     A
C788   O1113   1.282   .     A
C788   O1137   1.275   .     A
C789   O1139   1.275   .     A
C789   O1114   1.282   .     A
C790   O1115   1.275   .     A
C790   O1126   1.282   .     A
C791   O1117   1.276   .     A
C791   O1128   1.282   .     A
C792   O1118   1.279   .     A
C792   O1124   1.279   .     A
C793   O1183   1.385   .     S
C793   C835    1.402   .     A
C793   C90     1.411   1_655 S
C794   O1119   1.279   .     A
C794   O1125   1.279   .     A
C795   O1120   1.275   .     A
C795   O1131   1.282   .     A
C796   O1121   1.275   .     A
C796   O1132   1.282   .     A
C797   O1129   1.278   .     A
C797   O1122   1.277   .     A
C798   O1130   1.278   .     A
C798   O1123   1.278   .     A
C799   C816    1.399   .     A
C799   O1142   1.388   .     S
C800   C814    1.399   .     A
C800   O1143   1.388   .     S
C801   O1144   1.386   .     S
C801   C813    1.397   .     A
C802   O1145   1.386   .     S
C802   C812    1.397   .     A
C803   O1146   1.387   .     S
C803   C811    1.394   .     A
C804   O1184   1.386   .     S
C804   C836    1.403   .     A
C805   C810    1.399   .     A
C805   O1147   1.388   .     S
C806   O1148   1.386   .     S
C806   C809    1.397   .     A
C807   C808    1.396   .     A
C807   O1150   1.386   .     S
C808   O1151   1.382   .     S
C809   O1152   1.383   .     S
C810   O1153   1.388   .     S
C811   O1154   1.388   .     S
C812   O1155   1.383   .     S
C813   O1156   1.383   .     S
C814   O1157   1.388   .     S
C815   O1185   1.386   .     S
C816   O1158   1.388   .     S
C817   C833    1.399   .     A
C817   O1159   1.388   .     S
C818   O1161   1.388   .     S
C818   C832    1.399   .     A
C819   O1162   1.385   .     S
C819   C831    1.396   .     A
C820   C830    1.397   .     A
C820   O1163   1.386   .     S
C821   C829    1.394   .     A
C821   O1164   1.387   .     S
C822   O1165   1.388   .     S
C822   C828    1.399   .     A
C823   O1166   1.386   .     S
C823   C827    1.397   .     A
C824   O1167   1.386   .     S
C824   C825    1.396   .     A
C825   O1168   1.382   .     S
C826   O1186   1.385   .     S
C826   C1936   1.411   1_545 S
C827   O1169   1.383   .     S
C828   O1170   1.388   .     S
C829   O1172   1.388   .     S
C830   O1173   1.383   .     S
C831   O1174   1.383   .     S
C832   O1175   1.388   .     S
C833   O1176   1.388   .     S
C835   C36     1.412   1_655 S
C836   C1849   1.412   .     S
H1017  C49     1.111   1_655 S
H1044  C60     1.111   1_655 S
O1093  Zn1196  1.948   .     S
O1093  Zn1193  1.944   .     S
O1093  Zn1204  1.942   .     S
O1093  Zn2408  1.947   1_545 S
O1094  Zn1195  1.954   .     S
O1094  C1982   1.279   .     S
O1096  Zn1198  1.955   .     S
O1097  Zn1197  1.955   .     S
O1098  Zn1207  1.955   .     S
O1099  Zn1206  1.955   .     S
O1100  C1987   1.276   1_545 S
O1100  Zn1201  1.954   .     S
O1101  Zn1193  1.954   .     S
O1102  Zn1203  1.954   .     S
O1103  Zn1202  1.954   .     S
O1104  C1987   1.277   1_545 S
O1104  Zn1205  1.955   .     S
O1105  Zn1199  1.947   .     S
O1105  Zn2403  1.948   1_545 S
O1105  Zn1201  1.944   .     S
O1105  Zn1205  1.942   .     S
O1106  Zn1204  1.955   .     S
O1107  Zn1196  1.923   .     S
O1108  Zn1195  1.923   .     S
O1109  Zn1198  1.937   .     S
O1110  Zn1197  1.937   .     S
O1111  Zn1200  1.922   .     S
O1112  Zn1199  1.922   .     S
O1113  Zn1194  1.936   .     S
O1114  Zn1208  1.936   .     S
O1115  Zn1195  1.934   .     S
O1116  Zn1206  1.947   .     S
O1116  Zn1202  1.948   .     S
O1116  Zn1194  1.944   .     S
O1117  Zn1196  1.934   .     S
O1118  Zn1208  1.925   .     S
O1119  Zn1194  1.925   .     S
O1120  Zn1199  1.935   .     S
O1121  Zn1200  1.935   .     S
O1122  Zn1197  1.925   .     S
O1123  Zn1198  1.925   .     S
O1124  Zn599   1.923   1_655 S
O1125  Zn1202  1.923   .     S
O1126  Zn2413  1.937   .     S
O1127  Zn1197  1.942   .     S
O1127  Zn1207  1.947   .     S
O1127  Zn1203  1.948   .     S
O1128  Zn1204  1.937   .     S
O1129  Zn1207  1.922   .     S
O1130  Zn602   1.922   1_655 S
O1131  Zn1201  1.936   .     S
O1132  Zn2401  1.936   .     S
O1133  Zn598   1.934   1_655 S
O1134  Zn1203  1.934   .     S
O1135  Zn1193  1.925   .     S
O1136  Zn2409  1.925   .     S
O1137  Zn1206  1.935   .     S
O1138  Zn1200  1.955   .     S
O1139  Zn603   1.935   1_655 S
O1140  Zn2412  1.925   .     S
O1141  Zn1205  1.925   .     S
O1149  Zn1199  1.955   .     S
O1160  Zn1194  1.954   .     S
O1171  Zn1208  1.954   .     S
O1171  C172    1.277   1_655 S
O1182  Zn1196  1.954   .     S
O1182  C1981   1.279   1_545 S
Zn1193 O2340   1.936   1_545 S
Zn1195 O2313   1.948   .     S
Zn1198 O512    1.942   1_655 S
Zn1200 O2301   1.947   .     S
Zn1201 O2344   1.925   1_545 S
Zn1204 O2348   1.925   1_545 S
Zn1205 O2334   1.937   1_545 S
Zn1208 O523    1.944   1_655 S
C1209  C1287   1.411   .     A
C1209  C1212   1.403   .     A
C1209  O1781   1.386   .     S
C1210  C1222   1.403   .     A
C1210  O1791   1.385   .     S
C1210  C135    1.411   1_565 S
C1211  C1419   1.403   .     A
C1211  C1362   1.403   .     A
C1211  C1246   1.412   .     A
C1212  C1363   1.403   .     A
C1212  C1242   1.412   .     A
C1213  C1244   1.412   .     A
C1213  C1320   1.403   .     A
C1213  C1365   1.403   .     A
C1214  C1366   1.403   .     A
C1214  C1245   1.412   .     A
C1214  C1364   1.403   .     A
C1215  C1367   1.403   .     A
C1215  C1375   1.403   .     A
C1215  C38     1.412   1_565 S
C1216  C1243   1.403   .     A
C1216  C1368   1.403   .     A
C1216  C1247   1.412   .     A
C1217  C1254   1.403   .     A
C1217  C1369   1.403   .     A
C1218  C1370   1.403   .     A
C1218  C1249   1.412   .     A
C1218  C1265   1.403   .     A
C1219  C1276   1.403   .     A
C1219  C1371   1.403   .     A
C1219  C1854   1.412   .     S
C1220  C1430   1.403   .     A
C1220  C1372   1.403   .     A
C1221  O1792   1.386   .     S
C1221  C1958   1.411   .     A
C1221  C1223   1.403   .     A
C1222  C1373   1.403   .     A
C1222  C1248   1.412   .     A
C1223  C1374   1.403   .     A
C1223  C1853   1.412   .     S
C1224  C1376   1.403   .     A
C1224  C1232   1.403   .     A
C1224  C1250   1.412   .     A
C1225  C1392   1.455   .     S
C1225  C1420   1.411   .     A
C1225  C1422   1.411   .     A
C1226  C1418   1.411   .     A
C1226  C1393   1.455   .     S
C1226  C1421   1.411   .     A
C1227  C1385   1.444   .     S
C1227  C1417   1.406   .     A
C1227  C1424   1.407   .     A
C1228  C1423   1.406   .     A
C1228  C1387   1.444   .     S
C1228  C1416   1.406   .     A
C1229  C1426   1.412   .     A
C1229  C1388   1.453   .     S
C1229  C1415   1.414   .     A
C1230  C1389   1.456   .     S
C1230  C1425   1.410   .     A
C1230  C1414   1.411   .     A
C1231  C1390   1.443   .     S
C1231  C1428   1.406   .     A
C1231  C1413   1.406   .     A
C1232  C1358   1.411   .     A
C1232  O1793   1.386   .     S
C1233  C1412   1.406   .     A
C1233  C1427   1.407   .     A
C1233  C1391   1.445   .     S
C1234  C1411   1.406   .     A
C1234  C1431   1.406   .     A
C1234  C1401   1.443   .     S
C1235  C1410   1.407   .     A
C1235  C1429   1.406   .     A
C1235  C1402   1.445   .     S
C1236  C1409   1.412   .     A
C1236  C1394   1.453   .     S
C1236  C1433   1.414   .     A
C1237  C1407   1.410   .     A
C1237  C1432   1.411   .     A
C1237  C1395   1.456   .     S
C1238  C1406   1.407   .     A
C1238  C1435   1.406   .     A
C1238  C1396   1.444   .     S
C1239  C1434   1.406   .     A
C1239  C1398   1.444   .     S
C1239  C1405   1.406   .     A
C1240  C1404   1.411   .     A
C1240  C1399   1.455   .     S
C1240  C1437   1.411   .     A
C1241  C1403   1.411   .     A
C1241  C1436   1.411   .     A
C1241  C1400   1.455   .     S
C1242  C1848   1.409   .     S
C1242  C2042   1.412   .     S
C1243  C1332   1.411   .     A
C1243  O1794   1.385   .     S
C1244  C1846   1.409   1_455 S
C1244  C2043   1.412   1_455 S
C1245  C1246   1.410   .     A
C1247  C12     1.412   1_565 S
C1247  C1248   1.410   1_556 S
C1248  C9      1.412   1_565 S
C1248  C1247   1.410   1_554 S
C1249  C1827   1.412   1_455 S
C1249  C1250   1.410   1_556 S
C1250  C1823   1.412   1_455 S
C1250  C1249   1.410   1_554 S
C1251  C1252   1.522   .     S
C1251  O1746   1.417   .     S
C1251  H1530   1.110   .     S
C1251  H1519   1.112   .     S
C1252  H1541   1.110   .     S
C1252  H1564   1.110   .     S
C1252  H1553   1.111   .     S
C1253  O1747   1.417   .     S
C1253  H1586   1.112   .     S
C1253  H1575   1.110   .     S
C1253  C1255   1.522   .     S
C1254  O1795   1.385   .     S
C1254  C1343   1.411   .     A
C1255  H1616   1.110   .     S
C1255  H1608   1.110   .     S
C1255  H1597   1.111   .     S
C1256  H1618   1.109   .     S
C1256  O1748   1.414   .     S
C1256  H1617   1.116   .     S
C1256  C1257   1.521   .     S
C1257  H1622   1.110   .     S
C1257  H1619   1.111   .     S
C1257  H2225   1.111   1_455 S
C1258  H1623   1.108   .     S
C1258  H1624   1.116   .     S
C1258  C1259   1.522   .     S
C1258  O1749   1.414   .     S
C1259  H1626   1.111   .     S
C1259  H1627   1.110   .     S
C1259  H2229   1.111   .     S
C1260  C1261   1.521   .     S
C1260  O1750   1.415   .     S
C1260  H1629   1.111   .     S
C1260  H1628   1.110   .     S
C1261  H1630   1.110   .     S
C1261  H1633   1.110   .     S
C1261  H1632   1.111   .     S
C1262  H1634   1.110   .     S
C1262  C1263   1.522   .     S
C1262  H1635   1.112   .     S
C1262  O1751   1.418   .     S
C1263  H1638   1.110   .     S
C1263  H1637   1.111   .     S
C1263  H1636   1.110   .     S
C1264  O1752   1.414   .     S
C1264  C1266   1.522   .     S
C1264  H1639   1.116   .     S
C1264  H1640   1.109   .     S
C1265  O1796   1.386   .     S
C1265  C1354   1.411   .     S
C1266  H1643   1.111   .     S
C1266  H1641   1.110   .     S
C1266  H2248   1.111   .     S
C1267  O1754   1.414   .     S
C1267  C1268   1.522   .     S
C1267  H1646   1.116   .     S
C1267  H1645   1.108   .     S
C1268  H1649   1.111   .     S
C1268  H1647   1.110   .     S
C1268  H2252   1.111   1_455 S
C1269  H1650   1.108   .     S
C1269  O1755   1.414   .     S
C1269  H1651   1.117   .     S
C1270  H1655   1.111   .     S
C1270  H1654   1.110   .     S
C1270  H1652   1.111   .     S
C1270  C61     1.516   1_565 S
C1271  O1756   1.414   .     S
C1271  H1657   1.108   .     S
C1271  H1656   1.116   .     S
C1271  C64     1.518   1_565 S
C1272  H1660   1.111   .     S
C1272  H1658   1.111   .     S
C1272  H1659   1.110   .     S
C1273  H1662   1.115   .     S
C1273  H1661   1.110   .     S
C1273  O1757   1.415   .     S
C1273  C1274   1.521   .     S
C1274  H1663   1.111   .     S
C1274  H1666   1.110   .     S
C1274  H1665   1.109   .     S
C1275  H1668   1.113   .     S
C1275  C1277   1.520   .     S
C1275  O1758   1.415   .     S
C1275  H1667   1.109   .     S
C1276  O1699   1.386   .     S
C1276  C1962   1.411   .     S
C1277  H1670   1.111   .     S
C1277  H1669   1.110   .     S
C1277  H1671   1.111   .     S
C1278  H1672   1.109   .     S
C1278  H1673   1.116   .     S
C1278  O1759   1.414   .     S
C1278  C71     1.518   1_565 S
C1279  H1677   1.111   .     S
C1279  H1676   1.110   .     S
C1279  H1674   1.111   .     S
C1280  H1678   1.116   .     S
C1280  H1679   1.109   .     S
C1280  O1760   1.414   .     S
C1281  H1682   1.111   .     S
C1281  H1681   1.110   .     S
C1281  H1680   1.111   .     S
C1281  C72     1.518   1_565 S
C1282  H1684   1.115   .     S
C1282  H1683   1.110   .     S
C1282  O1761   1.415   .     S
C1282  C1283   1.521   .     S
C1283  H1687   1.109   .     S
C1283  H1685   1.111   .     S
C1283  H1688   1.110   .     S
C1284  H1690   1.110   .     S
C1284  O1762   1.415   .     S
C1284  H1689   1.115   .     S
C1284  C1285   1.521   .     S
C1285  H1691   1.110   .     S
C1285  H1693   1.111   .     S
C1285  H1692   1.109   .     S
C1286  C1288   1.522   .     S
C1286  H1694   1.112   .     S
C1286  H1695   1.110   .     S
C1286  O1763   1.417   .     S
C1287  C1379   1.464   .     S
C1287  C1990   1.411   .     S
C1288  H1444   1.110   .     S
C1288  H1443   1.111   .     S
C1288  H1696   1.110   .     S
C1289  H1446   1.112   .     S
C1289  H1445   1.110   .     S
C1289  C1290   1.522   .     S
C1289  O1765   1.417   .     S
C1290  H1447   1.111   .     S
C1290  H1449   1.110   .     S
C1290  H1448   1.110   .     S
C1291  H1450   1.116   .     S
C1291  C1292   1.521   .     S
C1291  H1451   1.109   .     S
C1291  O1766   1.414   .     S
C1292  H1455   1.110   .     S
C1292  H1452   1.111   .     S
C1292  H1454   1.111   .     S
C1293  H1456   1.108   .     S
C1293  O1767   1.414   .     S
C1293  H1457   1.116   .     S
C1293  C1294   1.522   .     S
C1294  H1459   1.111   .     S
C1294  H1460   1.110   .     S
C1294  H1458   1.111   .     S
C1295  H1462   1.111   .     S
C1295  C1296   1.521   .     S
C1295  H1461   1.110   .     S
C1295  O1768   1.415   .     S
C1296  H1465   1.111   .     S
C1296  H1463   1.110   .     S
C1296  H1466   1.110   .     S
C1297  H1467   1.110   .     S
C1297  C1299   1.522   .     S
C1297  H1468   1.112   .     S
C1297  O1769   1.418   .     S
C1298  C1380   1.464   .     S
C1298  C1320   1.411   .     A
C1298  C2001   1.411   1_455 S
C1299  H1471   1.110   .     S
C1299  H1469   1.110   .     S
C1299  H1470   1.111   .     S
C1300  O1770   1.414   .     S
C1300  H1473   1.109   .     S
C1300  C1301   1.522   .     S
C1300  H1472   1.116   .     S
C1301  H1477   1.111   .     S
C1301  H1476   1.111   .     S
C1301  H1474   1.110   .     S
C1302  O1771   1.414   .     S
C1302  H1478   1.108   .     S
C1302  C1303   1.522   .     S
C1302  H1479   1.116   .     S
C1303  H1481   1.111   .     S
C1303  H1480   1.111   .     S
C1303  H1482   1.110   .     S
C1304  O1772   1.414   .     S
C1304  H1484   1.117   .     S
C1304  C1305   1.516   .     S
C1304  H1483   1.108   .     S
C1305  H1488   1.111   .     S
C1305  H1485   1.111   .     S
C1305  H1487   1.110   .     S
C1306  C1307   1.518   .     S
C1306  H1489   1.116   .     S
C1306  H1490   1.108   .     S
C1306  O1773   1.414   .     S
C1307  H1492   1.110   .     S
C1307  H1493   1.111   .     S
C1307  H1491   1.111   .     S
C1308  H1495   1.115   .     S
C1308  H1494   1.110   .     S
C1308  O1774   1.415   .     S
C1308  C1310   1.521   .     S
C1309  C1408   1.411   .     A
C1309  C1377   1.464   .     S
C1309  C156    1.411   1_565 S
C1310  H1499   1.111   .     S
C1310  H1496   1.111   .     S
C1310  H1498   1.109   .     S
C1311  H1501   1.113   .     S
C1311  H1500   1.108   .     S
C1311  C1312   1.521   .     S
C1311  O1776   1.415   .     S
C1312  H1503   1.111   .     S
C1312  H1502   1.110   .     S
C1312  H1504   1.111   .     S
C1313  O1777   1.414   .     S
C1313  H1506   1.117   .     S
C1313  C1314   1.518   .     S
C1313  H1505   1.109   .     S
C1314  H1509   1.110   .     S
C1314  H1510   1.111   .     S
C1314  H1507   1.111   .     S
C1315  O1778   1.414   .     S
C1315  H1511   1.117   .     S
C1315  C1316   1.518   .     S
C1315  H1512   1.109   .     S
C1316  H1514   1.110   .     S
C1316  H1513   1.111   .     S
C1316  H1515   1.111   .     S
C1317  H1516   1.110   .     S
C1317  O1779   1.415   .     S
C1317  C1318   1.521   .     S
C1317  H1517   1.115   .     S
C1318  H1520   1.109   .     S
C1318  H1518   1.111   .     S
C1318  H1521   1.110   .     S
C1319  H1522   1.115   .     S
C1319  C1322   1.521   .     S
C1319  O1780   1.415   .     S
C1319  H1523   1.110   .     S
C1320  O1782   1.385   .     S
C1321  C1378   1.465   .     S
C1321  C1419   1.411   .     S
C1322  H1524   1.110   .     S
C1322  H1525   1.109   .     S
C1322  H1526   1.111   .     S
C1323  H1528   1.116   .     S
C1323  C1324   1.521   .     S
C1323  O1781   1.413   .     S
C1323  H1527   1.113   .     S
C1324  H1529   1.111   .     S
C1324  H1531   1.110   .     S
C1324  H1532   1.111   .     S
C1325  H1534   1.113   .     S
C1325  O1782   1.413   .     S
C1325  C1326   1.521   .     S
C1325  H1533   1.116   .     S
C1326  H1535   1.111   .     S
C1326  H1537   1.111   .     S
C1326  H1536   1.110   .     S
C1327  H1538   1.115   .     S
C1327  C1328   1.521   .     S
C1327  H1539   1.113   .     S
C1327  O1783   1.413   .     S
C1328  H1542   1.110   .     S
C1328  H1540   1.111   .     S
C1328  H1543   1.111   .     S
C1329  H1544   1.113   .     S
C1329  H1545   1.115   .     S
C1329  C1330   1.521   .     S
C1329  O1784   1.413   .     S
C1330  H1546   1.111   .     S
C1330  H1547   1.110   .     S
C1330  H1548   1.111   .     S
C1331  H1549   1.113   .     S
C1331  O1785   1.413   .     S
C1331  C1333   1.521   .     S
C1331  H1550   1.116   .     S
C1332  C1383   1.464   .     S
C1332  C222    1.411   1_565 S
C1333  H1554   1.110   .     S
C1333  H1555   1.111   .     S
C1333  H1551   1.111   .     S
C1334  C1335   1.521   .     S
C1334  H1557   1.113   .     S
C1334  O1787   1.413   .     S
C1334  H1556   1.116   .     S
C1335  H1559   1.110   .     S
C1335  H1560   1.111   .     S
C1335  H1558   1.111   .     S
C1336  C1337   1.521   .     S
C1336  H1562   1.113   .     S
C1336  O1788   1.413   .     S
C1336  H1561   1.115   .     S
C1337  H1563   1.111   .     S
C1337  H1565   1.110   .     S
C1337  H1566   1.111   .     S
C1338  O1789   1.413   .     S
C1338  C1339   1.521   .     S
C1338  H1567   1.114   .     S
C1338  H1568   1.115   .     S
C1339  H1570   1.110   .     S
C1339  H1571   1.111   .     S
C1339  H1569   1.111   .     S
C1340  H1573   1.116   .     S
C1340  O1790   1.413   .     S
C1340  H1572   1.113   .     S
C1340  C1341   1.521   .     S
C1341  H1574   1.111   .     S
C1341  H1576   1.110   .     S
C1341  H1577   1.111   .     S
C1342  O1791   1.413   .     S
C1342  H1578   1.116   .     S
C1342  C1344   1.521   .     S
C1342  H1579   1.113   .     S
C1343  C1384   1.464   .     S
C1344  H1580   1.111   .     S
C1344  H1581   1.110   .     S
C1344  H1582   1.111   .     S
C1345  H1584   1.113   .     S
C1345  C1346   1.521   .     S
C1345  O1792   1.413   .     S
C1345  H1583   1.115   .     S
C1346  H1587   1.110   .     S
C1346  H1585   1.111   .     S
C1346  H1588   1.111   .     S
C1347  C1348   1.521   .     S
C1347  O1793   1.413   .     S
C1347  H1589   1.113   .     S
C1347  H1590   1.115   .     S
C1348  H1592   1.110   .     S
C1348  H1591   1.111   .     S
C1348  H1593   1.111   .     S
C1349  H1594   1.113   .     S
C1349  O1794   1.413   .     S
C1349  H1595   1.116   .     S
C1349  C1350   1.520   .     S
C1350  H1598   1.110   .     S
C1350  H1596   1.111   .     S
C1350  H1599   1.111   .     S
C1351  C1352   1.521   .     S
C1351  H1600   1.116   .     S
C1351  O1795   1.413   .     S
C1351  H1601   1.113   .     S
C1352  H1603   1.110   .     S
C1352  H1602   1.111   .     S
C1352  H1604   1.111   .     S
C1353  O1796   1.413   .     S
C1353  H1606   1.113   .     S
C1353  C1355   1.521   .     S
C1353  H1605   1.115   .     S
C1354  C1985   1.464   1_455 S
C1354  C1825   1.411   1_455 A
C1355  H1609   1.110   .     S
C1355  H1607   1.111   .     S
C1355  H1610   1.111   .     S
C1356  C1357   1.521   .     S
C1356  H1611   1.114   .     S
C1356  H1612   1.115   .     S
C1356  O1699   1.413   .     S
C1357  H1614   1.110   .     S
C1357  H1613   1.111   .     S
C1357  H1615   1.111   .     S
C1358  C1880   1.411   1_455 S
C1358  C1986   1.465   1_455 S
C1359  C1438   1.403   .     A
C1359  H1441   1.083   .     S
C1359  C1365   1.389   .     A
C1360  C1439   1.403   .     A
C1360  C1363   1.389   .     A
C1360  H1552   1.083   .     S
C1361  C1440   1.403   .     A
C1361  H1620   1.083   .     S
C1361  C1367   1.389   .     A
C1362  C1366   1.389   .     A
C1362  H1631   1.083   .     S
C1363  H1642   1.083   .     S
C1364  O1783   1.386   .     S
C1365  H1653   1.083   .     S
C1366  H1664   1.083   .     S
C1367  H1675   1.083   .     S
C1368  H1686   1.083   .     S
C1368  C1373   1.389   1_556 S
C1369  H1442   1.083   .     S
C1369  C1372   1.389   1_554 S
C1370  H1453   1.083   .     S
C1370  C1376   1.389   1_556 S
C1371  H1464   1.083   .     S
C1371  C1374   1.389   1_554 S
C1372  H1475   1.083   .     S
C1372  C1369   1.389   1_556 S
C1373  H1486   1.083   .     S
C1373  C1368   1.389   1_554 S
C1374  H1497   1.083   .     S
C1374  C1371   1.389   1_556 S
C1375  O1784   1.386   .     S
C1375  C113    1.411   1_565 A
C1376  H1508   1.083   .     S
C1376  C1370   1.389   1_554 S
C1377  O1742   1.279   .     A
C1377  O578    1.279   1_565 S
C1378  O1753   1.280   .     A
C1379  O1700   1.277   .     A
C1379  O2368   1.276   .     S
C1380  O1701   1.277   .     A
C1380  O2379   1.277   1_455 S
C1381  C1958   1.464   .     S
C1381  O2306   1.279   .     S
C1381  O2310   1.279   .     S
C1382  O2307   1.280   .     A
C1382  C1962   1.465   .     S
C1382  O2311   1.279   .     S
C1383  O496    1.276   1_565 S
C1383  O500    1.277   1_565 S
C1384  O1705   1.277   .     A
C1384  O1710   1.277   .     A
C1385  O1711   1.279   .     A
C1385  O1739   1.279   .     A
C1386  O1785   1.385   .     S
C1386  C1438   1.402   .     A
C1386  C1891   1.411   1_455 S
C1387  O1740   1.279   .     A
C1387  O1712   1.279   .     A
C1388  O1737   1.275   .     A
C1388  O1713   1.282   .     A
C1389  O1738   1.276   .     A
C1389  O1714   1.282   .     A
C1390  O1715   1.278   .     A
C1390  O1744   1.277   .     A
C1391  O1745   1.278   .     A
C1391  O1716   1.278   .     A
C1392  O1717   1.282   .     A
C1392  O1741   1.275   .     A
C1393  O1743   1.275   .     A
C1393  O1718   1.282   .     A
C1394  O1719   1.275   .     A
C1394  O1730   1.282   .     A
C1395  O1721   1.276   .     A
C1395  O1732   1.282   .     A
C1396  O1722   1.279   .     A
C1396  O1728   1.279   .     A
C1397  O1787   1.385   .     S
C1397  C1439   1.402   .     A
C1397  C1902   1.411   .     S
C1398  O1723   1.279   .     A
C1398  O1729   1.279   .     A
C1399  O1724   1.275   .     A
C1399  O1735   1.282   .     A
C1400  O1725   1.275   .     A
C1400  O1736   1.282   .     A
C1401  O1733   1.278   .     A
C1401  O1726   1.277   .     A
C1402  O1734   1.278   .     A
C1402  O1727   1.278   .     A
C1403  C1420   1.399   .     A
C1403  O1746   1.388   .     S
C1404  C1418   1.399   .     A
C1404  O1747   1.388   .     S
C1405  O1748   1.386   .     S
C1405  C1417   1.397   .     A
C1406  O1749   1.386   .     S
C1406  C1416   1.397   .     A
C1407  O1750   1.387   .     S
C1407  C1415   1.394   .     A
C1408  O1788   1.386   .     S
C1408  C1440   1.403   .     A
C1409  C1414   1.399   .     A
C1409  O1751   1.388   .     S
C1410  O1752   1.386   .     S
C1410  C1413   1.397   .     A
C1411  C1412   1.396   .     A
C1411  O1754   1.386   .     S
C1412  O1755   1.382   .     S
C1413  O1756   1.383   .     S
C1414  O1757   1.388   .     S
C1415  O1758   1.388   .     S
C1416  O1759   1.383   .     S
C1417  O1760   1.383   .     S
C1418  O1761   1.388   .     S
C1419  O1789   1.386   .     S
C1420  O1762   1.388   .     S
C1421  C1437   1.399   .     A
C1421  O1763   1.388   .     S
C1422  O1765   1.388   .     S
C1422  C1436   1.399   .     A
C1423  O1766   1.385   .     S
C1423  C1435   1.396   .     A
C1424  C1434   1.397   .     A
C1424  O1767   1.386   .     S
C1425  C1433   1.394   .     A
C1425  O1768   1.387   .     S
C1426  O1769   1.388   .     S
C1426  C1432   1.399   .     A
C1427  O1770   1.386   .     S
C1427  C1431   1.397   .     A
C1428  O1771   1.386   .     S
C1428  C1429   1.396   .     A
C1429  O1772   1.382   .     S
C1430  O1790   1.385   .     S
C1431  O1773   1.383   .     S
C1432  O1774   1.388   .     S
C1433  O1776   1.388   .     S
C1434  O1777   1.383   .     S
C1435  O1778   1.383   .     S
C1436  O1779   1.388   .     S
C1437  O1780   1.388   .     S
C1438  C1846   1.412   1_455 S
C1439  C1848   1.412   .     S
C1440  C37     1.412   1_565 S
H1621  C1861   1.111   .     S
H1625  C1863   1.111   1_455 S
H1644  C1870   1.111   1_455 S
H1648  C1872   1.111   .     S
O1697  Zn1800  1.948   .     S
O1697  Zn1797  1.944   .     S
O1697  Zn1808  1.942   .     S
O1698  Zn1799  1.954   .     S
O1698  C170    1.279   1_565 S
O1700  Zn1802  1.955   .     S
O1701  Zn1801  1.955   .     S
O1702  Zn1811  1.955   .     S
O1702  C1985   1.279   1_455 S
O1703  C1986   1.280   1_455 A
O1703  Zn1810  1.955   .     S
O1704  Zn1805  1.954   .     S
O1705  Zn1797  1.954   .     S
O1706  Zn1807  1.954   .     S
O1706  C1985   1.279   1_455 S
O1707  C1986   1.279   1_455 S
O1707  Zn1806  1.954   .     S
O1708  Zn1809  1.955   .     S
O1709  Zn1803  1.947   .     S
O1709  Zn1805  1.944   .     S
O1709  Zn1809  1.942   .     S
O1710  Zn1808  1.955   .     S
O1711  Zn1800  1.923   .     S
O1712  Zn1799  1.923   .     S
O1713  Zn1802  1.937   .     S
O1714  Zn1801  1.937   .     S
O1715  Zn1804  1.922   .     S
O1716  Zn1803  1.922   .     S
O1717  Zn1798  1.936   .     S
O1718  Zn1812  1.936   .     S
O1719  Zn1799  1.934   .     S
O1720  Zn1810  1.947   .     S
O1720  Zn1806  1.948   .     S
O1720  Zn2406  1.942   1_455 S
O1720  Zn1798  1.944   .     S
O1721  Zn1800  1.934   .     S
O1722  Zn1812  1.925   .     S
O1723  Zn1798  1.925   .     S
O1724  Zn1803  1.935   .     S
O1725  Zn1804  1.935   .     S
O1726  Zn1801  1.925   .     S
O1727  Zn1802  1.925   .     S
O1728  Zn2411  1.923   .     S
O1729  Zn1806  1.923   .     S
O1730  Zn601   1.937   1_565 S
O1731  Zn1801  1.942   .     S
O1731  Zn1811  1.947   .     S
O1731  Zn1807  1.948   .     S
O1731  Zn2416  1.944   1_455 S
O1732  Zn1808  1.937   .     S
O1733  Zn1811  1.922   .     S
O1734  Zn2414  1.922   .     S
O1735  Zn1805  1.936   .     S
O1736  Zn589   1.936   1_565 S
O1737  Zn2410  1.934   .     S
O1738  Zn1807  1.934   .     S
O1739  Zn1797  1.925   .     S
O1740  Zn597   1.925   1_565 S
O1741  Zn1810  1.935   .     S
O1742  Zn1804  1.955   .     S
O1743  Zn2415  1.935   .     S
O1744  Zn600   1.925   1_565 S
O1745  Zn1809  1.925   .     S
O1753  Zn1803  1.955   .     S
O1764  Zn1798  1.954   .     S
O1764  C1983   1.276   1_455 S
O1775  Zn1812  1.954   .     S
O1775  C1984   1.277   .     S
O1786  Zn1800  1.954   .     S
Zn1799 O501    1.948   1_565 S
Zn1802 O2324   1.942   .     S
Zn1804 O489    1.947   1_565 S
Zn1806 O2341   1.934   1_455 S
Zn1807 O2332   1.923   1_455 S
Zn1810 O2338   1.922   1_455 S
Zn1811 O2347   1.935   1_455 S
Zn1812 O2335   1.944   .     S
C1813  C1891   1.411   .     A
C1813  C1816   1.403   .     A
C1813  O2385   1.386   .     S
C1814  C1826   1.403   .     A
C1814  O2395   1.385   .     S
C1814  C739    1.411   1_565 S
C1815  C2023   1.403   .     A
C1815  C1966   1.403   .     A
C1815  C1850   1.412   .     A
C1816  C1967   1.403   .     A
C1816  C1846   1.412   .     A
C1817  C1848   1.412   .     A
C1817  C1924   1.403   .     A
C1817  C1969   1.403   .     A
C1818  C1970   1.403   .     A
C1818  C1849   1.412   .     A
C1818  C1968   1.403   .     A
C1819  C1971   1.403   .     A
C1819  C1979   1.403   .     A
C1819  C642    1.412   1_565 S
C1820  C1847   1.403   .     A
C1820  C1972   1.403   .     A
C1820  C1851   1.412   .     A
C1821  C1858   1.403   .     A
C1821  C1973   1.403   .     A
C1822  C1974   1.403   .     A
C1822  C1853   1.412   .     A
C1822  C1869   1.403   .     A
C1823  C1880   1.403   .     A
C1823  C1975   1.403   .     A
C1823  C1250   1.412   1_655 S
C1824  C2034   1.403   .     A
C1824  C1976   1.403   .     A
C1825  O2396   1.386   .     S
C1825  C1354   1.411   1_655 A
C1825  C1827   1.403   .     A
C1826  C1977   1.403   .     A
C1826  C1852   1.412   .     A
C1827  C1978   1.403   .     A
C1827  C1249   1.412   1_655 S
C1828  C1980   1.403   .     A
C1828  C1836   1.403   .     A
C1828  C1854   1.412   .     A
C1829  C1996   1.455   .     S
C1829  C2024   1.411   .     A
C1829  C2026   1.411   .     A
C1830  C2022   1.411   .     A
C1830  C1997   1.455   .     S
C1830  C2025   1.411   .     A
C1831  C1989   1.444   .     S
C1831  C2021   1.406   .     A
C1831  C2028   1.407   .     A
C1832  C2027   1.406   .     A
C1832  C1991   1.444   .     S
C1832  C2020   1.406   .     A
C1833  C2030   1.412   .     A
C1833  C1992   1.453   .     S
C1833  C2019   1.414   .     A
C1834  C1993   1.456   .     S
C1834  C2029   1.410   .     A
C1834  C2018   1.411   .     A
C1835  C1994   1.443   .     S
C1835  C2032   1.406   .     A
C1835  C2017   1.406   .     A
C1836  C1962   1.411   .     A
C1836  O2397   1.386   .     S
C1837  C2016   1.406   .     A
C1837  C2031   1.407   .     A
C1837  C1995   1.445   .     S
C1838  C2015   1.406   .     A
C1838  C2035   1.406   .     A
C1838  C2005   1.443   .     S
C1839  C2014   1.407   .     A
C1839  C2033   1.406   .     A
C1839  C2006   1.445   .     S
C1840  C2013   1.412   .     A
C1840  C1998   1.453   .     S
C1840  C2037   1.414   .     A
C1841  C2011   1.410   .     A
C1841  C2036   1.411   .     A
C1841  C1999   1.456   .     S
C1842  C2010   1.407   .     A
C1842  C2039   1.406   .     A
C1842  C2000   1.444   .     S
C1843  C2038   1.406   .     A
C1843  C2002   1.444   .     S
C1843  C2009   1.406   .     A
C1844  C2008   1.411   .     A
C1844  C2003   1.455   .     S
C1844  C2041   1.411   .     A
C1845  C2007   1.411   .     A
C1845  C2040   1.411   .     A
C1845  C2004   1.455   .     S
C1846  C1244   1.409   1_655 S
C1846  C1438   1.412   1_655 S
C1847  C1936   1.411   .     A
C1847  O2398   1.385   .     S
C1849  C1850   1.410   .     A
C1851  C616    1.412   1_565 S
C1851  C1852   1.410   1_556 S
C1852  C613    1.412   1_565 S
C1852  C1851   1.410   1_554 S
C1853  C1854   1.410   1_556 S
C1854  C1853   1.410   1_554 S
C1855  C1856   1.522   .     S
C1855  O2350   1.417   .     S
C1855  H2134   1.110   .     S
C1855  H2123   1.112   .     S
C1856  H2145   1.110   .     S
C1856  H2168   1.110   .     S
C1856  H2157   1.111   .     S
C1857  O2351   1.417   .     S
C1857  H2190   1.112   .     S
C1857  H2179   1.110   .     S
C1857  C1859   1.522   .     S
C1858  O2399   1.385   .     S
C1858  C1947   1.411   .     A
C1859  H2220   1.110   .     S
C1859  H2212   1.110   .     S
C1859  H2201   1.111   .     S
C1860  H2222   1.109   .     S
C1860  O2352   1.414   .     S
C1860  H2221   1.116   .     S
C1860  C1861   1.521   .     S
C1861  H2226   1.110   .     S
C1861  H2223   1.111   .     S
C1862  H2227   1.108   .     S
C1862  H2228   1.116   .     S
C1862  C1863   1.522   .     S
C1862  O2353   1.414   .     S
C1863  H2230   1.111   .     S
C1863  H2231   1.110   .     S
C1863  H1625   1.111   1_655 S
C1864  C1865   1.521   .     S
C1864  O2354   1.415   .     S
C1864  H2233   1.111   .     S
C1864  H2232   1.110   .     S
C1865  H2234   1.110   .     S
C1865  H2237   1.110   .     S
C1865  H2236   1.111   .     S
C1866  H2238   1.110   .     S
C1866  C1867   1.522   .     S
C1866  H2239   1.112   .     S
C1866  O2355   1.418   .     S
C1867  H2242   1.110   .     S
C1867  H2241   1.111   .     S
C1867  H2240   1.110   .     S
C1868  O2356   1.414   .     S
C1868  C1870   1.522   .     S
C1868  H2243   1.116   .     S
C1868  H2244   1.109   .     S
C1869  O2400   1.386   .     S
C1869  C1958   1.411   .     S
C1870  H2247   1.111   .     S
C1870  H2245   1.110   .     S
C1870  H1644   1.111   1_655 S
C1871  O2358   1.414   .     S
C1871  C1872   1.522   .     S
C1871  H2250   1.116   .     S
C1871  H2249   1.108   .     S
C1872  H2253   1.111   .     S
C1872  H2251   1.110   .     S
C1873  H2254   1.108   .     S
C1873  O2359   1.414   .     S
C1873  H2255   1.117   .     S
C1874  H2259   1.111   .     S
C1874  H2258   1.110   .     S
C1874  H2256   1.111   .     S
C1874  C665    1.516   1_565 S
C1875  O2360   1.414   .     S
C1875  H2261   1.108   .     S
C1875  H2260   1.116   .     S
C1875  C668    1.518   1_565 S
C1876  H2264   1.111   .     S
C1876  H2262   1.111   .     S
C1876  H2263   1.110   .     S
C1877  H2266   1.115   .     S
C1877  H2265   1.110   .     S
C1877  O2361   1.415   .     S
C1877  C1878   1.521   .     S
C1878  H2267   1.111   .     S
C1878  H2270   1.110   .     S
C1878  H2269   1.109   .     S
C1879  H2272   1.113   .     S
C1879  C1881   1.520   .     S
C1879  O2362   1.415   .     S
C1879  H2271   1.109   .     S
C1880  O2303   1.386   .     S
C1880  C1358   1.411   1_655 S
C1881  H2274   1.111   .     S
C1881  H2273   1.110   .     S
C1881  H2275   1.111   .     S
C1882  H2276   1.109   .     S
C1882  H2277   1.116   .     S
C1882  O2363   1.414   .     S
C1882  C675    1.518   1_565 S
C1883  H2281   1.111   .     S
C1883  H2280   1.110   .     S
C1883  H2278   1.111   .     S
C1884  H2282   1.116   .     S
C1884  H2283   1.109   .     S
C1884  O2364   1.414   .     S
C1885  H2286   1.111   .     S
C1885  H2285   1.110   .     S
C1885  H2284   1.111   .     S
C1885  C676    1.518   1_565 S
C1886  H2288   1.115   .     S
C1886  H2287   1.110   .     S
C1886  O2365   1.415   .     S
C1886  C1887   1.521   .     S
C1887  H2291   1.109   .     S
C1887  H2289   1.111   .     S
C1887  H2292   1.110   .     S
C1888  H2294   1.110   .     S
C1888  O2366   1.415   .     S
C1888  H2293   1.115   .     S
C1888  C1889   1.521   .     S
C1889  H2295   1.110   .     S
C1889  H2297   1.111   .     S
C1889  H2296   1.109   .     S
C1890  C1892   1.522   .     S
C1890  H2298   1.112   .     S
C1890  H2299   1.110   .     S
C1890  O2367   1.417   .     S
C1891  C1983   1.464   .     S
C1891  C1386   1.411   1_655 S
C1892  H2048   1.110   .     S
C1892  H2047   1.111   .     S
C1892  H2300   1.110   .     S
C1893  H2050   1.112   .     S
C1893  H2049   1.110   .     S
C1893  C1894   1.522   .     S
C1893  O2369   1.417   .     S
C1894  H2051   1.111   .     S
C1894  H2053   1.110   .     S
C1894  H2052   1.110   .     S
C1895  H2054   1.116   .     S
C1895  C1896   1.521   .     S
C1895  H2055   1.109   .     S
C1895  O2370   1.414   .     S
C1896  H2059   1.110   .     S
C1896  H2056   1.111   .     S
C1896  H2058   1.111   .     S
C1897  H2060   1.108   .     S
C1897  O2371   1.414   .     S
C1897  H2061   1.116   .     S
C1897  C1898   1.522   .     S
C1898  H2063   1.111   .     S
C1898  H2064   1.110   .     S
C1898  H2062   1.111   .     S
C1899  H2066   1.111   .     S
C1899  C1900   1.521   .     S
C1899  H2065   1.110   .     S
C1899  O2372   1.415   .     S
C1900  H2069   1.111   .     S
C1900  H2067   1.110   .     S
C1900  H2070   1.110   .     S
C1901  H2071   1.110   .     S
C1901  C1903   1.522   .     S
C1901  H2072   1.112   .     S
C1901  O2373   1.418   .     S
C1902  C1984   1.464   .     S
C1902  C1924   1.411   .     A
C1903  H2075   1.110   .     S
C1903  H2073   1.110   .     S
C1903  H2074   1.111   .     S
C1904  O2374   1.414   .     S
C1904  H2077   1.109   .     S
C1904  C1905   1.522   .     S
C1904  H2076   1.116   .     S
C1905  H2081   1.111   .     S
C1905  H2080   1.111   .     S
C1905  H2078   1.110   .     S
C1906  O2375   1.414   .     S
C1906  H2082   1.108   .     S
C1906  C1907   1.522   .     S
C1906  H2083   1.116   .     S
C1907  H2085   1.111   .     S
C1907  H2084   1.111   .     S
C1907  H2086   1.110   .     S
C1908  O2376   1.414   .     S
C1908  H2088   1.117   .     S
C1908  C1909   1.516   .     S
C1908  H2087   1.108   .     S
C1909  H2092   1.111   .     S
C1909  H2089   1.111   .     S
C1909  H2091   1.110   .     S
C1910  C1911   1.518   .     S
C1910  H2093   1.116   .     S
C1910  H2094   1.108   .     S
C1910  O2377   1.414   .     S
C1911  H2096   1.110   .     S
C1911  H2097   1.111   .     S
C1911  H2095   1.111   .     S
C1912  H2099   1.115   .     S
C1912  H2098   1.110   .     S
C1912  O2378   1.415   .     S
C1912  C1914   1.521   .     S
C1913  C2012   1.411   .     A
C1913  C1981   1.464   .     S
C1913  C760    1.411   1_565 S
C1914  H2103   1.111   .     S
C1914  H2100   1.111   .     S
C1914  H2102   1.109   .     S
C1915  H2105   1.113   .     S
C1915  H2104   1.108   .     S
C1915  C1916   1.521   .     S
C1915  O2380   1.415   .     S
C1916  H2107   1.111   .     S
C1916  H2106   1.110   .     S
C1916  H2108   1.111   .     S
C1917  O2381   1.414   .     S
C1917  H2110   1.117   .     S
C1917  C1918   1.518   .     S
C1917  H2109   1.109   .     S
C1918  H2113   1.110   .     S
C1918  H2114   1.111   .     S
C1918  H2111   1.111   .     S
C1919  O2382   1.414   .     S
C1919  H2115   1.117   .     S
C1919  C1920   1.518   .     S
C1919  H2116   1.109   .     S
C1920  H2118   1.110   .     S
C1920  H2117   1.111   .     S
C1920  H2119   1.111   .     S
C1921  H2120   1.110   .     S
C1921  O2383   1.415   .     S
C1921  C1922   1.521   .     S
C1921  H2121   1.115   .     S
C1922  H2124   1.109   .     S
C1922  H2122   1.111   .     S
C1922  H2125   1.110   .     S
C1923  H2126   1.115   .     S
C1923  C1926   1.521   .     S
C1923  O2384   1.415   .     S
C1923  H2127   1.110   .     S
C1924  O2386   1.385   .     S
C1925  C1982   1.465   .     S
C1925  C2023   1.411   .     S
C1926  H2128   1.110   .     S
C1926  H2129   1.109   .     S
C1926  H2130   1.111   .     S
C1927  H2132   1.116   .     S
C1927  C1928   1.521   .     S
C1927  O2385   1.413   .     S
C1927  H2131   1.113   .     S
C1928  H2133   1.111   .     S
C1928  H2135   1.110   .     S
C1928  H2136   1.111   .     S
C1929  H2138   1.113   .     S
C1929  O2386   1.413   .     S
C1929  C1930   1.521   .     S
C1929  H2137   1.116   .     S
C1930  H2139   1.111   .     S
C1930  H2141   1.111   .     S
C1930  H2140   1.110   .     S
C1931  H2142   1.115   .     S
C1931  C1932   1.521   .     S
C1931  H2143   1.113   .     S
C1931  O2387   1.413   .     S
C1932  H2146   1.110   .     S
C1932  H2144   1.111   .     S
C1932  H2147   1.111   .     S
C1933  H2148   1.113   .     S
C1933  H2149   1.115   .     S
C1933  C1934   1.521   .     S
C1933  O2388   1.413   .     S
C1934  H2150   1.111   .     S
C1934  H2151   1.110   .     S
C1934  H2152   1.111   .     S
C1935  H2153   1.113   .     S
C1935  O2389   1.413   .     S
C1935  C1937   1.521   .     S
C1935  H2154   1.116   .     S
C1936  C1987   1.464   .     S
C1936  C826    1.411   1_565 S
C1937  H2158   1.110   .     S
C1937  H2159   1.111   .     S
C1937  H2155   1.111   .     S
C1938  C1939   1.521   .     S
C1938  H2161   1.113   .     S
C1938  O2391   1.413   .     S
C1938  H2160   1.116   .     S
C1939  H2163   1.110   .     S
C1939  H2164   1.111   .     S
C1939  H2162   1.111   .     S
C1940  C1941   1.521   .     S
C1940  H2166   1.113   .     S
C1940  O2392   1.413   .     S
C1940  H2165   1.115   .     S
C1941  H2167   1.111   .     S
C1941  H2169   1.110   .     S
C1941  H2170   1.111   .     S
C1942  O2393   1.413   .     S
C1942  C1943   1.521   .     S
C1942  H2171   1.114   .     S
C1942  H2172   1.115   .     S
C1943  H2174   1.110   .     S
C1943  H2175   1.111   .     S
C1943  H2173   1.111   .     S
C1944  H2177   1.116   .     S
C1944  O2394   1.413   .     S
C1944  H2176   1.113   .     S
C1944  C1945   1.521   .     S
C1945  H2178   1.111   .     S
C1945  H2180   1.110   .     S
C1945  H2181   1.111   .     S
C1946  O2395   1.413   .     S
C1946  H2182   1.116   .     S
C1946  C1948   1.521   .     S
C1946  H2183   1.113   .     S
C1947  C1988   1.464   .     S
C1948  H2184   1.111   .     S
C1948  H2185   1.110   .     S
C1948  H2186   1.111   .     S
C1949  H2188   1.113   .     S
C1949  C1950   1.521   .     S
C1949  O2396   1.413   .     S
C1949  H2187   1.115   .     S
C1950  H2191   1.110   .     S
C1950  H2189   1.111   .     S
C1950  H2192   1.111   .     S
C1951  C1952   1.521   .     S
C1951  O2397   1.413   .     S
C1951  H2193   1.113   .     S
C1951  H2194   1.115   .     S
C1952  H2196   1.110   .     S
C1952  H2195   1.111   .     S
C1952  H2197   1.111   .     S
C1953  H2198   1.113   .     S
C1953  O2398   1.413   .     S
C1953  H2199   1.116   .     S
C1953  C1954   1.520   .     S
C1954  H2202   1.110   .     S
C1954  H2200   1.111   .     S
C1954  H2203   1.111   .     S
C1955  C1956   1.521   .     S
C1955  H2204   1.116   .     S
C1955  O2399   1.413   .     S
C1955  H2205   1.113   .     S
C1956  H2207   1.110   .     S
C1956  H2206   1.111   .     S
C1956  H2208   1.111   .     S
C1957  O2400   1.413   .     S
C1957  H2210   1.113   .     S
C1957  C1959   1.521   .     S
C1957  H2209   1.115   .     S
C1959  H2213   1.110   .     S
C1959  H2211   1.111   .     S
C1959  H2214   1.111   .     S
C1960  C1961   1.521   .     S
C1960  H2215   1.114   .     S
C1960  H2216   1.115   .     S
C1960  O2303   1.413   .     S
C1961  H2218   1.110   .     S
C1961  H2217   1.111   .     S
C1961  H2219   1.111   .     S
C1963  C2042   1.403   .     A
C1963  H2045   1.083   .     S
C1963  C1969   1.389   .     A
C1964  C2043   1.403   .     A
C1964  C1967   1.389   .     A
C1964  H2156   1.083   .     S
C1965  C2044   1.403   .     A
C1965  H2224   1.083   .     S
C1965  C1971   1.389   .     A
C1966  C1970   1.389   .     A
C1966  H2235   1.083   .     S
C1967  H2246   1.083   .     S
C1968  O2387   1.386   .     S
C1969  H2257   1.083   .     S
C1970  H2268   1.083   .     S
C1971  H2279   1.083   .     S
C1972  H2290   1.083   .     S
C1972  C1977   1.389   1_556 S
C1973  H2046   1.083   .     S
C1973  C1976   1.389   1_554 S
C1974  H2057   1.083   .     S
C1974  C1980   1.389   1_556 S
C1975  H2068   1.083   .     S
C1975  C1978   1.389   1_554 S
C1976  H2079   1.083   .     S
C1976  C1973   1.389   1_556 S
C1977  H2090   1.083   .     S
C1977  C1972   1.389   1_554 S
C1978  H2101   1.083   .     S
C1978  C1975   1.389   1_556 S
C1979  O2388   1.386   .     S
C1979  C717    1.411   1_565 A
C1980  H2112   1.083   .     S
C1980  C1974   1.389   1_554 S
C1981  O2346   1.279   .     A
C1981  O1182   1.279   1_565 S
C1982  O2357   1.280   .     A
C1983  O2304   1.277   .     A
C1983  O1764   1.276   1_655 S
C1984  O2305   1.277   .     A
C1985  C1354   1.464   1_655 S
C1985  O1702   1.279   1_655 S
C1985  O1706   1.279   1_655 S
C1986  O1703   1.280   1_655 A
C1986  C1358   1.465   1_655 S
C1986  O1707   1.279   1_655 S
C1987  O1100   1.276   1_565 S
C1987  O1104   1.277   1_565 S
C1988  O2309   1.277   .     A
C1988  O2314   1.277   .     A
C1989  O2315   1.279   .     A
C1989  O2343   1.279   .     A
C1990  O2389   1.385   .     S
C1990  C2042   1.402   .     A
C1991  O2344   1.279   .     A
C1991  O2316   1.279   .     A
C1992  O2341   1.275   .     A
C1992  O2317   1.282   .     A
C1993  O2342   1.276   .     A
C1993  O2318   1.282   .     A
C1994  O2319   1.278   .     A
C1994  O2348   1.277   .     A
C1995  O2349   1.278   .     A
C1995  O2320   1.278   .     A
C1996  O2321   1.282   .     A
C1996  O2345   1.275   .     A
C1997  O2347   1.275   .     A
C1997  O2322   1.282   .     A
C1998  O2323   1.275   .     A
C1998  O2334   1.282   .     A
C1999  O2325   1.276   .     A
C1999  O2336   1.282   .     A
C2000  O2326   1.279   .     A
C2000  O2332   1.279   .     A
C2001  O2391   1.385   .     S
C2001  C2043   1.402   .     A
C2001  C1298   1.411   1_655 S
C2002  O2327   1.279   .     A
C2002  O2333   1.279   .     A
C2003  O2328   1.275   .     A
C2003  O2339   1.282   .     A
C2004  O2329   1.275   .     A
C2004  O2340   1.282   .     A
C2005  O2337   1.278   .     A
C2005  O2330   1.277   .     A
C2006  O2338   1.278   .     A
C2006  O2331   1.278   .     A
C2007  C2024   1.399   .     A
C2007  O2350   1.388   .     S
C2008  C2022   1.399   .     A
C2008  O2351   1.388   .     S
C2009  O2352   1.386   .     S
C2009  C2021   1.397   .     A
C2010  O2353   1.386   .     S
C2010  C2020   1.397   .     A
C2011  O2354   1.387   .     S
C2011  C2019   1.394   .     A
C2012  O2392   1.386   .     S
C2012  C2044   1.403   .     A
C2013  C2018   1.399   .     A
C2013  O2355   1.388   .     S
C2014  O2356   1.386   .     S
C2014  C2017   1.397   .     A
C2015  C2016   1.396   .     A
C2015  O2358   1.386   .     S
C2016  O2359   1.382   .     S
C2017  O2360   1.383   .     S
C2018  O2361   1.388   .     S
C2019  O2362   1.388   .     S
C2020  O2363   1.383   .     S
C2021  O2364   1.383   .     S
C2022  O2365   1.388   .     S
C2023  O2393   1.386   .     S
C2024  O2366   1.388   .     S
C2025  C2041   1.399   .     A
C2025  O2367   1.388   .     S
C2026  O2369   1.388   .     S
C2026  C2040   1.399   .     A
C2027  O2370   1.385   .     S
C2027  C2039   1.396   .     A
C2028  C2038   1.397   .     A
C2028  O2371   1.386   .     S
C2029  C2037   1.394   .     A
C2029  O2372   1.387   .     S
C2030  O2373   1.388   .     S
C2030  C2036   1.399   .     A
C2031  O2374   1.386   .     S
C2031  C2035   1.397   .     A
C2032  O2375   1.386   .     S
C2032  C2033   1.396   .     A
C2033  O2376   1.382   .     S
C2034  O2394   1.385   .     S
C2035  O2377   1.383   .     S
C2036  O2378   1.388   .     S
C2037  O2380   1.388   .     S
C2038  O2381   1.383   .     S
C2039  O2382   1.383   .     S
C2040  O2383   1.388   .     S
C2041  O2384   1.388   .     S
C2043  C1244   1.412   1_655 S
C2044  C641    1.412   1_565 S
H2225  C1257   1.111   1_655 S
H2252  C1268   1.111   1_655 S
O2301  Zn2404  1.948   .     S
O2301  Zn2401  1.944   .     S
O2301  Zn2412  1.942   .     S
O2302  Zn2403  1.954   .     S
O2302  C774    1.279   1_565 S
O2304  Zn2406  1.955   .     S
O2305  Zn2405  1.955   .     S
O2306  Zn2415  1.955   .     S
O2307  Zn2414  1.955   .     S
O2308  Zn2409  1.954   .     S
O2309  Zn2401  1.954   .     S
O2310  Zn2411  1.954   .     S
O2311  Zn2410  1.954   .     S
O2312  Zn2413  1.955   .     S
O2313  Zn2407  1.947   .     S
O2313  Zn2409  1.944   .     S
O2313  Zn2413  1.942   .     S
O2314  Zn2412  1.955   .     S
O2315  Zn2404  1.923   .     S
O2316  Zn2403  1.923   .     S
O2317  Zn2406  1.937   .     S
O2318  Zn2405  1.937   .     S
O2319  Zn2408  1.922   .     S
O2320  Zn2407  1.922   .     S
O2321  Zn2402  1.936   .     S
O2322  Zn2416  1.936   .     S
O2323  Zn2403  1.934   .     S
O2324  Zn2414  1.947   .     S
O2324  Zn2410  1.948   .     S
O2324  Zn2402  1.944   .     S
O2325  Zn2404  1.934   .     S
O2326  Zn2416  1.925   .     S
O2327  Zn2402  1.925   .     S
O2328  Zn2407  1.935   .     S
O2329  Zn2408  1.935   .     S
O2330  Zn2405  1.925   .     S
O2331  Zn2406  1.925   .     S
O2332  Zn1807  1.923   1_655 S
O2333  Zn2410  1.923   .     S
O2334  Zn1205  1.937   1_565 S
O2335  Zn2405  1.942   .     S
O2335  Zn2415  1.947   .     S
O2335  Zn2411  1.948   .     S
O2336  Zn2412  1.937   .     S
O2337  Zn2415  1.922   .     S
O2338  Zn1810  1.922   1_655 S
O2339  Zn2409  1.936   .     S
O2340  Zn1193  1.936   1_565 S
O2341  Zn1806  1.934   1_655 S
O2342  Zn2411  1.934   .     S
O2343  Zn2401  1.925   .     S
O2344  Zn1201  1.925   1_565 S
O2345  Zn2414  1.935   .     S
O2346  Zn2408  1.955   .     S
O2347  Zn1811  1.935   1_655 S
O2348  Zn1204  1.925   1_565 S
O2349  Zn2413  1.925   .     S
O2357  Zn2407  1.955   .     S
O2368  Zn2402  1.954   .     S
O2379  Zn2416  1.954   .     S
O2379  C1380   1.277   1_655 S
O2390  Zn2404  1.954   .     S
Zn2403 O1105   1.948   1_565 S
Zn2406 O1720   1.942   1_655 S
Zn2408 O1093   1.947   1_565 S
Zn2416 O1731   1.944   1_655 S
