data_str_m3_o1_o1_pcu_sym.45
_audit_creation_date              2020-01-03
_audit_creation_method            'Materials Studio'
_symmetry_space_group_name_H-M    'P1'
_symmetry_Int_Tables_number       1
_symmetry_cell_setting            triclinic
loop_
_symmetry_equiv_pos_as_xyz
  x,y,z
_cell_length_a                    31.1427
_cell_length_b                    29.6503
_cell_length_c                    29.6351
_cell_angle_alpha                 90.0009
_cell_angle_beta                  90.9080
_cell_angle_gamma                 90.0000
loop_
_atom_site_label
_atom_site_type_symbol
_atom_site_fract_x
_atom_site_fract_y
_atom_site_fract_z
_atom_site_U_iso_or_equiv
_atom_site_adp_type
_atom_site_occupancy
Br1    Br    0.39710   0.16703   0.06543   0.00000  Uiso   1.00
Br2    Br    0.35290   0.08297   0.26790   0.00000  Uiso   1.00
Br3    Br    0.36790   0.06157   0.07429   0.00000  Uiso   1.00
Br4    Br    0.13210   0.43843   0.25904   0.00000  Uiso   1.00
Br5    Br    0.35291   0.41704   0.26790   0.00000  Uiso   1.00
Br6    Br    0.14709   0.08296   0.06543   0.00000  Uiso   1.00
Br7    Br    0.13210   0.06157   0.25904   0.00000  Uiso   1.00
Br8    Br    0.36790   0.43843   0.07429   0.00000  Uiso   1.00
Br9    Br    0.10290   0.33297   0.26790   0.00000  Uiso   1.00
Br10   Br    0.11790   0.31156   0.07430   0.00000  Uiso   1.00
Br11   Br    0.38210   0.18843   0.25904   0.00000  Uiso   1.00
Br12   Br    0.10291   0.16704   0.26790   0.00000  Uiso   1.00
Br13   Br    0.39709   0.33296   0.06543   0.00000  Uiso   1.00
Br14   Br    0.38210   0.31158   0.25904   0.00000  Uiso   1.00
Br15   Br    0.11790   0.18842   0.07429   0.00000  Uiso   1.00
Br16   Br    0.14710   0.41703   0.06543   0.00000  Uiso   1.00
C17    C     0.06282   0.19313   0.16707   0.00000  Uiso   1.00
C18    C     0.49884   0.21010   0.30925   0.00000  Uiso   1.00
C19    C     0.00115   0.21010   0.02408   0.00000  Uiso   1.00
C20    C     0.49885   0.28990   0.30925   0.00000  Uiso   1.00
C21    C     0.25115   0.03990   0.02408   0.00000  Uiso   1.00
C22    C     0.24884   0.46010   0.30925   0.00000  Uiso   1.00
C23    C     0.25115   0.46010   0.02408   0.00000  Uiso   1.00
C24    C     0.24884   0.03990   0.30925   0.00000  Uiso   1.00
C25    C     0.38942   0.14069   0.12474   0.00000  Uiso   1.00
C26    C     0.11058   0.35931   0.20860   0.00000  Uiso   1.00
C27    C     0.11701   0.35060   0.12676   0.00000  Uiso   1.00
C28    C     0.43718   0.30687   0.16626   0.00000  Uiso   1.00
C29    C     0.38299   0.14940   0.20657   0.00000  Uiso   1.00
C30    C     0.11058   0.14069   0.20860   0.00000  Uiso   1.00
C31    C     0.38942   0.35931   0.12474   0.00000  Uiso   1.00
C32    C     0.38299   0.35061   0.20657   0.00000  Uiso   1.00
C33    C     0.11701   0.14939   0.12676   0.00000  Uiso   1.00
C34    C     0.13942   0.39068   0.12474   0.00000  Uiso   1.00
C35    C     0.36058   0.10932   0.20860   0.00000  Uiso   1.00
C36    C     0.36701   0.10060   0.12676   0.00000  Uiso   1.00
C37    C     0.13299   0.39940   0.20657   0.00000  Uiso   1.00
C38    C     0.36058   0.39069   0.20860   0.00000  Uiso   1.00
C39    C     0.43718   0.19313   0.16626   0.00000  Uiso   1.00
C40    C     0.13941   0.10931   0.12474   0.00000  Uiso   1.00
C41    C     0.13299   0.10060   0.20657   0.00000  Uiso   1.00
C42    C     0.36701   0.39940   0.12676   0.00000  Uiso   1.00
C43    C     0.09900   0.33734   0.16795   0.00000  Uiso   1.00
C44    C     0.40100   0.16266   0.16538   0.00000  Uiso   1.00
C45    C     0.40100   0.33734   0.16538   0.00000  Uiso   1.00
C46    C     0.09900   0.16266   0.16795   0.00000  Uiso   1.00
C47    C     0.34900   0.08734   0.16795   0.00000  Uiso   1.00
C48    C     0.15100   0.41266   0.16538   0.00000  Uiso   1.00
C49    C     0.15100   0.08734   0.16538   0.00000  Uiso   1.00
C50    C     0.06282   0.30687   0.16707   0.00000  Uiso   1.00
C51    C     0.34900   0.41266   0.16795   0.00000  Uiso   1.00
C52    C     0.00867   0.33290   0.04868   0.00000  Uiso   1.00
C53    C     0.49133   0.16710   0.28466   0.00000  Uiso   1.00
C54    C     0.00867   0.16710   0.04867   0.00000  Uiso   1.00
C55    C     0.49133   0.33290   0.28466   0.00000  Uiso   1.00
C56    C     0.25867   0.08290   0.04868   0.00000  Uiso   1.00
C57    C     0.24133   0.41710   0.28466   0.00000  Uiso   1.00
C58    C     0.25867   0.41710   0.04867   0.00000  Uiso   1.00
C59    C     0.24133   0.08290   0.28466   0.00000  Uiso   1.00
C60    C     0.31282   0.44313   0.16707   0.00000  Uiso   1.00
C61    C     0.18718   0.05687   0.16626   0.00000  Uiso   1.00
C62    C     0.18718   0.44313   0.16626   0.00000  Uiso   1.00
C63    C     0.31282   0.05687   0.16707   0.00000  Uiso   1.00
C64    C     0.00116   0.28990   0.02408   0.00000  Uiso   1.00
H65    H     0.49484   0.33922   0.08100   0.00000  Uiso   1.00
H66    H     0.00515   0.16078   0.25233   0.00000  Uiso   1.00
H67    H     0.49485   0.16078   0.08100   0.00000  Uiso   1.00
H68    H     0.00515   0.33921   0.25233   0.00000  Uiso   1.00
H69    H     0.24485   0.08922   0.08100   0.00000  Uiso   1.00
H70    H     0.25515   0.41078   0.25233   0.00000  Uiso   1.00
H71    H     0.24485   0.41078   0.08100   0.00000  Uiso   1.00
H72    H     0.25515   0.08922   0.25233   0.00000  Uiso   1.00
N73    N    -0.00000   0.25000   0.28573   0.00000  Uiso   1.00
N74    N    -0.00000   0.25000   0.04760   0.00000  Uiso   1.00
N75    N     0.25000  -0.00000   0.28573   0.00000  Uiso   1.00
N76    N     0.25000  -0.00000   0.04760   0.00000  Uiso   1.00
O77    O     0.04580   0.20419   0.20487   0.00000  Uiso   1.00
O78    O     0.20419   0.04581   0.12846   0.00000  Uiso   1.00
O79    O     0.20419   0.04581   0.20487   0.00000  Uiso   1.00
O80    O     0.29580   0.45419   0.12846   0.00000  Uiso   1.00
O81    O     0.20419   0.45419   0.12846   0.00000  Uiso   1.00
O82    O     0.29580   0.04581   0.20487   0.00000  Uiso   1.00
O83    O     0.29580   0.04581   0.12846   0.00000  Uiso   1.00
O84    O     0.20419   0.45419   0.20487   0.00000  Uiso   1.00
O85    O     0.03183   0.36207   0.03309   0.00000  Uiso   1.00
O86    O     0.46817   0.13793   0.30024   0.00000  Uiso   1.00
O87    O     0.03181   0.13792   0.03308   0.00000  Uiso   1.00
O88    O     0.45419   0.29581   0.12846   0.00000  Uiso   1.00
O89    O     0.46819   0.36208   0.30025   0.00000  Uiso   1.00
O90    O     0.28182   0.11207   0.03309   0.00000  Uiso   1.00
O91    O     0.21818   0.38793   0.30024   0.00000  Uiso   1.00
O92    O     0.28182   0.38792   0.03309   0.00000  Uiso   1.00
O93    O     0.21818   0.11207   0.30025   0.00000  Uiso   1.00
O94    O     0.45419   0.29581   0.20487   0.00000  Uiso   1.00
O95    O     0.04580   0.20419   0.12846   0.00000  Uiso   1.00
O96    O     0.45419   0.20419   0.12846   0.00000  Uiso   1.00
O97    O     0.04580   0.29581   0.20487   0.00000  Uiso   1.00
O98    O     0.04580   0.29581   0.12846   0.00000  Uiso   1.00
O99    O     0.45419   0.20419   0.20487   0.00000  Uiso   1.00
O100   O     0.29580   0.45419   0.20487   0.00000  Uiso   1.00
Zn101  Zn   -0.00000   0.25000   0.21771   0.00000  Uiso   1.00
Zn102  Zn   -0.00000   0.25000   0.11563   0.00000  Uiso   1.00
Zn103  Zn    0.25000  -0.00000   0.21771   0.00000  Uiso   1.00
Zn104  Zn    0.25000  -0.00000   0.11563   0.00000  Uiso   1.00
Br105  Br    0.89710   0.16703   0.06543   0.00000  Uiso   1.00
Br106  Br    0.85290   0.08297   0.26790   0.00000  Uiso   1.00
Br107  Br    0.86790   0.06157   0.07429   0.00000  Uiso   1.00
Br108  Br    0.63210   0.43843   0.25904   0.00000  Uiso   1.00
Br109  Br    0.85291   0.41704   0.26790   0.00000  Uiso   1.00
Br110  Br    0.64709   0.08296   0.06543   0.00000  Uiso   1.00
Br111  Br    0.63210   0.06157   0.25904   0.00000  Uiso   1.00
Br112  Br    0.86790   0.43843   0.07429   0.00000  Uiso   1.00
Br113  Br    0.60290   0.33297   0.26790   0.00000  Uiso   1.00
Br114  Br    0.61790   0.31156   0.07430   0.00000  Uiso   1.00
Br115  Br    0.88210   0.18843   0.25904   0.00000  Uiso   1.00
Br116  Br    0.60291   0.16704   0.26790   0.00000  Uiso   1.00
Br117  Br    0.89709   0.33296   0.06543   0.00000  Uiso   1.00
Br118  Br    0.88210   0.31158   0.25904   0.00000  Uiso   1.00
Br119  Br    0.61790   0.18842   0.07429   0.00000  Uiso   1.00
Br120  Br    0.64710   0.41703   0.06543   0.00000  Uiso   1.00
C121   C     0.56282   0.19313   0.16707   0.00000  Uiso   1.00
C122   C     0.99884   0.21010   0.30925   0.00000  Uiso   1.00
C123   C     0.50115   0.21010   0.02408   0.00000  Uiso   1.00
C124   C     0.99885   0.28990   0.30925   0.00000  Uiso   1.00
C125   C     0.75115   0.03990   0.02408   0.00000  Uiso   1.00
C126   C     0.74884   0.46010   0.30925   0.00000  Uiso   1.00
C127   C     0.75115   0.46010   0.02408   0.00000  Uiso   1.00
C128   C     0.74884   0.03990   0.30925   0.00000  Uiso   1.00
C129   C     0.88942   0.14069   0.12474   0.00000  Uiso   1.00
C130   C     0.61058   0.35931   0.20860   0.00000  Uiso   1.00
C131   C     0.61701   0.35060   0.12676   0.00000  Uiso   1.00
C132   C     0.93718   0.30687   0.16626   0.00000  Uiso   1.00
C133   C     0.88299   0.14940   0.20657   0.00000  Uiso   1.00
C134   C     0.61058   0.14069   0.20860   0.00000  Uiso   1.00
C135   C     0.88942   0.35931   0.12474   0.00000  Uiso   1.00
C136   C     0.88299   0.35061   0.20657   0.00000  Uiso   1.00
C137   C     0.61701   0.14939   0.12676   0.00000  Uiso   1.00
C138   C     0.63942   0.39068   0.12474   0.00000  Uiso   1.00
C139   C     0.86058   0.10932   0.20860   0.00000  Uiso   1.00
C140   C     0.86701   0.10060   0.12676   0.00000  Uiso   1.00
C141   C     0.63299   0.39940   0.20657   0.00000  Uiso   1.00
C142   C     0.86058   0.39069   0.20860   0.00000  Uiso   1.00
C143   C     0.93718   0.19313   0.16626   0.00000  Uiso   1.00
C144   C     0.63941   0.10931   0.12474   0.00000  Uiso   1.00
C145   C     0.63299   0.10060   0.20657   0.00000  Uiso   1.00
C146   C     0.86701   0.39940   0.12676   0.00000  Uiso   1.00
C147   C     0.59900   0.33734   0.16795   0.00000  Uiso   1.00
C148   C     0.90100   0.16266   0.16538   0.00000  Uiso   1.00
C149   C     0.90100   0.33734   0.16538   0.00000  Uiso   1.00
C150   C     0.59900   0.16266   0.16795   0.00000  Uiso   1.00
C151   C     0.84900   0.08734   0.16795   0.00000  Uiso   1.00
C152   C     0.65100   0.41266   0.16538   0.00000  Uiso   1.00
C153   C     0.65100   0.08734   0.16538   0.00000  Uiso   1.00
C154   C     0.56282   0.30687   0.16707   0.00000  Uiso   1.00
C155   C     0.84900   0.41266   0.16795   0.00000  Uiso   1.00
C156   C     0.50867   0.33290   0.04868   0.00000  Uiso   1.00
C157   C     0.99133   0.16710   0.28466   0.00000  Uiso   1.00
C158   C     0.50867   0.16710   0.04867   0.00000  Uiso   1.00
C159   C     0.99133   0.33290   0.28466   0.00000  Uiso   1.00
C160   C     0.75867   0.08290   0.04868   0.00000  Uiso   1.00
C161   C     0.74133   0.41710   0.28466   0.00000  Uiso   1.00
C162   C     0.75867   0.41710   0.04867   0.00000  Uiso   1.00
C163   C     0.74133   0.08290   0.28466   0.00000  Uiso   1.00
C164   C     0.81282   0.44313   0.16707   0.00000  Uiso   1.00
C165   C     0.68718   0.05687   0.16626   0.00000  Uiso   1.00
C166   C     0.68718   0.44313   0.16626   0.00000  Uiso   1.00
C167   C     0.81282   0.05687   0.16707   0.00000  Uiso   1.00
C168   C     0.50116   0.28990   0.02408   0.00000  Uiso   1.00
H169   H     0.99484   0.33922   0.08100   0.00000  Uiso   1.00
H170   H     0.50515   0.16078   0.25233   0.00000  Uiso   1.00
H171   H     0.99485   0.16078   0.08100   0.00000  Uiso   1.00
H172   H     0.50515   0.33921   0.25233   0.00000  Uiso   1.00
H173   H     0.74485   0.08922   0.08100   0.00000  Uiso   1.00
H174   H     0.75515   0.41078   0.25233   0.00000  Uiso   1.00
H175   H     0.74485   0.41078   0.08100   0.00000  Uiso   1.00
H176   H     0.75515   0.08922   0.25233   0.00000  Uiso   1.00
N177   N     0.50000   0.25000   0.28573   0.00000  Uiso   1.00
N178   N     0.50000   0.25000   0.04760   0.00000  Uiso   1.00
N179   N     0.75000  -0.00000   0.28573   0.00000  Uiso   1.00
N180   N     0.75000  -0.00000   0.04760   0.00000  Uiso   1.00
O181   O     0.54580   0.20419   0.20487   0.00000  Uiso   1.00
O182   O     0.70419   0.04581   0.12846   0.00000  Uiso   1.00
O183   O     0.70419   0.04581   0.20487   0.00000  Uiso   1.00
O184   O     0.79580   0.45419   0.12846   0.00000  Uiso   1.00
O185   O     0.70419   0.45419   0.12846   0.00000  Uiso   1.00
O186   O     0.79580   0.04581   0.20487   0.00000  Uiso   1.00
O187   O     0.79580   0.04581   0.12846   0.00000  Uiso   1.00
O188   O     0.70419   0.45419   0.20487   0.00000  Uiso   1.00
O189   O     0.53183   0.36207   0.03309   0.00000  Uiso   1.00
O190   O     0.96817   0.13793   0.30024   0.00000  Uiso   1.00
O191   O     0.53181   0.13792   0.03308   0.00000  Uiso   1.00
O192   O     0.95419   0.29581   0.12846   0.00000  Uiso   1.00
O193   O     0.96819   0.36208   0.30025   0.00000  Uiso   1.00
O194   O     0.78182   0.11207   0.03309   0.00000  Uiso   1.00
O195   O     0.71818   0.38793   0.30024   0.00000  Uiso   1.00
O196   O     0.78182   0.38792   0.03309   0.00000  Uiso   1.00
O197   O     0.71818   0.11207   0.30025   0.00000  Uiso   1.00
O198   O     0.95419   0.29581   0.20487   0.00000  Uiso   1.00
O199   O     0.54580   0.20419   0.12846   0.00000  Uiso   1.00
O200   O     0.95419   0.20419   0.12846   0.00000  Uiso   1.00
O201   O     0.54580   0.29581   0.20487   0.00000  Uiso   1.00
O202   O     0.54580   0.29581   0.12846   0.00000  Uiso   1.00
O203   O     0.95419   0.20419   0.20487   0.00000  Uiso   1.00
O204   O     0.79580   0.45419   0.20487   0.00000  Uiso   1.00
Zn205  Zn    0.50000   0.25000   0.21771   0.00000  Uiso   1.00
Zn206  Zn    0.50000   0.25000   0.11563   0.00000  Uiso   1.00
Zn207  Zn    0.75000  -0.00000   0.21771   0.00000  Uiso   1.00
Zn208  Zn    0.75000  -0.00000   0.11563   0.00000  Uiso   1.00
Br209  Br    0.39710   0.66703   0.06543   0.00000  Uiso   1.00
Br210  Br    0.35290   0.58297   0.26790   0.00000  Uiso   1.00
Br211  Br    0.36790   0.56157   0.07429   0.00000  Uiso   1.00
Br212  Br    0.13210   0.93843   0.25904   0.00000  Uiso   1.00
Br213  Br    0.35291   0.91704   0.26790   0.00000  Uiso   1.00
Br214  Br    0.14709   0.58296   0.06543   0.00000  Uiso   1.00
Br215  Br    0.13210   0.56157   0.25904   0.00000  Uiso   1.00
Br216  Br    0.36790   0.93843   0.07429   0.00000  Uiso   1.00
Br217  Br    0.10290   0.83297   0.26790   0.00000  Uiso   1.00
Br218  Br    0.11790   0.81156   0.07430   0.00000  Uiso   1.00
Br219  Br    0.38210   0.68843   0.25904   0.00000  Uiso   1.00
Br220  Br    0.10291   0.66704   0.26790   0.00000  Uiso   1.00
Br221  Br    0.39709   0.83296   0.06543   0.00000  Uiso   1.00
Br222  Br    0.38210   0.81158   0.25904   0.00000  Uiso   1.00
Br223  Br    0.11790   0.68842   0.07429   0.00000  Uiso   1.00
Br224  Br    0.14710   0.91703   0.06543   0.00000  Uiso   1.00
C225   C     0.06282   0.69313   0.16707   0.00000  Uiso   1.00
C226   C     0.49884   0.71010   0.30925   0.00000  Uiso   1.00
C227   C     0.00115   0.71010   0.02408   0.00000  Uiso   1.00
C228   C     0.49885   0.78990   0.30925   0.00000  Uiso   1.00
C229   C     0.25115   0.53990   0.02408   0.00000  Uiso   1.00
C230   C     0.24884   0.96010   0.30925   0.00000  Uiso   1.00
C231   C     0.25115   0.96010   0.02408   0.00000  Uiso   1.00
C232   C     0.24884   0.53990   0.30925   0.00000  Uiso   1.00
C233   C     0.38942   0.64069   0.12474   0.00000  Uiso   1.00
C234   C     0.11058   0.85931   0.20860   0.00000  Uiso   1.00
C235   C     0.11701   0.85060   0.12676   0.00000  Uiso   1.00
C236   C     0.43718   0.80687   0.16626   0.00000  Uiso   1.00
C237   C     0.38299   0.64940   0.20657   0.00000  Uiso   1.00
C238   C     0.11058   0.64069   0.20860   0.00000  Uiso   1.00
C239   C     0.38942   0.85931   0.12474   0.00000  Uiso   1.00
C240   C     0.38299   0.85061   0.20657   0.00000  Uiso   1.00
C241   C     0.11701   0.64939   0.12676   0.00000  Uiso   1.00
C242   C     0.13942   0.89068   0.12474   0.00000  Uiso   1.00
C243   C     0.36058   0.60932   0.20860   0.00000  Uiso   1.00
C244   C     0.36701   0.60060   0.12676   0.00000  Uiso   1.00
C245   C     0.13299   0.89940   0.20657   0.00000  Uiso   1.00
C246   C     0.36058   0.89069   0.20860   0.00000  Uiso   1.00
C247   C     0.43718   0.69313   0.16626   0.00000  Uiso   1.00
C248   C     0.13941   0.60931   0.12474   0.00000  Uiso   1.00
C249   C     0.13299   0.60060   0.20657   0.00000  Uiso   1.00
C250   C     0.36701   0.89940   0.12676   0.00000  Uiso   1.00
C251   C     0.09900   0.83734   0.16795   0.00000  Uiso   1.00
C252   C     0.40100   0.66266   0.16538   0.00000  Uiso   1.00
C253   C     0.40100   0.83734   0.16538   0.00000  Uiso   1.00
C254   C     0.09900   0.66266   0.16795   0.00000  Uiso   1.00
C255   C     0.34900   0.58734   0.16795   0.00000  Uiso   1.00
C256   C     0.15100   0.91266   0.16538   0.00000  Uiso   1.00
C257   C     0.15100   0.58734   0.16538   0.00000  Uiso   1.00
C258   C     0.06282   0.80687   0.16707   0.00000  Uiso   1.00
C259   C     0.34900   0.91266   0.16795   0.00000  Uiso   1.00
C260   C     0.00867   0.83290   0.04868   0.00000  Uiso   1.00
C261   C     0.49133   0.66710   0.28466   0.00000  Uiso   1.00
C262   C     0.00867   0.66710   0.04867   0.00000  Uiso   1.00
C263   C     0.49133   0.83290   0.28466   0.00000  Uiso   1.00
C264   C     0.25867   0.58290   0.04868   0.00000  Uiso   1.00
C265   C     0.24133   0.91710   0.28466   0.00000  Uiso   1.00
C266   C     0.25867   0.91710   0.04867   0.00000  Uiso   1.00
C267   C     0.24133   0.58290   0.28466   0.00000  Uiso   1.00
C268   C     0.31282   0.94313   0.16707   0.00000  Uiso   1.00
C269   C     0.18718   0.55687   0.16626   0.00000  Uiso   1.00
C270   C     0.18718   0.94313   0.16626   0.00000  Uiso   1.00
C271   C     0.31282   0.55687   0.16707   0.00000  Uiso   1.00
C272   C     0.00116   0.78990   0.02408   0.00000  Uiso   1.00
H273   H     0.49484   0.83922   0.08100   0.00000  Uiso   1.00
H274   H     0.00515   0.66078   0.25233   0.00000  Uiso   1.00
H275   H     0.49485   0.66078   0.08100   0.00000  Uiso   1.00
H276   H     0.00515   0.83921   0.25233   0.00000  Uiso   1.00
H277   H     0.24485   0.58922   0.08100   0.00000  Uiso   1.00
H278   H     0.25515   0.91078   0.25233   0.00000  Uiso   1.00
H279   H     0.24485   0.91078   0.08100   0.00000  Uiso   1.00
H280   H     0.25515   0.58922   0.25233   0.00000  Uiso   1.00
N281   N    -0.00000   0.75000   0.28573   0.00000  Uiso   1.00
N282   N    -0.00000   0.75000   0.04760   0.00000  Uiso   1.00
N283   N     0.25000   0.50000   0.28573   0.00000  Uiso   1.00
N284   N     0.25000   0.50000   0.04760   0.00000  Uiso   1.00
O285   O     0.04580   0.70419   0.20487   0.00000  Uiso   1.00
O286   O     0.20419   0.54581   0.12846   0.00000  Uiso   1.00
O287   O     0.20419   0.54581   0.20487   0.00000  Uiso   1.00
O288   O     0.29580   0.95419   0.12846   0.00000  Uiso   1.00
O289   O     0.20419   0.95419   0.12846   0.00000  Uiso   1.00
O290   O     0.29580   0.54581   0.20487   0.00000  Uiso   1.00
O291   O     0.29580   0.54581   0.12846   0.00000  Uiso   1.00
O292   O     0.20419   0.95419   0.20487   0.00000  Uiso   1.00
O293   O     0.03183   0.86207   0.03309   0.00000  Uiso   1.00
O294   O     0.46817   0.63793   0.30024   0.00000  Uiso   1.00
O295   O     0.03181   0.63792   0.03308   0.00000  Uiso   1.00
O296   O     0.45419   0.79581   0.12846   0.00000  Uiso   1.00
O297   O     0.46819   0.86208   0.30025   0.00000  Uiso   1.00
O298   O     0.28182   0.61207   0.03309   0.00000  Uiso   1.00
O299   O     0.21818   0.88793   0.30024   0.00000  Uiso   1.00
O300   O     0.28182   0.88792   0.03309   0.00000  Uiso   1.00
O301   O     0.21818   0.61207   0.30025   0.00000  Uiso   1.00
O302   O     0.45419   0.79581   0.20487   0.00000  Uiso   1.00
O303   O     0.04580   0.70419   0.12846   0.00000  Uiso   1.00
O304   O     0.45419   0.70419   0.12846   0.00000  Uiso   1.00
O305   O     0.04580   0.79581   0.20487   0.00000  Uiso   1.00
O306   O     0.04580   0.79581   0.12846   0.00000  Uiso   1.00
O307   O     0.45419   0.70419   0.20487   0.00000  Uiso   1.00
O308   O     0.29580   0.95419   0.20487   0.00000  Uiso   1.00
Zn309  Zn   -0.00000   0.75000   0.21771   0.00000  Uiso   1.00
Zn310  Zn   -0.00000   0.75000   0.11563   0.00000  Uiso   1.00
Zn311  Zn    0.25000   0.50000   0.21771   0.00000  Uiso   1.00
Zn312  Zn    0.25000   0.50000   0.11563   0.00000  Uiso   1.00
Br313  Br    0.89710   0.66703   0.06543   0.00000  Uiso   1.00
Br314  Br    0.85290   0.58297   0.26790   0.00000  Uiso   1.00
Br315  Br    0.86790   0.56157   0.07429   0.00000  Uiso   1.00
Br316  Br    0.63210   0.93843   0.25904   0.00000  Uiso   1.00
Br317  Br    0.85291   0.91704   0.26790   0.00000  Uiso   1.00
Br318  Br    0.64709   0.58296   0.06543   0.00000  Uiso   1.00
Br319  Br    0.63210   0.56157   0.25904   0.00000  Uiso   1.00
Br320  Br    0.86790   0.93843   0.07429   0.00000  Uiso   1.00
Br321  Br    0.60290   0.83297   0.26790   0.00000  Uiso   1.00
Br322  Br    0.61790   0.81156   0.07430   0.00000  Uiso   1.00
Br323  Br    0.88210   0.68843   0.25904   0.00000  Uiso   1.00
Br324  Br    0.60291   0.66704   0.26790   0.00000  Uiso   1.00
Br325  Br    0.89709   0.83296   0.06543   0.00000  Uiso   1.00
Br326  Br    0.88210   0.81158   0.25904   0.00000  Uiso   1.00
Br327  Br    0.61790   0.68842   0.07429   0.00000  Uiso   1.00
Br328  Br    0.64710   0.91703   0.06543   0.00000  Uiso   1.00
C329   C     0.56282   0.69313   0.16707   0.00000  Uiso   1.00
C330   C     0.99884   0.71010   0.30925   0.00000  Uiso   1.00
C331   C     0.50115   0.71010   0.02408   0.00000  Uiso   1.00
C332   C     0.99885   0.78990   0.30925   0.00000  Uiso   1.00
C333   C     0.75115   0.53990   0.02408   0.00000  Uiso   1.00
C334   C     0.74884   0.96010   0.30925   0.00000  Uiso   1.00
C335   C     0.75115   0.96010   0.02408   0.00000  Uiso   1.00
C336   C     0.74884   0.53990   0.30925   0.00000  Uiso   1.00
C337   C     0.88942   0.64069   0.12474   0.00000  Uiso   1.00
C338   C     0.61058   0.85931   0.20860   0.00000  Uiso   1.00
C339   C     0.61701   0.85060   0.12676   0.00000  Uiso   1.00
C340   C     0.93718   0.80687   0.16626   0.00000  Uiso   1.00
C341   C     0.88299   0.64940   0.20657   0.00000  Uiso   1.00
C342   C     0.61058   0.64069   0.20860   0.00000  Uiso   1.00
C343   C     0.88942   0.85931   0.12474   0.00000  Uiso   1.00
C344   C     0.88299   0.85061   0.20657   0.00000  Uiso   1.00
C345   C     0.61701   0.64939   0.12676   0.00000  Uiso   1.00
C346   C     0.63942   0.89068   0.12474   0.00000  Uiso   1.00
C347   C     0.86058   0.60932   0.20860   0.00000  Uiso   1.00
C348   C     0.86701   0.60060   0.12676   0.00000  Uiso   1.00
C349   C     0.63299   0.89940   0.20657   0.00000  Uiso   1.00
C350   C     0.86058   0.89069   0.20860   0.00000  Uiso   1.00
C351   C     0.93718   0.69313   0.16626   0.00000  Uiso   1.00
C352   C     0.63941   0.60931   0.12474   0.00000  Uiso   1.00
C353   C     0.63299   0.60060   0.20657   0.00000  Uiso   1.00
C354   C     0.86701   0.89940   0.12676   0.00000  Uiso   1.00
C355   C     0.59900   0.83734   0.16795   0.00000  Uiso   1.00
C356   C     0.90100   0.66266   0.16538   0.00000  Uiso   1.00
C357   C     0.90100   0.83734   0.16538   0.00000  Uiso   1.00
C358   C     0.59900   0.66266   0.16795   0.00000  Uiso   1.00
C359   C     0.84900   0.58734   0.16795   0.00000  Uiso   1.00
C360   C     0.65100   0.91266   0.16538   0.00000  Uiso   1.00
C361   C     0.65100   0.58734   0.16538   0.00000  Uiso   1.00
C362   C     0.56282   0.80687   0.16707   0.00000  Uiso   1.00
C363   C     0.84900   0.91266   0.16795   0.00000  Uiso   1.00
C364   C     0.50867   0.83290   0.04868   0.00000  Uiso   1.00
C365   C     0.99133   0.66710   0.28466   0.00000  Uiso   1.00
C366   C     0.50867   0.66710   0.04867   0.00000  Uiso   1.00
C367   C     0.99133   0.83290   0.28466   0.00000  Uiso   1.00
C368   C     0.75867   0.58290   0.04868   0.00000  Uiso   1.00
C369   C     0.74133   0.91710   0.28466   0.00000  Uiso   1.00
C370   C     0.75867   0.91710   0.04867   0.00000  Uiso   1.00
C371   C     0.74133   0.58290   0.28466   0.00000  Uiso   1.00
C372   C     0.81282   0.94313   0.16707   0.00000  Uiso   1.00
C373   C     0.68718   0.55687   0.16626   0.00000  Uiso   1.00
C374   C     0.68718   0.94313   0.16626   0.00000  Uiso   1.00
C375   C     0.81282   0.55687   0.16707   0.00000  Uiso   1.00
C376   C     0.50116   0.78990   0.02408   0.00000  Uiso   1.00
H377   H     0.99484   0.83922   0.08100   0.00000  Uiso   1.00
H378   H     0.50515   0.66078   0.25233   0.00000  Uiso   1.00
H379   H     0.99485   0.66078   0.08100   0.00000  Uiso   1.00
H380   H     0.50515   0.83921   0.25233   0.00000  Uiso   1.00
H381   H     0.74485   0.58922   0.08100   0.00000  Uiso   1.00
H382   H     0.75515   0.91078   0.25233   0.00000  Uiso   1.00
H383   H     0.74485   0.91078   0.08100   0.00000  Uiso   1.00
H384   H     0.75515   0.58922   0.25233   0.00000  Uiso   1.00
N385   N     0.50000   0.75000   0.28573   0.00000  Uiso   1.00
N386   N     0.50000   0.75000   0.04760   0.00000  Uiso   1.00
N387   N     0.75000   0.50000   0.28573   0.00000  Uiso   1.00
N388   N     0.75000   0.50000   0.04760   0.00000  Uiso   1.00
O389   O     0.54580   0.70419   0.20487   0.00000  Uiso   1.00
O390   O     0.70419   0.54581   0.12846   0.00000  Uiso   1.00
O391   O     0.70419   0.54581   0.20487   0.00000  Uiso   1.00
O392   O     0.79580   0.95419   0.12846   0.00000  Uiso   1.00
O393   O     0.70419   0.95419   0.12846   0.00000  Uiso   1.00
O394   O     0.79580   0.54581   0.20487   0.00000  Uiso   1.00
O395   O     0.79580   0.54581   0.12846   0.00000  Uiso   1.00
O396   O     0.70419   0.95419   0.20487   0.00000  Uiso   1.00
O397   O     0.53183   0.86207   0.03309   0.00000  Uiso   1.00
O398   O     0.96817   0.63793   0.30024   0.00000  Uiso   1.00
O399   O     0.53181   0.63792   0.03308   0.00000  Uiso   1.00
O400   O     0.95419   0.79581   0.12846   0.00000  Uiso   1.00
O401   O     0.96819   0.86208   0.30025   0.00000  Uiso   1.00
O402   O     0.78182   0.61207   0.03309   0.00000  Uiso   1.00
O403   O     0.71818   0.88793   0.30024   0.00000  Uiso   1.00
O404   O     0.78182   0.88792   0.03309   0.00000  Uiso   1.00
O405   O     0.71818   0.61207   0.30025   0.00000  Uiso   1.00
O406   O     0.95419   0.79581   0.20487   0.00000  Uiso   1.00
O407   O     0.54580   0.70419   0.12846   0.00000  Uiso   1.00
O408   O     0.95419   0.70419   0.12846   0.00000  Uiso   1.00
O409   O     0.54580   0.79581   0.20487   0.00000  Uiso   1.00
O410   O     0.54580   0.79581   0.12846   0.00000  Uiso   1.00
O411   O     0.95419   0.70419   0.20487   0.00000  Uiso   1.00
O412   O     0.79580   0.95419   0.20487   0.00000  Uiso   1.00
Zn413  Zn    0.50000   0.75000   0.21771   0.00000  Uiso   1.00
Zn414  Zn    0.50000   0.75000   0.11563   0.00000  Uiso   1.00
Zn415  Zn    0.75000   0.50000   0.21771   0.00000  Uiso   1.00
Zn416  Zn    0.75000   0.50000   0.11563   0.00000  Uiso   1.00
Br417  Br    0.39710   0.16703   0.39876   0.00000  Uiso   1.00
Br418  Br    0.35290   0.08297   0.60124   0.00000  Uiso   1.00
Br419  Br    0.36790   0.06157   0.40763   0.00000  Uiso   1.00
Br420  Br    0.13210   0.43843   0.59237   0.00000  Uiso   1.00
Br421  Br    0.35291   0.41704   0.60124   0.00000  Uiso   1.00
Br422  Br    0.14709   0.08296   0.39876   0.00000  Uiso   1.00
Br423  Br    0.13210   0.06157   0.59238   0.00000  Uiso   1.00
Br424  Br    0.36790   0.43843   0.40762   0.00000  Uiso   1.00
Br425  Br    0.10290   0.33297   0.60124   0.00000  Uiso   1.00
Br426  Br    0.11790   0.31156   0.40763   0.00000  Uiso   1.00
Br427  Br    0.38210   0.18843   0.59237   0.00000  Uiso   1.00
Br428  Br    0.10291   0.16704   0.60124   0.00000  Uiso   1.00
Br429  Br    0.39709   0.33296   0.39876   0.00000  Uiso   1.00
Br430  Br    0.38210   0.31158   0.59238   0.00000  Uiso   1.00
Br431  Br    0.11790   0.18842   0.40762   0.00000  Uiso   1.00
Br432  Br    0.14710   0.41703   0.39876   0.00000  Uiso   1.00
C433   C     0.06282   0.19313   0.50041   0.00000  Uiso   1.00
C434   C     0.49884   0.21010   0.64259   0.00000  Uiso   1.00
C435   C     0.00115   0.21010   0.35741   0.00000  Uiso   1.00
C436   C     0.49885   0.28990   0.64259   0.00000  Uiso   1.00
C437   C     0.25115   0.03990   0.35741   0.00000  Uiso   1.00
C438   C     0.24884   0.46010   0.64259   0.00000  Uiso   1.00
C439   C     0.25115   0.46010   0.35741   0.00000  Uiso   1.00
C440   C     0.24884   0.03990   0.64259   0.00000  Uiso   1.00
C441   C     0.38942   0.14069   0.45807   0.00000  Uiso   1.00
C442   C     0.11058   0.35931   0.54193   0.00000  Uiso   1.00
C443   C     0.11701   0.35060   0.46010   0.00000  Uiso   1.00
C444   C     0.43718   0.30687   0.49960   0.00000  Uiso   1.00
C445   C     0.38299   0.14940   0.53990   0.00000  Uiso   1.00
C446   C     0.11058   0.14069   0.54193   0.00000  Uiso   1.00
C447   C     0.38942   0.35931   0.45807   0.00000  Uiso   1.00
C448   C     0.38299   0.35061   0.53990   0.00000  Uiso   1.00
C449   C     0.11701   0.14939   0.46010   0.00000  Uiso   1.00
C450   C     0.13942   0.39068   0.45807   0.00000  Uiso   1.00
C451   C     0.36058   0.10932   0.54193   0.00000  Uiso   1.00
C452   C     0.36701   0.10060   0.46010   0.00000  Uiso   1.00
C453   C     0.13299   0.39940   0.53990   0.00000  Uiso   1.00
C454   C     0.36058   0.39069   0.54193   0.00000  Uiso   1.00
C455   C     0.43718   0.19313   0.49959   0.00000  Uiso   1.00
C456   C     0.13941   0.10931   0.45807   0.00000  Uiso   1.00
C457   C     0.13299   0.10060   0.53990   0.00000  Uiso   1.00
C458   C     0.36701   0.39940   0.46010   0.00000  Uiso   1.00
C459   C     0.09900   0.33734   0.50128   0.00000  Uiso   1.00
C460   C     0.40100   0.16266   0.49872   0.00000  Uiso   1.00
C461   C     0.40100   0.33734   0.49872   0.00000  Uiso   1.00
C462   C     0.09900   0.16266   0.50128   0.00000  Uiso   1.00
C463   C     0.34900   0.08734   0.50128   0.00000  Uiso   1.00
C464   C     0.15100   0.41266   0.49872   0.00000  Uiso   1.00
C465   C     0.15100   0.08734   0.49872   0.00000  Uiso   1.00
C466   C     0.06282   0.30687   0.50041   0.00000  Uiso   1.00
C467   C     0.34900   0.41266   0.50128   0.00000  Uiso   1.00
C468   C     0.00867   0.33290   0.38201   0.00000  Uiso   1.00
C469   C     0.49133   0.16710   0.61799   0.00000  Uiso   1.00
C470   C     0.00867   0.16710   0.38201   0.00000  Uiso   1.00
C471   C     0.49133   0.33290   0.61799   0.00000  Uiso   1.00
C472   C     0.25867   0.08290   0.38201   0.00000  Uiso   1.00
C473   C     0.24133   0.41710   0.61799   0.00000  Uiso   1.00
C474   C     0.25867   0.41710   0.38201   0.00000  Uiso   1.00
C475   C     0.24133   0.08290   0.61799   0.00000  Uiso   1.00
C476   C     0.31282   0.44313   0.50041   0.00000  Uiso   1.00
C477   C     0.18718   0.05687   0.49960   0.00000  Uiso   1.00
C478   C     0.18718   0.44313   0.49959   0.00000  Uiso   1.00
C479   C     0.31282   0.05687   0.50041   0.00000  Uiso   1.00
C480   C     0.00116   0.28990   0.35741   0.00000  Uiso   1.00
H481   H     0.49484   0.33922   0.41433   0.00000  Uiso   1.00
H482   H     0.00515   0.16078   0.58567   0.00000  Uiso   1.00
H483   H     0.49485   0.16078   0.41434   0.00000  Uiso   1.00
H484   H     0.00515   0.33921   0.58566   0.00000  Uiso   1.00
H485   H     0.24485   0.08922   0.41433   0.00000  Uiso   1.00
H486   H     0.25515   0.41078   0.58567   0.00000  Uiso   1.00
H487   H     0.24485   0.41078   0.41433   0.00000  Uiso   1.00
H488   H     0.25515   0.08922   0.58567   0.00000  Uiso   1.00
N489   N    -0.00000   0.25000   0.61907   0.00000  Uiso   1.00
N490   N    -0.00000   0.25000   0.38093   0.00000  Uiso   1.00
N491   N     0.25000  -0.00000   0.61907   0.00000  Uiso   1.00
N492   N     0.25000  -0.00000   0.38093   0.00000  Uiso   1.00
O493   O     0.04580   0.20419   0.53821   0.00000  Uiso   1.00
O494   O     0.20419   0.04581   0.46179   0.00000  Uiso   1.00
O495   O     0.20419   0.04581   0.53821   0.00000  Uiso   1.00
O496   O     0.29580   0.45419   0.46179   0.00000  Uiso   1.00
O497   O     0.20419   0.45419   0.46179   0.00000  Uiso   1.00
O498   O     0.29580   0.04581   0.53821   0.00000  Uiso   1.00
O499   O     0.29580   0.04581   0.46179   0.00000  Uiso   1.00
O500   O     0.20419   0.45419   0.53821   0.00000  Uiso   1.00
O501   O     0.03183   0.36207   0.36643   0.00000  Uiso   1.00
O502   O     0.46817   0.13793   0.63357   0.00000  Uiso   1.00
O503   O     0.03181   0.13792   0.36642   0.00000  Uiso   1.00
O504   O     0.45419   0.29581   0.46179   0.00000  Uiso   1.00
O505   O     0.46819   0.36208   0.63358   0.00000  Uiso   1.00
O506   O     0.28182   0.11207   0.36642   0.00000  Uiso   1.00
O507   O     0.21818   0.38793   0.63358   0.00000  Uiso   1.00
O508   O     0.28182   0.38792   0.36642   0.00000  Uiso   1.00
O509   O     0.21818   0.11207   0.63358   0.00000  Uiso   1.00
O510   O     0.45419   0.29581   0.53821   0.00000  Uiso   1.00
O511   O     0.04580   0.20419   0.46179   0.00000  Uiso   1.00
O512   O     0.45419   0.20419   0.46179   0.00000  Uiso   1.00
O513   O     0.04580   0.29581   0.53821   0.00000  Uiso   1.00
O514   O     0.04580   0.29581   0.46179   0.00000  Uiso   1.00
O515   O     0.45419   0.20419   0.53821   0.00000  Uiso   1.00
O516   O     0.29580   0.45419   0.53821   0.00000  Uiso   1.00
Zn517  Zn   -0.00000   0.25000   0.55104   0.00000  Uiso   1.00
Zn518  Zn   -0.00000   0.25000   0.44896   0.00000  Uiso   1.00
Zn519  Zn    0.25000  -0.00000   0.55104   0.00000  Uiso   1.00
Zn520  Zn    0.25000  -0.00000   0.44896   0.00000  Uiso   1.00
Br521  Br    0.89710   0.16703   0.39876   0.00000  Uiso   1.00
Br522  Br    0.85290   0.08297   0.60124   0.00000  Uiso   1.00
Br523  Br    0.86790   0.06157   0.40763   0.00000  Uiso   1.00
Br524  Br    0.63210   0.43843   0.59237   0.00000  Uiso   1.00
Br525  Br    0.85291   0.41704   0.60124   0.00000  Uiso   1.00
Br526  Br    0.64709   0.08296   0.39876   0.00000  Uiso   1.00
Br527  Br    0.63210   0.06157   0.59238   0.00000  Uiso   1.00
Br528  Br    0.86790   0.43843   0.40762   0.00000  Uiso   1.00
Br529  Br    0.60290   0.33297   0.60124   0.00000  Uiso   1.00
Br530  Br    0.61790   0.31156   0.40763   0.00000  Uiso   1.00
Br531  Br    0.88210   0.18843   0.59237   0.00000  Uiso   1.00
Br532  Br    0.60291   0.16704   0.60124   0.00000  Uiso   1.00
Br533  Br    0.89709   0.33296   0.39876   0.00000  Uiso   1.00
Br534  Br    0.88210   0.31158   0.59238   0.00000  Uiso   1.00
Br535  Br    0.61790   0.18842   0.40762   0.00000  Uiso   1.00
Br536  Br    0.64710   0.41703   0.39876   0.00000  Uiso   1.00
C537   C     0.56282   0.19313   0.50041   0.00000  Uiso   1.00
C538   C     0.99884   0.21010   0.64259   0.00000  Uiso   1.00
C539   C     0.50115   0.21010   0.35741   0.00000  Uiso   1.00
C540   C     0.99885   0.28990   0.64259   0.00000  Uiso   1.00
C541   C     0.75115   0.03990   0.35741   0.00000  Uiso   1.00
C542   C     0.74884   0.46010   0.64259   0.00000  Uiso   1.00
C543   C     0.75115   0.46010   0.35741   0.00000  Uiso   1.00
C544   C     0.74884   0.03990   0.64259   0.00000  Uiso   1.00
C545   C     0.88942   0.14069   0.45807   0.00000  Uiso   1.00
C546   C     0.61058   0.35931   0.54193   0.00000  Uiso   1.00
C547   C     0.61701   0.35060   0.46010   0.00000  Uiso   1.00
C548   C     0.93718   0.30687   0.49960   0.00000  Uiso   1.00
C549   C     0.88299   0.14940   0.53990   0.00000  Uiso   1.00
C550   C     0.61058   0.14069   0.54193   0.00000  Uiso   1.00
C551   C     0.88942   0.35931   0.45807   0.00000  Uiso   1.00
C552   C     0.88299   0.35061   0.53990   0.00000  Uiso   1.00
C553   C     0.61701   0.14939   0.46010   0.00000  Uiso   1.00
C554   C     0.63942   0.39068   0.45807   0.00000  Uiso   1.00
C555   C     0.86058   0.10932   0.54193   0.00000  Uiso   1.00
C556   C     0.86701   0.10060   0.46010   0.00000  Uiso   1.00
C557   C     0.63299   0.39940   0.53990   0.00000  Uiso   1.00
C558   C     0.86058   0.39069   0.54193   0.00000  Uiso   1.00
C559   C     0.93718   0.19313   0.49959   0.00000  Uiso   1.00
C560   C     0.63941   0.10931   0.45807   0.00000  Uiso   1.00
C561   C     0.63299   0.10060   0.53990   0.00000  Uiso   1.00
C562   C     0.86701   0.39940   0.46010   0.00000  Uiso   1.00
C563   C     0.59900   0.33734   0.50128   0.00000  Uiso   1.00
C564   C     0.90100   0.16266   0.49872   0.00000  Uiso   1.00
C565   C     0.90100   0.33734   0.49872   0.00000  Uiso   1.00
C566   C     0.59900   0.16266   0.50128   0.00000  Uiso   1.00
C567   C     0.84900   0.08734   0.50128   0.00000  Uiso   1.00
C568   C     0.65100   0.41266   0.49872   0.00000  Uiso   1.00
C569   C     0.65100   0.08734   0.49872   0.00000  Uiso   1.00
C570   C     0.56282   0.30687   0.50041   0.00000  Uiso   1.00
C571   C     0.84900   0.41266   0.50128   0.00000  Uiso   1.00
C572   C     0.50867   0.33290   0.38201   0.00000  Uiso   1.00
C573   C     0.99133   0.16710   0.61799   0.00000  Uiso   1.00
C574   C     0.50867   0.16710   0.38201   0.00000  Uiso   1.00
C575   C     0.99133   0.33290   0.61799   0.00000  Uiso   1.00
C576   C     0.75867   0.08290   0.38201   0.00000  Uiso   1.00
C577   C     0.74133   0.41710   0.61799   0.00000  Uiso   1.00
C578   C     0.75867   0.41710   0.38201   0.00000  Uiso   1.00
C579   C     0.74133   0.08290   0.61799   0.00000  Uiso   1.00
C580   C     0.81282   0.44313   0.50041   0.00000  Uiso   1.00
C581   C     0.68718   0.05687   0.49960   0.00000  Uiso   1.00
C582   C     0.68718   0.44313   0.49959   0.00000  Uiso   1.00
C583   C     0.81282   0.05687   0.50041   0.00000  Uiso   1.00
C584   C     0.50116   0.28990   0.35741   0.00000  Uiso   1.00
H585   H     0.99484   0.33922   0.41433   0.00000  Uiso   1.00
H586   H     0.50515   0.16078   0.58567   0.00000  Uiso   1.00
H587   H     0.99485   0.16078   0.41434   0.00000  Uiso   1.00
H588   H     0.50515   0.33921   0.58566   0.00000  Uiso   1.00
H589   H     0.74485   0.08922   0.41433   0.00000  Uiso   1.00
H590   H     0.75515   0.41078   0.58567   0.00000  Uiso   1.00
H591   H     0.74485   0.41078   0.41433   0.00000  Uiso   1.00
H592   H     0.75515   0.08922   0.58567   0.00000  Uiso   1.00
N593   N     0.50000   0.25000   0.61907   0.00000  Uiso   1.00
N594   N     0.50000   0.25000   0.38093   0.00000  Uiso   1.00
N595   N     0.75000  -0.00000   0.61907   0.00000  Uiso   1.00
N596   N     0.75000  -0.00000   0.38093   0.00000  Uiso   1.00
O597   O     0.54580   0.20419   0.53821   0.00000  Uiso   1.00
O598   O     0.70419   0.04581   0.46179   0.00000  Uiso   1.00
O599   O     0.70419   0.04581   0.53821   0.00000  Uiso   1.00
O600   O     0.79580   0.45419   0.46179   0.00000  Uiso   1.00
O601   O     0.70419   0.45419   0.46179   0.00000  Uiso   1.00
O602   O     0.79580   0.04581   0.53821   0.00000  Uiso   1.00
O603   O     0.79580   0.04581   0.46179   0.00000  Uiso   1.00
O604   O     0.70419   0.45419   0.53821   0.00000  Uiso   1.00
O605   O     0.53183   0.36207   0.36643   0.00000  Uiso   1.00
O606   O     0.96817   0.13793   0.63357   0.00000  Uiso   1.00
O607   O     0.53181   0.13792   0.36642   0.00000  Uiso   1.00
O608   O     0.95419   0.29581   0.46179   0.00000  Uiso   1.00
O609   O     0.96819   0.36208   0.63358   0.00000  Uiso   1.00
O610   O     0.78182   0.11207   0.36642   0.00000  Uiso   1.00
O611   O     0.71818   0.38793   0.63358   0.00000  Uiso   1.00
O612   O     0.78182   0.38792   0.36642   0.00000  Uiso   1.00
O613   O     0.71818   0.11207   0.63358   0.00000  Uiso   1.00
O614   O     0.95419   0.29581   0.53821   0.00000  Uiso   1.00
O615   O     0.54580   0.20419   0.46179   0.00000  Uiso   1.00
O616   O     0.95419   0.20419   0.46179   0.00000  Uiso   1.00
O617   O     0.54580   0.29581   0.53821   0.00000  Uiso   1.00
O618   O     0.54580   0.29581   0.46179   0.00000  Uiso   1.00
O619   O     0.95419   0.20419   0.53821   0.00000  Uiso   1.00
O620   O     0.79580   0.45419   0.53821   0.00000  Uiso   1.00
Zn621  Zn    0.50000   0.25000   0.55104   0.00000  Uiso   1.00
Zn622  Zn    0.50000   0.25000   0.44896   0.00000  Uiso   1.00
Zn623  Zn    0.75000  -0.00000   0.55104   0.00000  Uiso   1.00
Zn624  Zn    0.75000  -0.00000   0.44896   0.00000  Uiso   1.00
Br625  Br    0.39710   0.66703   0.39876   0.00000  Uiso   1.00
Br626  Br    0.35290   0.58297   0.60124   0.00000  Uiso   1.00
Br627  Br    0.36790   0.56157   0.40763   0.00000  Uiso   1.00
Br628  Br    0.13210   0.93843   0.59237   0.00000  Uiso   1.00
Br629  Br    0.35291   0.91704   0.60124   0.00000  Uiso   1.00
Br630  Br    0.14709   0.58296   0.39876   0.00000  Uiso   1.00
Br631  Br    0.13210   0.56157   0.59238   0.00000  Uiso   1.00
Br632  Br    0.36790   0.93843   0.40762   0.00000  Uiso   1.00
Br633  Br    0.10290   0.83297   0.60124   0.00000  Uiso   1.00
Br634  Br    0.11790   0.81156   0.40763   0.00000  Uiso   1.00
Br635  Br    0.38210   0.68843   0.59237   0.00000  Uiso   1.00
Br636  Br    0.10291   0.66704   0.60124   0.00000  Uiso   1.00
Br637  Br    0.39709   0.83296   0.39876   0.00000  Uiso   1.00
Br638  Br    0.38210   0.81158   0.59238   0.00000  Uiso   1.00
Br639  Br    0.11790   0.68842   0.40762   0.00000  Uiso   1.00
Br640  Br    0.14710   0.91703   0.39876   0.00000  Uiso   1.00
C641   C     0.06282   0.69313   0.50041   0.00000  Uiso   1.00
C642   C     0.49884   0.71010   0.64259   0.00000  Uiso   1.00
C643   C     0.00115   0.71010   0.35741   0.00000  Uiso   1.00
C644   C     0.49885   0.78990   0.64259   0.00000  Uiso   1.00
C645   C     0.25115   0.53990   0.35741   0.00000  Uiso   1.00
C646   C     0.24884   0.96010   0.64259   0.00000  Uiso   1.00
C647   C     0.25115   0.96010   0.35741   0.00000  Uiso   1.00
C648   C     0.24884   0.53990   0.64259   0.00000  Uiso   1.00
C649   C     0.38942   0.64069   0.45807   0.00000  Uiso   1.00
C650   C     0.11058   0.85931   0.54193   0.00000  Uiso   1.00
C651   C     0.11701   0.85060   0.46010   0.00000  Uiso   1.00
C652   C     0.43718   0.80687   0.49960   0.00000  Uiso   1.00
C653   C     0.38299   0.64940   0.53990   0.00000  Uiso   1.00
C654   C     0.11058   0.64069   0.54193   0.00000  Uiso   1.00
C655   C     0.38942   0.85931   0.45807   0.00000  Uiso   1.00
C656   C     0.38299   0.85061   0.53990   0.00000  Uiso   1.00
C657   C     0.11701   0.64939   0.46010   0.00000  Uiso   1.00
C658   C     0.13942   0.89068   0.45807   0.00000  Uiso   1.00
C659   C     0.36058   0.60932   0.54193   0.00000  Uiso   1.00
C660   C     0.36701   0.60060   0.46010   0.00000  Uiso   1.00
C661   C     0.13299   0.89940   0.53990   0.00000  Uiso   1.00
C662   C     0.36058   0.89069   0.54193   0.00000  Uiso   1.00
C663   C     0.43718   0.69313   0.49959   0.00000  Uiso   1.00
C664   C     0.13941   0.60931   0.45807   0.00000  Uiso   1.00
C665   C     0.13299   0.60060   0.53990   0.00000  Uiso   1.00
C666   C     0.36701   0.89940   0.46010   0.00000  Uiso   1.00
C667   C     0.09900   0.83734   0.50128   0.00000  Uiso   1.00
C668   C     0.40100   0.66266   0.49872   0.00000  Uiso   1.00
C669   C     0.40100   0.83734   0.49872   0.00000  Uiso   1.00
C670   C     0.09900   0.66266   0.50128   0.00000  Uiso   1.00
C671   C     0.34900   0.58734   0.50128   0.00000  Uiso   1.00
C672   C     0.15100   0.91266   0.49872   0.00000  Uiso   1.00
C673   C     0.15100   0.58734   0.49872   0.00000  Uiso   1.00
C674   C     0.06282   0.80687   0.50041   0.00000  Uiso   1.00
C675   C     0.34900   0.91266   0.50128   0.00000  Uiso   1.00
C676   C     0.00867   0.83290   0.38201   0.00000  Uiso   1.00
C677   C     0.49133   0.66710   0.61799   0.00000  Uiso   1.00
C678   C     0.00867   0.66710   0.38201   0.00000  Uiso   1.00
C679   C     0.49133   0.83290   0.61799   0.00000  Uiso   1.00
C680   C     0.25867   0.58290   0.38201   0.00000  Uiso   1.00
C681   C     0.24133   0.91710   0.61799   0.00000  Uiso   1.00
C682   C     0.25867   0.91710   0.38201   0.00000  Uiso   1.00
C683   C     0.24133   0.58290   0.61799   0.00000  Uiso   1.00
C684   C     0.31282   0.94313   0.50041   0.00000  Uiso   1.00
C685   C     0.18718   0.55687   0.49960   0.00000  Uiso   1.00
C686   C     0.18718   0.94313   0.49959   0.00000  Uiso   1.00
C687   C     0.31282   0.55687   0.50041   0.00000  Uiso   1.00
C688   C     0.00116   0.78990   0.35741   0.00000  Uiso   1.00
H689   H     0.49484   0.83922   0.41433   0.00000  Uiso   1.00
H690   H     0.00515   0.66078   0.58567   0.00000  Uiso   1.00
H691   H     0.49485   0.66078   0.41434   0.00000  Uiso   1.00
H692   H     0.00515   0.83921   0.58566   0.00000  Uiso   1.00
H693   H     0.24485   0.58922   0.41433   0.00000  Uiso   1.00
H694   H     0.25515   0.91078   0.58567   0.00000  Uiso   1.00
H695   H     0.24485   0.91078   0.41433   0.00000  Uiso   1.00
H696   H     0.25515   0.58922   0.58567   0.00000  Uiso   1.00
N697   N    -0.00000   0.75000   0.61907   0.00000  Uiso   1.00
N698   N    -0.00000   0.75000   0.38093   0.00000  Uiso   1.00
N699   N     0.25000   0.50000   0.61907   0.00000  Uiso   1.00
N700   N     0.25000   0.50000   0.38093   0.00000  Uiso   1.00
O701   O     0.04580   0.70419   0.53821   0.00000  Uiso   1.00
O702   O     0.20419   0.54581   0.46179   0.00000  Uiso   1.00
O703   O     0.20419   0.54581   0.53821   0.00000  Uiso   1.00
O704   O     0.29580   0.95419   0.46179   0.00000  Uiso   1.00
O705   O     0.20419   0.95419   0.46179   0.00000  Uiso   1.00
O706   O     0.29580   0.54581   0.53821   0.00000  Uiso   1.00
O707   O     0.29580   0.54581   0.46179   0.00000  Uiso   1.00
O708   O     0.20419   0.95419   0.53821   0.00000  Uiso   1.00
O709   O     0.03183   0.86207   0.36643   0.00000  Uiso   1.00
O710   O     0.46817   0.63793   0.63357   0.00000  Uiso   1.00
O711   O     0.03181   0.63792   0.36642   0.00000  Uiso   1.00
O712   O     0.45419   0.79581   0.46179   0.00000  Uiso   1.00
O713   O     0.46819   0.86208   0.63358   0.00000  Uiso   1.00
O714   O     0.28182   0.61207   0.36642   0.00000  Uiso   1.00
O715   O     0.21818   0.88793   0.63358   0.00000  Uiso   1.00
O716   O     0.28182   0.88792   0.36642   0.00000  Uiso   1.00
O717   O     0.21818   0.61207   0.63358   0.00000  Uiso   1.00
O718   O     0.45419   0.79581   0.53821   0.00000  Uiso   1.00
O719   O     0.04580   0.70419   0.46179   0.00000  Uiso   1.00
O720   O     0.45419   0.70419   0.46179   0.00000  Uiso   1.00
O721   O     0.04580   0.79581   0.53821   0.00000  Uiso   1.00
O722   O     0.04580   0.79581   0.46179   0.00000  Uiso   1.00
O723   O     0.45419   0.70419   0.53821   0.00000  Uiso   1.00
O724   O     0.29580   0.95419   0.53821   0.00000  Uiso   1.00
Zn725  Zn   -0.00000   0.75000   0.55104   0.00000  Uiso   1.00
Zn726  Zn   -0.00000   0.75000   0.44896   0.00000  Uiso   1.00
Zn727  Zn    0.25000   0.50000   0.55104   0.00000  Uiso   1.00
Zn728  Zn    0.25000   0.50000   0.44896   0.00000  Uiso   1.00
Br729  Br    0.89710   0.66703   0.39876   0.00000  Uiso   1.00
Br730  Br    0.85290   0.58297   0.60124   0.00000  Uiso   1.00
Br731  Br    0.86790   0.56157   0.40763   0.00000  Uiso   1.00
Br732  Br    0.63210   0.93843   0.59237   0.00000  Uiso   1.00
Br733  Br    0.85291   0.91704   0.60124   0.00000  Uiso   1.00
Br734  Br    0.64709   0.58296   0.39876   0.00000  Uiso   1.00
Br735  Br    0.63210   0.56157   0.59238   0.00000  Uiso   1.00
Br736  Br    0.86790   0.93843   0.40762   0.00000  Uiso   1.00
Br737  Br    0.60290   0.83297   0.60124   0.00000  Uiso   1.00
Br738  Br    0.61790   0.81156   0.40763   0.00000  Uiso   1.00
Br739  Br    0.88210   0.68843   0.59237   0.00000  Uiso   1.00
Br740  Br    0.60291   0.66704   0.60124   0.00000  Uiso   1.00
Br741  Br    0.89709   0.83296   0.39876   0.00000  Uiso   1.00
Br742  Br    0.88210   0.81158   0.59238   0.00000  Uiso   1.00
Br743  Br    0.61790   0.68842   0.40762   0.00000  Uiso   1.00
Br744  Br    0.64710   0.91703   0.39876   0.00000  Uiso   1.00
C745   C     0.56282   0.69313   0.50041   0.00000  Uiso   1.00
C746   C     0.99884   0.71010   0.64259   0.00000  Uiso   1.00
C747   C     0.50115   0.71010   0.35741   0.00000  Uiso   1.00
C748   C     0.99885   0.78990   0.64259   0.00000  Uiso   1.00
C749   C     0.75115   0.53990   0.35741   0.00000  Uiso   1.00
C750   C     0.74884   0.96010   0.64259   0.00000  Uiso   1.00
C751   C     0.75115   0.96010   0.35741   0.00000  Uiso   1.00
C752   C     0.74884   0.53990   0.64259   0.00000  Uiso   1.00
C753   C     0.88942   0.64069   0.45807   0.00000  Uiso   1.00
C754   C     0.61058   0.85931   0.54193   0.00000  Uiso   1.00
C755   C     0.61701   0.85060   0.46010   0.00000  Uiso   1.00
C756   C     0.93718   0.80687   0.49960   0.00000  Uiso   1.00
C757   C     0.88299   0.64940   0.53990   0.00000  Uiso   1.00
C758   C     0.61058   0.64069   0.54193   0.00000  Uiso   1.00
C759   C     0.88942   0.85931   0.45807   0.00000  Uiso   1.00
C760   C     0.88299   0.85061   0.53990   0.00000  Uiso   1.00
C761   C     0.61701   0.64939   0.46010   0.00000  Uiso   1.00
C762   C     0.63942   0.89068   0.45807   0.00000  Uiso   1.00
C763   C     0.86058   0.60932   0.54193   0.00000  Uiso   1.00
C764   C     0.86701   0.60060   0.46010   0.00000  Uiso   1.00
C765   C     0.63299   0.89940   0.53990   0.00000  Uiso   1.00
C766   C     0.86058   0.89069   0.54193   0.00000  Uiso   1.00
C767   C     0.93718   0.69313   0.49959   0.00000  Uiso   1.00
C768   C     0.63941   0.60931   0.45807   0.00000  Uiso   1.00
C769   C     0.63299   0.60060   0.53990   0.00000  Uiso   1.00
C770   C     0.86701   0.89940   0.46010   0.00000  Uiso   1.00
C771   C     0.59900   0.83734   0.50128   0.00000  Uiso   1.00
C772   C     0.90100   0.66266   0.49872   0.00000  Uiso   1.00
C773   C     0.90100   0.83734   0.49872   0.00000  Uiso   1.00
C774   C     0.59900   0.66266   0.50128   0.00000  Uiso   1.00
C775   C     0.84900   0.58734   0.50128   0.00000  Uiso   1.00
C776   C     0.65100   0.91266   0.49872   0.00000  Uiso   1.00
C777   C     0.65100   0.58734   0.49872   0.00000  Uiso   1.00
C778   C     0.56282   0.80687   0.50041   0.00000  Uiso   1.00
C779   C     0.84900   0.91266   0.50128   0.00000  Uiso   1.00
C780   C     0.50867   0.83290   0.38201   0.00000  Uiso   1.00
C781   C     0.99133   0.66710   0.61799   0.00000  Uiso   1.00
C782   C     0.50867   0.66710   0.38201   0.00000  Uiso   1.00
C783   C     0.99133   0.83290   0.61799   0.00000  Uiso   1.00
C784   C     0.75867   0.58290   0.38201   0.00000  Uiso   1.00
C785   C     0.74133   0.91710   0.61799   0.00000  Uiso   1.00
C786   C     0.75867   0.91710   0.38201   0.00000  Uiso   1.00
C787   C     0.74133   0.58290   0.61799   0.00000  Uiso   1.00
C788   C     0.81282   0.94313   0.50041   0.00000  Uiso   1.00
C789   C     0.68718   0.55687   0.49960   0.00000  Uiso   1.00
C790   C     0.68718   0.94313   0.49959   0.00000  Uiso   1.00
C791   C     0.81282   0.55687   0.50041   0.00000  Uiso   1.00
C792   C     0.50116   0.78990   0.35741   0.00000  Uiso   1.00
H793   H     0.99484   0.83922   0.41433   0.00000  Uiso   1.00
H794   H     0.50515   0.66078   0.58567   0.00000  Uiso   1.00
H795   H     0.99485   0.66078   0.41434   0.00000  Uiso   1.00
H796   H     0.50515   0.83921   0.58566   0.00000  Uiso   1.00
H797   H     0.74485   0.58922   0.41433   0.00000  Uiso   1.00
H798   H     0.75515   0.91078   0.58567   0.00000  Uiso   1.00
H799   H     0.74485   0.91078   0.41433   0.00000  Uiso   1.00
H800   H     0.75515   0.58922   0.58567   0.00000  Uiso   1.00
N801   N     0.50000   0.75000   0.61907   0.00000  Uiso   1.00
N802   N     0.50000   0.75000   0.38093   0.00000  Uiso   1.00
N803   N     0.75000   0.50000   0.61907   0.00000  Uiso   1.00
N804   N     0.75000   0.50000   0.38093   0.00000  Uiso   1.00
O805   O     0.54580   0.70419   0.53821   0.00000  Uiso   1.00
O806   O     0.70419   0.54581   0.46179   0.00000  Uiso   1.00
O807   O     0.70419   0.54581   0.53821   0.00000  Uiso   1.00
O808   O     0.79580   0.95419   0.46179   0.00000  Uiso   1.00
O809   O     0.70419   0.95419   0.46179   0.00000  Uiso   1.00
O810   O     0.79580   0.54581   0.53821   0.00000  Uiso   1.00
O811   O     0.79580   0.54581   0.46179   0.00000  Uiso   1.00
O812   O     0.70419   0.95419   0.53821   0.00000  Uiso   1.00
O813   O     0.53183   0.86207   0.36643   0.00000  Uiso   1.00
O814   O     0.96817   0.63793   0.63357   0.00000  Uiso   1.00
O815   O     0.53181   0.63792   0.36642   0.00000  Uiso   1.00
O816   O     0.95419   0.79581   0.46179   0.00000  Uiso   1.00
O817   O     0.96819   0.86208   0.63358   0.00000  Uiso   1.00
O818   O     0.78182   0.61207   0.36642   0.00000  Uiso   1.00
O819   O     0.71818   0.88793   0.63358   0.00000  Uiso   1.00
O820   O     0.78182   0.88792   0.36642   0.00000  Uiso   1.00
O821   O     0.71818   0.61207   0.63358   0.00000  Uiso   1.00
O822   O     0.95419   0.79581   0.53821   0.00000  Uiso   1.00
O823   O     0.54580   0.70419   0.46179   0.00000  Uiso   1.00
O824   O     0.95419   0.70419   0.46179   0.00000  Uiso   1.00
O825   O     0.54580   0.79581   0.53821   0.00000  Uiso   1.00
O826   O     0.54580   0.79581   0.46179   0.00000  Uiso   1.00
O827   O     0.95419   0.70419   0.53821   0.00000  Uiso   1.00
O828   O     0.79580   0.95419   0.53821   0.00000  Uiso   1.00
Zn829  Zn    0.50000   0.75000   0.55104   0.00000  Uiso   1.00
Zn830  Zn    0.50000   0.75000   0.44896   0.00000  Uiso   1.00
Zn831  Zn    0.75000   0.50000   0.55104   0.00000  Uiso   1.00
Zn832  Zn    0.75000   0.50000   0.44896   0.00000  Uiso   1.00
Br833  Br    0.39710   0.16703   0.73210   0.00000  Uiso   1.00
Br834  Br    0.35290   0.08297   0.93457   0.00000  Uiso   1.00
Br835  Br    0.36790   0.06157   0.74096   0.00000  Uiso   1.00
Br836  Br    0.13210   0.43843   0.92571   0.00000  Uiso   1.00
Br837  Br    0.35291   0.41704   0.93457   0.00000  Uiso   1.00
Br838  Br    0.14709   0.08296   0.73210   0.00000  Uiso   1.00
Br839  Br    0.13210   0.06157   0.92571   0.00000  Uiso   1.00
Br840  Br    0.36790   0.43843   0.74096   0.00000  Uiso   1.00
Br841  Br    0.10290   0.33297   0.93457   0.00000  Uiso   1.00
Br842  Br    0.11790   0.31156   0.74096   0.00000  Uiso   1.00
Br843  Br    0.38210   0.18843   0.92571   0.00000  Uiso   1.00
Br844  Br    0.10291   0.16704   0.93457   0.00000  Uiso   1.00
Br845  Br    0.39709   0.33296   0.73210   0.00000  Uiso   1.00
Br846  Br    0.38210   0.31158   0.92571   0.00000  Uiso   1.00
Br847  Br    0.11790   0.18842   0.74096   0.00000  Uiso   1.00
Br848  Br    0.14710   0.41703   0.73210   0.00000  Uiso   1.00
C849   C     0.06282   0.19313   0.83374   0.00000  Uiso   1.00
C850   C     0.49884   0.21010   0.97592   0.00000  Uiso   1.00
C851   C     0.00115   0.21010   0.69075   0.00000  Uiso   1.00
C852   C     0.49885   0.28990   0.97592   0.00000  Uiso   1.00
C853   C     0.25115   0.03990   0.69075   0.00000  Uiso   1.00
C854   C     0.24884   0.46010   0.97592   0.00000  Uiso   1.00
C855   C     0.25115   0.46010   0.69075   0.00000  Uiso   1.00
C856   C     0.24884   0.03990   0.97592   0.00000  Uiso   1.00
C857   C     0.38942   0.14069   0.79140   0.00000  Uiso   1.00
C858   C     0.11058   0.35931   0.87526   0.00000  Uiso   1.00
C859   C     0.11701   0.35060   0.79343   0.00000  Uiso   1.00
C860   C     0.43718   0.30687   0.83293   0.00000  Uiso   1.00
C861   C     0.38299   0.14940   0.87324   0.00000  Uiso   1.00
C862   C     0.11058   0.14069   0.87526   0.00000  Uiso   1.00
C863   C     0.38942   0.35931   0.79140   0.00000  Uiso   1.00
C864   C     0.38299   0.35061   0.87324   0.00000  Uiso   1.00
C865   C     0.11701   0.14939   0.79343   0.00000  Uiso   1.00
C866   C     0.13942   0.39068   0.79140   0.00000  Uiso   1.00
C867   C     0.36058   0.10932   0.87526   0.00000  Uiso   1.00
C868   C     0.36701   0.10060   0.79343   0.00000  Uiso   1.00
C869   C     0.13299   0.39940   0.87324   0.00000  Uiso   1.00
C870   C     0.36058   0.39069   0.87526   0.00000  Uiso   1.00
C871   C     0.43718   0.19313   0.83293   0.00000  Uiso   1.00
C872   C     0.13941   0.10931   0.79140   0.00000  Uiso   1.00
C873   C     0.13299   0.10060   0.87324   0.00000  Uiso   1.00
C874   C     0.36701   0.39940   0.79343   0.00000  Uiso   1.00
C875   C     0.09900   0.33734   0.83462   0.00000  Uiso   1.00
C876   C     0.40100   0.16266   0.83205   0.00000  Uiso   1.00
C877   C     0.40100   0.33734   0.83205   0.00000  Uiso   1.00
C878   C     0.09900   0.16266   0.83462   0.00000  Uiso   1.00
C879   C     0.34900   0.08734   0.83462   0.00000  Uiso   1.00
C880   C     0.15100   0.41266   0.83205   0.00000  Uiso   1.00
C881   C     0.15100   0.08734   0.83205   0.00000  Uiso   1.00
C882   C     0.06282   0.30687   0.83374   0.00000  Uiso   1.00
C883   C     0.34900   0.41266   0.83462   0.00000  Uiso   1.00
C884   C     0.00867   0.33290   0.71534   0.00000  Uiso   1.00
C885   C     0.49133   0.16710   0.95132   0.00000  Uiso   1.00
C886   C     0.00867   0.16710   0.71534   0.00000  Uiso   1.00
C887   C     0.49133   0.33290   0.95133   0.00000  Uiso   1.00
C888   C     0.25867   0.08290   0.71534   0.00000  Uiso   1.00
C889   C     0.24133   0.41710   0.95132   0.00000  Uiso   1.00
C890   C     0.25867   0.41710   0.71534   0.00000  Uiso   1.00
C891   C     0.24133   0.08290   0.95133   0.00000  Uiso   1.00
C892   C     0.31282   0.44313   0.83374   0.00000  Uiso   1.00
C893   C     0.18718   0.05687   0.83293   0.00000  Uiso   1.00
C894   C     0.18718   0.44313   0.83293   0.00000  Uiso   1.00
C895   C     0.31282   0.05687   0.83374   0.00000  Uiso   1.00
C896   C     0.00116   0.28990   0.69075   0.00000  Uiso   1.00
H897   H     0.49484   0.33922   0.74767   0.00000  Uiso   1.00
H898   H     0.00515   0.16078   0.91900   0.00000  Uiso   1.00
H899   H     0.49485   0.16078   0.74767   0.00000  Uiso   1.00
H900   H     0.00515   0.33921   0.91900   0.00000  Uiso   1.00
H901   H     0.24485   0.08922   0.74767   0.00000  Uiso   1.00
H902   H     0.25515   0.41078   0.91900   0.00000  Uiso   1.00
H903   H     0.24485   0.41078   0.74767   0.00000  Uiso   1.00
H904   H     0.25515   0.08922   0.91900   0.00000  Uiso   1.00
N905   N    -0.00000   0.25000   0.95240   0.00000  Uiso   1.00
N906   N    -0.00000   0.25000   0.71427   0.00000  Uiso   1.00
N907   N     0.25000  -0.00000   0.95240   0.00000  Uiso   1.00
N908   N     0.25000  -0.00000   0.71427   0.00000  Uiso   1.00
O909   O     0.04580   0.20419   0.87154   0.00000  Uiso   1.00
O910   O     0.20419   0.04581   0.79513   0.00000  Uiso   1.00
O911   O     0.20419   0.04581   0.87154   0.00000  Uiso   1.00
O912   O     0.29580   0.45419   0.79513   0.00000  Uiso   1.00
O913   O     0.20419   0.45419   0.79513   0.00000  Uiso   1.00
O914   O     0.29580   0.04581   0.87154   0.00000  Uiso   1.00
O915   O     0.29580   0.04581   0.79513   0.00000  Uiso   1.00
O916   O     0.20419   0.45419   0.87154   0.00000  Uiso   1.00
O917   O     0.03183   0.36207   0.69976   0.00000  Uiso   1.00
O918   O     0.46817   0.13793   0.96691   0.00000  Uiso   1.00
O919   O     0.03181   0.13792   0.69975   0.00000  Uiso   1.00
O920   O     0.45419   0.29581   0.79513   0.00000  Uiso   1.00
O921   O     0.46819   0.36208   0.96692   0.00000  Uiso   1.00
O922   O     0.28182   0.11207   0.69976   0.00000  Uiso   1.00
O923   O     0.21818   0.38793   0.96691   0.00000  Uiso   1.00
O924   O     0.28182   0.38792   0.69975   0.00000  Uiso   1.00
O925   O     0.21818   0.11207   0.96692   0.00000  Uiso   1.00
O926   O     0.45419   0.29581   0.87154   0.00000  Uiso   1.00
O927   O     0.04580   0.20419   0.79513   0.00000  Uiso   1.00
O928   O     0.45419   0.20419   0.79513   0.00000  Uiso   1.00
O929   O     0.04580   0.29581   0.87154   0.00000  Uiso   1.00
O930   O     0.04580   0.29581   0.79513   0.00000  Uiso   1.00
O931   O     0.45419   0.20419   0.87154   0.00000  Uiso   1.00
O932   O     0.29580   0.45419   0.87154   0.00000  Uiso   1.00
Zn933  Zn   -0.00000   0.25000   0.88437   0.00000  Uiso   1.00
Zn934  Zn   -0.00000   0.25000   0.78229   0.00000  Uiso   1.00
Zn935  Zn    0.25000  -0.00000   0.88437   0.00000  Uiso   1.00
Zn936  Zn    0.25000  -0.00000   0.78229   0.00000  Uiso   1.00
Br937  Br    0.89710   0.16703   0.73210   0.00000  Uiso   1.00
Br938  Br    0.85290   0.08297   0.93457   0.00000  Uiso   1.00
Br939  Br    0.86790   0.06157   0.74096   0.00000  Uiso   1.00
Br940  Br    0.63210   0.43843   0.92571   0.00000  Uiso   1.00
Br941  Br    0.85291   0.41704   0.93457   0.00000  Uiso   1.00
Br942  Br    0.64709   0.08296   0.73210   0.00000  Uiso   1.00
Br943  Br    0.63210   0.06157   0.92571   0.00000  Uiso   1.00
Br944  Br    0.86790   0.43843   0.74096   0.00000  Uiso   1.00
Br945  Br    0.60290   0.33297   0.93457   0.00000  Uiso   1.00
Br946  Br    0.61790   0.31156   0.74096   0.00000  Uiso   1.00
Br947  Br    0.88210   0.18843   0.92571   0.00000  Uiso   1.00
Br948  Br    0.60291   0.16704   0.93457   0.00000  Uiso   1.00
Br949  Br    0.89709   0.33296   0.73210   0.00000  Uiso   1.00
Br950  Br    0.88210   0.31158   0.92571   0.00000  Uiso   1.00
Br951  Br    0.61790   0.18842   0.74096   0.00000  Uiso   1.00
Br952  Br    0.64710   0.41703   0.73210   0.00000  Uiso   1.00
C953   C     0.56282   0.19313   0.83374   0.00000  Uiso   1.00
C954   C     0.99884   0.21010   0.97592   0.00000  Uiso   1.00
C955   C     0.50115   0.21010   0.69075   0.00000  Uiso   1.00
C956   C     0.99885   0.28990   0.97592   0.00000  Uiso   1.00
C957   C     0.75115   0.03990   0.69075   0.00000  Uiso   1.00
C958   C     0.74884   0.46010   0.97592   0.00000  Uiso   1.00
C959   C     0.75115   0.46010   0.69075   0.00000  Uiso   1.00
C960   C     0.74884   0.03990   0.97592   0.00000  Uiso   1.00
C961   C     0.88942   0.14069   0.79140   0.00000  Uiso   1.00
C962   C     0.61058   0.35931   0.87526   0.00000  Uiso   1.00
C963   C     0.61701   0.35060   0.79343   0.00000  Uiso   1.00
C964   C     0.93718   0.30687   0.83293   0.00000  Uiso   1.00
C965   C     0.88299   0.14940   0.87324   0.00000  Uiso   1.00
C966   C     0.61058   0.14069   0.87526   0.00000  Uiso   1.00
C967   C     0.88942   0.35931   0.79140   0.00000  Uiso   1.00
C968   C     0.88299   0.35061   0.87324   0.00000  Uiso   1.00
C969   C     0.61701   0.14939   0.79343   0.00000  Uiso   1.00
C970   C     0.63942   0.39068   0.79140   0.00000  Uiso   1.00
C971   C     0.86058   0.10932   0.87526   0.00000  Uiso   1.00
C972   C     0.86701   0.10060   0.79343   0.00000  Uiso   1.00
C973   C     0.63299   0.39940   0.87324   0.00000  Uiso   1.00
C974   C     0.86058   0.39069   0.87526   0.00000  Uiso   1.00
C975   C     0.93718   0.19313   0.83293   0.00000  Uiso   1.00
C976   C     0.63941   0.10931   0.79140   0.00000  Uiso   1.00
C977   C     0.63299   0.10060   0.87324   0.00000  Uiso   1.00
C978   C     0.86701   0.39940   0.79343   0.00000  Uiso   1.00
C979   C     0.59900   0.33734   0.83462   0.00000  Uiso   1.00
C980   C     0.90100   0.16266   0.83205   0.00000  Uiso   1.00
C981   C     0.90100   0.33734   0.83205   0.00000  Uiso   1.00
C982   C     0.59900   0.16266   0.83462   0.00000  Uiso   1.00
C983   C     0.84900   0.08734   0.83462   0.00000  Uiso   1.00
C984   C     0.65100   0.41266   0.83205   0.00000  Uiso   1.00
C985   C     0.65100   0.08734   0.83205   0.00000  Uiso   1.00
C986   C     0.56282   0.30687   0.83374   0.00000  Uiso   1.00
C987   C     0.84900   0.41266   0.83462   0.00000  Uiso   1.00
C988   C     0.50867   0.33290   0.71534   0.00000  Uiso   1.00
C989   C     0.99133   0.16710   0.95132   0.00000  Uiso   1.00
C990   C     0.50867   0.16710   0.71534   0.00000  Uiso   1.00
C991   C     0.99133   0.33290   0.95133   0.00000  Uiso   1.00
C992   C     0.75867   0.08290   0.71534   0.00000  Uiso   1.00
C993   C     0.74133   0.41710   0.95132   0.00000  Uiso   1.00
C994   C     0.75867   0.41710   0.71534   0.00000  Uiso   1.00
C995   C     0.74133   0.08290   0.95133   0.00000  Uiso   1.00
C996   C     0.81282   0.44313   0.83374   0.00000  Uiso   1.00
C997   C     0.68718   0.05687   0.83293   0.00000  Uiso   1.00
C998   C     0.68718   0.44313   0.83293   0.00000  Uiso   1.00
C999   C     0.81282   0.05687   0.83374   0.00000  Uiso   1.00
C1000  C     0.50116   0.28990   0.69075   0.00000  Uiso   1.00
H1001  H     0.99484   0.33922   0.74767   0.00000  Uiso   1.00
H1002  H     0.50515   0.16078   0.91900   0.00000  Uiso   1.00
H1003  H     0.99485   0.16078   0.74767   0.00000  Uiso   1.00
H1004  H     0.50515   0.33921   0.91900   0.00000  Uiso   1.00
H1005  H     0.74485   0.08922   0.74767   0.00000  Uiso   1.00
H1006  H     0.75515   0.41078   0.91900   0.00000  Uiso   1.00
H1007  H     0.74485   0.41078   0.74767   0.00000  Uiso   1.00
H1008  H     0.75515   0.08922   0.91900   0.00000  Uiso   1.00
N1009  N     0.50000   0.25000   0.95240   0.00000  Uiso   1.00
N1010  N     0.50000   0.25000   0.71427   0.00000  Uiso   1.00
N1011  N     0.75000  -0.00000   0.95240   0.00000  Uiso   1.00
N1012  N     0.75000  -0.00000   0.71427   0.00000  Uiso   1.00
O1013  O     0.54580   0.20419   0.87154   0.00000  Uiso   1.00
O1014  O     0.70419   0.04581   0.79513   0.00000  Uiso   1.00
O1015  O     0.70419   0.04581   0.87154   0.00000  Uiso   1.00
O1016  O     0.79580   0.45419   0.79513   0.00000  Uiso   1.00
O1017  O     0.70419   0.45419   0.79513   0.00000  Uiso   1.00
O1018  O     0.79580   0.04581   0.87154   0.00000  Uiso   1.00
O1019  O     0.79580   0.04581   0.79513   0.00000  Uiso   1.00
O1020  O     0.70419   0.45419   0.87154   0.00000  Uiso   1.00
O1021  O     0.53183   0.36207   0.69976   0.00000  Uiso   1.00
O1022  O     0.96817   0.13793   0.96691   0.00000  Uiso   1.00
O1023  O     0.53181   0.13792   0.69975   0.00000  Uiso   1.00
O1024  O     0.95419   0.29581   0.79513   0.00000  Uiso   1.00
O1025  O     0.96819   0.36208   0.96692   0.00000  Uiso   1.00
O1026  O     0.78182   0.11207   0.69976   0.00000  Uiso   1.00
O1027  O     0.71818   0.38793   0.96691   0.00000  Uiso   1.00
O1028  O     0.78182   0.38792   0.69975   0.00000  Uiso   1.00
O1029  O     0.71818   0.11207   0.96692   0.00000  Uiso   1.00
O1030  O     0.95419   0.29581   0.87154   0.00000  Uiso   1.00
O1031  O     0.54580   0.20419   0.79513   0.00000  Uiso   1.00
O1032  O     0.95419   0.20419   0.79513   0.00000  Uiso   1.00
O1033  O     0.54580   0.29581   0.87154   0.00000  Uiso   1.00
O1034  O     0.54580   0.29581   0.79513   0.00000  Uiso   1.00
O1035  O     0.95419   0.20419   0.87154   0.00000  Uiso   1.00
O1036  O     0.79580   0.45419   0.87154   0.00000  Uiso   1.00
Zn1037 Zn    0.50000   0.25000   0.88437   0.00000  Uiso   1.00
Zn1038 Zn    0.50000   0.25000   0.78229   0.00000  Uiso   1.00
Zn1039 Zn    0.75000  -0.00000   0.88437   0.00000  Uiso   1.00
Zn1040 Zn    0.75000  -0.00000   0.78229   0.00000  Uiso   1.00
Br1041 Br    0.39710   0.66703   0.73210   0.00000  Uiso   1.00
Br1042 Br    0.35290   0.58297   0.93457   0.00000  Uiso   1.00
Br1043 Br    0.36790   0.56157   0.74096   0.00000  Uiso   1.00
Br1044 Br    0.13210   0.93843   0.92571   0.00000  Uiso   1.00
Br1045 Br    0.35291   0.91704   0.93457   0.00000  Uiso   1.00
Br1046 Br    0.14709   0.58296   0.73210   0.00000  Uiso   1.00
Br1047 Br    0.13210   0.56157   0.92571   0.00000  Uiso   1.00
Br1048 Br    0.36790   0.93843   0.74096   0.00000  Uiso   1.00
Br1049 Br    0.10290   0.83297   0.93457   0.00000  Uiso   1.00
Br1050 Br    0.11790   0.81156   0.74096   0.00000  Uiso   1.00
Br1051 Br    0.38210   0.68843   0.92571   0.00000  Uiso   1.00
Br1052 Br    0.10291   0.66704   0.93457   0.00000  Uiso   1.00
Br1053 Br    0.39709   0.83296   0.73210   0.00000  Uiso   1.00
Br1054 Br    0.38210   0.81158   0.92571   0.00000  Uiso   1.00
Br1055 Br    0.11790   0.68842   0.74096   0.00000  Uiso   1.00
Br1056 Br    0.14710   0.91703   0.73210   0.00000  Uiso   1.00
C1057  C     0.06282   0.69313   0.83374   0.00000  Uiso   1.00
C1058  C     0.49884   0.71010   0.97592   0.00000  Uiso   1.00
C1059  C     0.00115   0.71010   0.69075   0.00000  Uiso   1.00
C1060  C     0.49885   0.78990   0.97592   0.00000  Uiso   1.00
C1061  C     0.25115   0.53990   0.69075   0.00000  Uiso   1.00
C1062  C     0.24884   0.96010   0.97592   0.00000  Uiso   1.00
C1063  C     0.25115   0.96010   0.69075   0.00000  Uiso   1.00
C1064  C     0.24884   0.53990   0.97592   0.00000  Uiso   1.00
C1065  C     0.38942   0.64069   0.79140   0.00000  Uiso   1.00
C1066  C     0.11058   0.85931   0.87526   0.00000  Uiso   1.00
C1067  C     0.11701   0.85060   0.79343   0.00000  Uiso   1.00
C1068  C     0.43718   0.80687   0.83293   0.00000  Uiso   1.00
C1069  C     0.38299   0.64940   0.87324   0.00000  Uiso   1.00
C1070  C     0.11058   0.64069   0.87526   0.00000  Uiso   1.00
C1071  C     0.38942   0.85931   0.79140   0.00000  Uiso   1.00
C1072  C     0.38299   0.85061   0.87324   0.00000  Uiso   1.00
C1073  C     0.11701   0.64939   0.79343   0.00000  Uiso   1.00
C1074  C     0.13942   0.89068   0.79140   0.00000  Uiso   1.00
C1075  C     0.36058   0.60932   0.87526   0.00000  Uiso   1.00
C1076  C     0.36701   0.60060   0.79343   0.00000  Uiso   1.00
C1077  C     0.13299   0.89940   0.87324   0.00000  Uiso   1.00
C1078  C     0.36058   0.89069   0.87526   0.00000  Uiso   1.00
C1079  C     0.43718   0.69313   0.83293   0.00000  Uiso   1.00
C1080  C     0.13941   0.60931   0.79140   0.00000  Uiso   1.00
C1081  C     0.13299   0.60060   0.87324   0.00000  Uiso   1.00
C1082  C     0.36701   0.89940   0.79343   0.00000  Uiso   1.00
C1083  C     0.09900   0.83734   0.83462   0.00000  Uiso   1.00
C1084  C     0.40100   0.66266   0.83205   0.00000  Uiso   1.00
C1085  C     0.40100   0.83734   0.83205   0.00000  Uiso   1.00
C1086  C     0.09900   0.66266   0.83462   0.00000  Uiso   1.00
C1087  C     0.34900   0.58734   0.83462   0.00000  Uiso   1.00
C1088  C     0.15100   0.91266   0.83205   0.00000  Uiso   1.00
C1089  C     0.15100   0.58734   0.83205   0.00000  Uiso   1.00
C1090  C     0.06282   0.80687   0.83374   0.00000  Uiso   1.00
C1091  C     0.34900   0.91266   0.83462   0.00000  Uiso   1.00
C1092  C     0.00867   0.83290   0.71534   0.00000  Uiso   1.00
C1093  C     0.49133   0.66710   0.95132   0.00000  Uiso   1.00
C1094  C     0.00867   0.66710   0.71534   0.00000  Uiso   1.00
C1095  C     0.49133   0.83290   0.95133   0.00000  Uiso   1.00
C1096  C     0.25867   0.58290   0.71534   0.00000  Uiso   1.00
C1097  C     0.24133   0.91710   0.95132   0.00000  Uiso   1.00
C1098  C     0.25867   0.91710   0.71534   0.00000  Uiso   1.00
C1099  C     0.24133   0.58290   0.95133   0.00000  Uiso   1.00
C1100  C     0.31282   0.94313   0.83374   0.00000  Uiso   1.00
C1101  C     0.18718   0.55687   0.83293   0.00000  Uiso   1.00
C1102  C     0.18718   0.94313   0.83293   0.00000  Uiso   1.00
C1103  C     0.31282   0.55687   0.83374   0.00000  Uiso   1.00
C1104  C     0.00116   0.78990   0.69075   0.00000  Uiso   1.00
H1105  H     0.49484   0.83922   0.74767   0.00000  Uiso   1.00
H1106  H     0.00515   0.66078   0.91900   0.00000  Uiso   1.00
H1107  H     0.49485   0.66078   0.74767   0.00000  Uiso   1.00
H1108  H     0.00515   0.83921   0.91900   0.00000  Uiso   1.00
H1109  H     0.24485   0.58922   0.74767   0.00000  Uiso   1.00
H1110  H     0.25515   0.91078   0.91900   0.00000  Uiso   1.00
H1111  H     0.24485   0.91078   0.74767   0.00000  Uiso   1.00
H1112  H     0.25515   0.58922   0.91900   0.00000  Uiso   1.00
N1113  N    -0.00000   0.75000   0.95240   0.00000  Uiso   1.00
N1114  N    -0.00000   0.75000   0.71427   0.00000  Uiso   1.00
N1115  N     0.25000   0.50000   0.95240   0.00000  Uiso   1.00
N1116  N     0.25000   0.50000   0.71427   0.00000  Uiso   1.00
O1117  O     0.04580   0.70419   0.87154   0.00000  Uiso   1.00
O1118  O     0.20419   0.54581   0.79513   0.00000  Uiso   1.00
O1119  O     0.20419   0.54581   0.87154   0.00000  Uiso   1.00
O1120  O     0.29580   0.95419   0.79513   0.00000  Uiso   1.00
O1121  O     0.20419   0.95419   0.79513   0.00000  Uiso   1.00
O1122  O     0.29580   0.54581   0.87154   0.00000  Uiso   1.00
O1123  O     0.29580   0.54581   0.79513   0.00000  Uiso   1.00
O1124  O     0.20419   0.95419   0.87154   0.00000  Uiso   1.00
O1125  O     0.03183   0.86207   0.69976   0.00000  Uiso   1.00
O1126  O     0.46817   0.63793   0.96691   0.00000  Uiso   1.00
O1127  O     0.03181   0.63792   0.69975   0.00000  Uiso   1.00
O1128  O     0.45419   0.79581   0.79513   0.00000  Uiso   1.00
O1129  O     0.46819   0.86208   0.96692   0.00000  Uiso   1.00
O1130  O     0.28182   0.61207   0.69976   0.00000  Uiso   1.00
O1131  O     0.21818   0.88793   0.96691   0.00000  Uiso   1.00
O1132  O     0.28182   0.88792   0.69975   0.00000  Uiso   1.00
O1133  O     0.21818   0.61207   0.96692   0.00000  Uiso   1.00
O1134  O     0.45419   0.79581   0.87154   0.00000  Uiso   1.00
O1135  O     0.04580   0.70419   0.79513   0.00000  Uiso   1.00
O1136  O     0.45419   0.70419   0.79513   0.00000  Uiso   1.00
O1137  O     0.04580   0.79581   0.87154   0.00000  Uiso   1.00
O1138  O     0.04580   0.79581   0.79513   0.00000  Uiso   1.00
O1139  O     0.45419   0.70419   0.87154   0.00000  Uiso   1.00
O1140  O     0.29580   0.95419   0.87154   0.00000  Uiso   1.00
Zn1141 Zn   -0.00000   0.75000   0.88437   0.00000  Uiso   1.00
Zn1142 Zn   -0.00000   0.75000   0.78229   0.00000  Uiso   1.00
Zn1143 Zn    0.25000   0.50000   0.88437   0.00000  Uiso   1.00
Zn1144 Zn    0.25000   0.50000   0.78229   0.00000  Uiso   1.00
Br1145 Br    0.89710   0.66703   0.73210   0.00000  Uiso   1.00
Br1146 Br    0.85290   0.58297   0.93457   0.00000  Uiso   1.00
Br1147 Br    0.86790   0.56157   0.74096   0.00000  Uiso   1.00
Br1148 Br    0.63210   0.93843   0.92571   0.00000  Uiso   1.00
Br1149 Br    0.85291   0.91704   0.93457   0.00000  Uiso   1.00
Br1150 Br    0.64709   0.58296   0.73210   0.00000  Uiso   1.00
Br1151 Br    0.63210   0.56157   0.92571   0.00000  Uiso   1.00
Br1152 Br    0.86790   0.93843   0.74096   0.00000  Uiso   1.00
Br1153 Br    0.60290   0.83297   0.93457   0.00000  Uiso   1.00
Br1154 Br    0.61790   0.81156   0.74096   0.00000  Uiso   1.00
Br1155 Br    0.88210   0.68843   0.92571   0.00000  Uiso   1.00
Br1156 Br    0.60291   0.66704   0.93457   0.00000  Uiso   1.00
Br1157 Br    0.89709   0.83296   0.73210   0.00000  Uiso   1.00
Br1158 Br    0.88210   0.81158   0.92571   0.00000  Uiso   1.00
Br1159 Br    0.61790   0.68842   0.74096   0.00000  Uiso   1.00
Br1160 Br    0.64710   0.91703   0.73210   0.00000  Uiso   1.00
C1161  C     0.56282   0.69313   0.83374   0.00000  Uiso   1.00
C1162  C     0.99884   0.71010   0.97592   0.00000  Uiso   1.00
C1163  C     0.50115   0.71010   0.69075   0.00000  Uiso   1.00
C1164  C     0.99885   0.78990   0.97592   0.00000  Uiso   1.00
C1165  C     0.75115   0.53990   0.69075   0.00000  Uiso   1.00
C1166  C     0.74884   0.96010   0.97592   0.00000  Uiso   1.00
C1167  C     0.75115   0.96010   0.69075   0.00000  Uiso   1.00
C1168  C     0.74884   0.53990   0.97592   0.00000  Uiso   1.00
C1169  C     0.88942   0.64069   0.79140   0.00000  Uiso   1.00
C1170  C     0.61058   0.85931   0.87526   0.00000  Uiso   1.00
C1171  C     0.61701   0.85060   0.79343   0.00000  Uiso   1.00
C1172  C     0.93718   0.80687   0.83293   0.00000  Uiso   1.00
C1173  C     0.88299   0.64940   0.87324   0.00000  Uiso   1.00
C1174  C     0.61058   0.64069   0.87526   0.00000  Uiso   1.00
C1175  C     0.88942   0.85931   0.79140   0.00000  Uiso   1.00
C1176  C     0.88299   0.85061   0.87324   0.00000  Uiso   1.00
C1177  C     0.61701   0.64939   0.79343   0.00000  Uiso   1.00
C1178  C     0.63942   0.89068   0.79140   0.00000  Uiso   1.00
C1179  C     0.86058   0.60932   0.87526   0.00000  Uiso   1.00
C1180  C     0.86701   0.60060   0.79343   0.00000  Uiso   1.00
C1181  C     0.63299   0.89940   0.87324   0.00000  Uiso   1.00
C1182  C     0.86058   0.89069   0.87526   0.00000  Uiso   1.00
C1183  C     0.93718   0.69313   0.83293   0.00000  Uiso   1.00
C1184  C     0.63941   0.60931   0.79140   0.00000  Uiso   1.00
C1185  C     0.63299   0.60060   0.87324   0.00000  Uiso   1.00
C1186  C     0.86701   0.89940   0.79343   0.00000  Uiso   1.00
C1187  C     0.59900   0.83734   0.83462   0.00000  Uiso   1.00
C1188  C     0.90100   0.66266   0.83205   0.00000  Uiso   1.00
C1189  C     0.90100   0.83734   0.83205   0.00000  Uiso   1.00
C1190  C     0.59900   0.66266   0.83462   0.00000  Uiso   1.00
C1191  C     0.84900   0.58734   0.83462   0.00000  Uiso   1.00
C1192  C     0.65100   0.91266   0.83205   0.00000  Uiso   1.00
C1193  C     0.65100   0.58734   0.83205   0.00000  Uiso   1.00
C1194  C     0.56282   0.80687   0.83374   0.00000  Uiso   1.00
C1195  C     0.84900   0.91266   0.83462   0.00000  Uiso   1.00
C1196  C     0.50867   0.83290   0.71534   0.00000  Uiso   1.00
C1197  C     0.99133   0.66710   0.95132   0.00000  Uiso   1.00
C1198  C     0.50867   0.66710   0.71534   0.00000  Uiso   1.00
C1199  C     0.99133   0.83290   0.95133   0.00000  Uiso   1.00
C1200  C     0.75867   0.58290   0.71534   0.00000  Uiso   1.00
C1201  C     0.74133   0.91710   0.95132   0.00000  Uiso   1.00
C1202  C     0.75867   0.91710   0.71534   0.00000  Uiso   1.00
C1203  C     0.74133   0.58290   0.95133   0.00000  Uiso   1.00
C1204  C     0.81282   0.94313   0.83374   0.00000  Uiso   1.00
C1205  C     0.68718   0.55687   0.83293   0.00000  Uiso   1.00
C1206  C     0.68718   0.94313   0.83293   0.00000  Uiso   1.00
C1207  C     0.81282   0.55687   0.83374   0.00000  Uiso   1.00
C1208  C     0.50116   0.78990   0.69075   0.00000  Uiso   1.00
H1209  H     0.99484   0.83922   0.74767   0.00000  Uiso   1.00
H1210  H     0.50515   0.66078   0.91900   0.00000  Uiso   1.00
H1211  H     0.99485   0.66078   0.74767   0.00000  Uiso   1.00
H1212  H     0.50515   0.83921   0.91900   0.00000  Uiso   1.00
H1213  H     0.74485   0.58922   0.74767   0.00000  Uiso   1.00
H1214  H     0.75515   0.91078   0.91900   0.00000  Uiso   1.00
H1215  H     0.74485   0.91078   0.74767   0.00000  Uiso   1.00
H1216  H     0.75515   0.58922   0.91900   0.00000  Uiso   1.00
N1217  N     0.50000   0.75000   0.95240   0.00000  Uiso   1.00
N1218  N     0.50000   0.75000   0.71427   0.00000  Uiso   1.00
N1219  N     0.75000   0.50000   0.95240   0.00000  Uiso   1.00
N1220  N     0.75000   0.50000   0.71427   0.00000  Uiso   1.00
O1221  O     0.54580   0.70419   0.87154   0.00000  Uiso   1.00
O1222  O     0.70419   0.54581   0.79513   0.00000  Uiso   1.00
O1223  O     0.70419   0.54581   0.87154   0.00000  Uiso   1.00
O1224  O     0.79580   0.95419   0.79513   0.00000  Uiso   1.00
O1225  O     0.70419   0.95419   0.79513   0.00000  Uiso   1.00
O1226  O     0.79580   0.54581   0.87154   0.00000  Uiso   1.00
O1227  O     0.79580   0.54581   0.79513   0.00000  Uiso   1.00
O1228  O     0.70419   0.95419   0.87154   0.00000  Uiso   1.00
O1229  O     0.53183   0.86207   0.69976   0.00000  Uiso   1.00
O1230  O     0.96817   0.63793   0.96691   0.00000  Uiso   1.00
O1231  O     0.53181   0.63792   0.69975   0.00000  Uiso   1.00
O1232  O     0.95419   0.79581   0.79513   0.00000  Uiso   1.00
O1233  O     0.96819   0.86208   0.96692   0.00000  Uiso   1.00
O1234  O     0.78182   0.61207   0.69976   0.00000  Uiso   1.00
O1235  O     0.71818   0.88793   0.96691   0.00000  Uiso   1.00
O1236  O     0.78182   0.88792   0.69975   0.00000  Uiso   1.00
O1237  O     0.71818   0.61207   0.96692   0.00000  Uiso   1.00
O1238  O     0.95419   0.79581   0.87154   0.00000  Uiso   1.00
O1239  O     0.54580   0.70419   0.79513   0.00000  Uiso   1.00
O1240  O     0.95419   0.70419   0.79513   0.00000  Uiso   1.00
O1241  O     0.54580   0.79581   0.87154   0.00000  Uiso   1.00
O1242  O     0.54580   0.79581   0.79513   0.00000  Uiso   1.00
O1243  O     0.95419   0.70419   0.87154   0.00000  Uiso   1.00
O1244  O     0.79580   0.95419   0.87154   0.00000  Uiso   1.00
Zn1245 Zn    0.50000   0.75000   0.88437   0.00000  Uiso   1.00
Zn1246 Zn    0.50000   0.75000   0.78229   0.00000  Uiso   1.00
Zn1247 Zn    0.75000   0.50000   0.88437   0.00000  Uiso   1.00
Zn1248 Zn    0.75000   0.50000   0.78229   0.00000  Uiso   1.00
loop_
_geom_bond_atom_site_label_1
_geom_bond_atom_site_label_2
_geom_bond_distance
_geom_bond_site_symmetry_2
_ccdc_geom_bond_type
Br1    C25     1.942   .     S
Br2    C35     1.942   .     S
Br3    C36     1.939   .     S
Br4    C37     1.939   .     S
Br5    C38     1.942   .     S
Br6    C40     1.942   .     S
Br7    C41     1.939   .     S
Br8    C42     1.939   .     S
Br9    C26     1.942   .     S
Br10   C27     1.939   .     S
Br11   C29     1.939   .     S
Br12   C30     1.942   .     S
Br13   C31     1.942   .     S
Br14   C32     1.939   .     S
Br15   C33     1.939   .     S
Br16   C34     1.942   .     S
C17    O95     1.296   .     A
C17    C46     1.444   .     S
C17    O77     1.289   .     A
C18    C53     1.485   .     S
C18    N177    1.374   .     A
C18    C539    1.428   .     S
C19    C54     1.485   .     S
C19    C954    1.428   1_454 S
C19    N74     1.374   .     S
C20    C55     1.485   .     S
C20    N177    1.374   .     A
C20    C584    1.428   .     S
C21    N76     1.374   .     A
C21    C56     1.485   .     S
C21    C856    1.428   1_554 S
C22    C57     1.485   .     S
C22    C439    1.428   .     S
C22    N283    1.374   .     S
C23    C58     1.485   .     S
C23    C854    1.428   1_554 S
C23    N284    1.374   .     S
C24    N75     1.374   .     A
C24    C59     1.485   .     S
C24    C437    1.428   .     S
C25    C44     1.411   .     A
C25    C36     1.380   .     A
C26    C43     1.411   .     A
C26    C37     1.380   .     A
C27    C34     1.380   .     A
C27    C43     1.407   .     A
C28    O94     1.296   .     A
C28    C45     1.444   .     S
C28    O88     1.289   .     A
C29    C44     1.407   .     A
C29    C35     1.380   .     A
C30    C41     1.380   .     A
C30    C46     1.411   .     A
C31    C42     1.380   .     A
C31    C45     1.411   .     A
C32    C45     1.407   .     A
C32    C38     1.380   .     A
C33    C46     1.407   .     A
C33    C40     1.380   .     A
C34    C48     1.411   .     A
C35    C47     1.411   .     A
C36    C47     1.407   .     A
C37    C48     1.407   .     A
C38    C51     1.411   .     A
C39    O99     1.296   .     A
C39    C44     1.444   .     S
C39    O96     1.289   .     A
C40    C49     1.411   .     A
C41    C49     1.407   .     A
C42    C51     1.407   .     A
C43    C50     1.444   .     S
C47    C63     1.444   .     S
C48    C62     1.444   .     S
C49    C61     1.444   .     S
C50    O98     1.296   .     A
C50    O97     1.289   .     A
C51    C60     1.444   .     S
C52    O85     1.221   .     D
C52    C64     1.485   .     S
C52    H169    1.073   1_455 S
C53    O86     1.221   .     D
C53    H170    1.073   .     S
C54    O87     1.221   .     D
C54    H171    1.073   1_455 S
C55    O89     1.221   .     D
C55    H172    1.073   .     S
C56    O90     1.221   .     D
C56    H69     1.073   .     S
C57    H70     1.073   .     S
C57    O91     1.221   .     D
C58    H71     1.073   .     S
C58    O92     1.221   .     D
C59    H72     1.073   .     S
C59    O93     1.221   .     D
C60    O80     1.296   .     A
C60    O100    1.289   .     A
C61    O78     1.289   .     A
C61    O79     1.296   .     A
C62    O81     1.289   .     A
C62    O84     1.296   .     A
C63    O82     1.289   .     A
C63    O83     1.296   .     A
C64    C956    1.428   1_454 S
C64    N74     1.374   .     S
H65    C156    1.073   .     S
H66    C157    1.073   1_455 S
H67    C158    1.073   .     S
H68    C159    1.073   1_455 S
N73    Zn101   2.016   .     S
N73    C122    1.374   1_455 A
N73    C124    1.374   1_455 A
N74    Zn102   2.016   .     S
N75    Zn103   2.016   .     S
N75    C230    1.374   1_545 S
N76    Zn104   2.016   .     S
N76    C231    1.374   1_545 S
O77    Zn101   2.010   .     S
O78    Zn104   2.010   .     S
O79    Zn103   2.002   .     S
O80    Zn312   2.002   .     S
O81    Zn312   2.010   .     S
O82    Zn103   2.010   .     S
O83    Zn104   2.002   .     S
O84    Zn311   2.002   .     S
O88    Zn206   2.010   .     S
O94    Zn205   2.002   .     S
O95    Zn102   2.002   .     S
O96    Zn206   2.010   .     S
O97    Zn101   2.010   .     S
O98    Zn102   2.002   .     S
O99    Zn205   2.002   .     S
O100   Zn311   2.010   .     S
Zn101  O198    2.002   1_455 S
Zn101  O203    2.002   1_455 S
Zn102  O200    2.010   1_455 S
Zn102  O192    2.010   1_455 S
Zn103  O292    2.002   1_545 S
Zn103  O308    2.010   1_545 S
Zn104  O289    2.010   1_545 S
Zn104  O288    2.002   1_545 S
Br105  C129    1.942   .     S
Br106  C139    1.942   .     S
Br107  C140    1.939   .     S
Br108  C141    1.939   .     S
Br109  C142    1.942   .     S
Br110  C144    1.942   .     S
Br111  C145    1.939   .     S
Br112  C146    1.939   .     S
Br113  C130    1.942   .     S
Br114  C131    1.939   .     S
Br115  C133    1.939   .     S
Br116  C134    1.942   .     S
Br117  C135    1.942   .     S
Br118  C136    1.939   .     S
Br119  C137    1.939   .     S
Br120  C138    1.942   .     S
C121   O199    1.296   .     A
C121   C150    1.444   .     S
C121   O181    1.289   .     A
C122   C157    1.485   .     S
C122   N73     1.374   1_655 A
C122   C435    1.428   1_655 S
C123   C158    1.485   .     S
C123   C850    1.428   1_554 S
C123   N178    1.374   .     S
C124   C159    1.485   .     S
C124   N73     1.374   1_655 A
C124   C480    1.428   1_655 S
C125   N180    1.374   .     A
C125   C160    1.485   .     S
C125   C960    1.428   1_554 S
C126   C161    1.485   .     S
C126   C543    1.428   .     S
C126   N387    1.374   .     S
C127   C162    1.485   .     S
C127   C958    1.428   1_554 S
C127   N388    1.374   .     S
C128   N179    1.374   .     A
C128   C163    1.485   .     S
C128   C541    1.428   .     S
C129   C148    1.411   .     A
C129   C140    1.380   .     A
C130   C147    1.411   .     A
C130   C141    1.380   .     A
C131   C138    1.380   .     A
C131   C147    1.407   .     A
C132   O198    1.296   .     A
C132   C149    1.444   .     S
C132   O192    1.289   .     A
C133   C148    1.407   .     A
C133   C139    1.380   .     A
C134   C145    1.380   .     A
C134   C150    1.411   .     A
C135   C146    1.380   .     A
C135   C149    1.411   .     A
C136   C149    1.407   .     A
C136   C142    1.380   .     A
C137   C150    1.407   .     A
C137   C144    1.380   .     A
C138   C152    1.411   .     A
C139   C151    1.411   .     A
C140   C151    1.407   .     A
C141   C152    1.407   .     A
C142   C155    1.411   .     A
C143   O203    1.296   .     A
C143   C148    1.444   .     S
C143   O200    1.289   .     A
C144   C153    1.411   .     A
C145   C153    1.407   .     A
C146   C155    1.407   .     A
C147   C154    1.444   .     S
C151   C167    1.444   .     S
C152   C166    1.444   .     S
C153   C165    1.444   .     S
C154   O202    1.296   .     A
C154   O201    1.289   .     A
C155   C164    1.444   .     S
C156   O189    1.221   .     D
C156   C168    1.485   .     S
C157   O190    1.221   .     D
C157   H66     1.073   1_655 S
C158   O191    1.221   .     D
C159   O193    1.221   .     D
C159   H68     1.073   1_655 S
C160   O194    1.221   .     D
C160   H173    1.073   .     S
C161   H174    1.073   .     S
C161   O195    1.221   .     D
C162   H175    1.073   .     S
C162   O196    1.221   .     D
C163   H176    1.073   .     S
C163   O197    1.221   .     D
C164   O184    1.296   .     A
C164   O204    1.289   .     A
C165   O182    1.289   .     A
C165   O183    1.296   .     A
C166   O185    1.289   .     A
C166   O188    1.296   .     A
C167   O186    1.289   .     A
C167   O187    1.296   .     A
C168   C852    1.428   1_554 S
C168   N178    1.374   .     S
H169   C52     1.073   1_655 S
H171   C54     1.073   1_655 S
N177   Zn205   2.016   .     S
N178   Zn206   2.016   .     S
N179   Zn207   2.016   .     S
N179   C334    1.374   1_545 S
N180   Zn208   2.016   .     S
N180   C335    1.374   1_545 S
O181   Zn205   2.010   .     S
O182   Zn208   2.010   .     S
O183   Zn207   2.002   .     S
O184   Zn416   2.002   .     S
O185   Zn416   2.010   .     S
O186   Zn207   2.010   .     S
O187   Zn208   2.002   .     S
O188   Zn415   2.002   .     S
O192   Zn102   2.010   1_655 S
O198   Zn101   2.002   1_655 S
O199   Zn206   2.002   .     S
O200   Zn102   2.010   1_655 S
O201   Zn205   2.010   .     S
O202   Zn206   2.002   .     S
O203   Zn101   2.002   1_655 S
O204   Zn415   2.010   .     S
Zn207  O396    2.002   1_545 S
Zn207  O412    2.010   1_545 S
Zn208  O393    2.010   1_545 S
Zn208  O392    2.002   1_545 S
Br209  C233    1.942   .     S
Br210  C243    1.942   .     S
Br211  C244    1.939   .     S
Br212  C245    1.939   .     S
Br213  C246    1.942   .     S
Br214  C248    1.942   .     S
Br215  C249    1.939   .     S
Br216  C250    1.939   .     S
Br217  C234    1.942   .     S
Br218  C235    1.939   .     S
Br219  C237    1.939   .     S
Br220  C238    1.942   .     S
Br221  C239    1.942   .     S
Br222  C240    1.939   .     S
Br223  C241    1.939   .     S
Br224  C242    1.942   .     S
C225   O303    1.296   .     A
C225   C254    1.444   .     S
C225   O285    1.289   .     A
C226   C261    1.485   .     S
C226   N385    1.374   .     A
C226   C747    1.428   .     S
C227   C262    1.485   .     S
C227   C1162   1.428   1_454 S
C227   N282    1.374   .     S
C228   C263    1.485   .     S
C228   N385    1.374   .     A
C228   C792    1.428   .     S
C229   N284    1.374   .     A
C229   C264    1.485   .     S
C229   C1064   1.428   1_554 S
C230   C265    1.485   .     S
C230   C647    1.428   .     S
C230   N75     1.374   1_565 S
C231   C266    1.485   .     S
C231   C1062   1.428   1_554 S
C231   N76     1.374   1_565 S
C232   N283    1.374   .     A
C232   C267    1.485   .     S
C232   C645    1.428   .     S
C233   C252    1.411   .     A
C233   C244    1.380   .     A
C234   C251    1.411   .     A
C234   C245    1.380   .     A
C235   C242    1.380   .     A
C235   C251    1.407   .     A
C236   O302    1.296   .     A
C236   C253    1.444   .     S
C236   O296    1.289   .     A
C237   C252    1.407   .     A
C237   C243    1.380   .     A
C238   C249    1.380   .     A
C238   C254    1.411   .     A
C239   C250    1.380   .     A
C239   C253    1.411   .     A
C240   C253    1.407   .     A
C240   C246    1.380   .     A
C241   C254    1.407   .     A
C241   C248    1.380   .     A
C242   C256    1.411   .     A
C243   C255    1.411   .     A
C244   C255    1.407   .     A
C245   C256    1.407   .     A
C246   C259    1.411   .     A
C247   O307    1.296   .     A
C247   C252    1.444   .     S
C247   O304    1.289   .     A
C248   C257    1.411   .     A
C249   C257    1.407   .     A
C250   C259    1.407   .     A
C251   C258    1.444   .     S
C255   C271    1.444   .     S
C256   C270    1.444   .     S
C257   C269    1.444   .     S
C258   O306    1.296   .     A
C258   O305    1.289   .     A
C259   C268    1.444   .     S
C260   O293    1.221   .     D
C260   C272    1.485   .     S
C260   H377    1.073   1_455 S
C261   O294    1.221   .     D
C261   H378    1.073   .     S
C262   O295    1.221   .     D
C262   H379    1.073   1_455 S
C263   O297    1.221   .     D
C263   H380    1.073   .     S
C264   O298    1.221   .     D
C264   H277    1.073   .     S
C265   H278    1.073   .     S
C265   O299    1.221   .     D
C266   H279    1.073   .     S
C266   O300    1.221   .     D
C267   H280    1.073   .     S
C267   O301    1.221   .     D
C268   O288    1.296   .     A
C268   O308    1.289   .     A
C269   O286    1.289   .     A
C269   O287    1.296   .     A
C270   O289    1.289   .     A
C270   O292    1.296   .     A
C271   O290    1.289   .     A
C271   O291    1.296   .     A
C272   C1164   1.428   1_454 S
C272   N282    1.374   .     S
H273   C364    1.073   .     S
H274   C365    1.073   1_455 S
H275   C366    1.073   .     S
H276   C367    1.073   1_455 S
N281   Zn309   2.016   .     S
N281   C330    1.374   1_455 A
N281   C332    1.374   1_455 A
N282   Zn310   2.016   .     S
N283   Zn311   2.016   .     S
N284   Zn312   2.016   .     S
O285   Zn309   2.010   .     S
O286   Zn312   2.010   .     S
O287   Zn311   2.002   .     S
O288   Zn104   2.002   1_565 S
O289   Zn104   2.010   1_565 S
O290   Zn311   2.010   .     S
O291   Zn312   2.002   .     S
O292   Zn103   2.002   1_565 S
O296   Zn414   2.010   .     S
O302   Zn413   2.002   .     S
O303   Zn310   2.002   .     S
O304   Zn414   2.010   .     S
O305   Zn309   2.010   .     S
O306   Zn310   2.002   .     S
O307   Zn413   2.002   .     S
O308   Zn103   2.010   1_565 S
Zn309  O406    2.002   1_455 S
Zn309  O411    2.002   1_455 S
Zn310  O408    2.010   1_455 S
Zn310  O400    2.010   1_455 S
Br313  C337    1.942   .     S
Br314  C347    1.942   .     S
Br315  C348    1.939   .     S
Br316  C349    1.939   .     S
Br317  C350    1.942   .     S
Br318  C352    1.942   .     S
Br319  C353    1.939   .     S
Br320  C354    1.939   .     S
Br321  C338    1.942   .     S
Br322  C339    1.939   .     S
Br323  C341    1.939   .     S
Br324  C342    1.942   .     S
Br325  C343    1.942   .     S
Br326  C344    1.939   .     S
Br327  C345    1.939   .     S
Br328  C346    1.942   .     S
C329   O407    1.296   .     A
C329   C358    1.444   .     S
C329   O389    1.289   .     A
C330   C365    1.485   .     S
C330   N281    1.374   1_655 A
C330   C643    1.428   1_655 S
C331   C366    1.485   .     S
C331   C1058   1.428   1_554 S
C331   N386    1.374   .     S
C332   C367    1.485   .     S
C332   N281    1.374   1_655 A
C332   C688    1.428   1_655 S
C333   N388    1.374   .     A
C333   C368    1.485   .     S
C333   C1168   1.428   1_554 S
C334   C369    1.485   .     S
C334   C751    1.428   .     S
C334   N179    1.374   1_565 S
C335   C370    1.485   .     S
C335   C1166   1.428   1_554 S
C335   N180    1.374   1_565 S
C336   N387    1.374   .     A
C336   C371    1.485   .     S
C336   C749    1.428   .     S
C337   C356    1.411   .     A
C337   C348    1.380   .     A
C338   C355    1.411   .     A
C338   C349    1.380   .     A
C339   C346    1.380   .     A
C339   C355    1.407   .     A
C340   O406    1.296   .     A
C340   C357    1.444   .     S
C340   O400    1.289   .     A
C341   C356    1.407   .     A
C341   C347    1.380   .     A
C342   C353    1.380   .     A
C342   C358    1.411   .     A
C343   C354    1.380   .     A
C343   C357    1.411   .     A
C344   C357    1.407   .     A
C344   C350    1.380   .     A
C345   C358    1.407   .     A
C345   C352    1.380   .     A
C346   C360    1.411   .     A
C347   C359    1.411   .     A
C348   C359    1.407   .     A
C349   C360    1.407   .     A
C350   C363    1.411   .     A
C351   O411    1.296   .     A
C351   C356    1.444   .     S
C351   O408    1.289   .     A
C352   C361    1.411   .     A
C353   C361    1.407   .     A
C354   C363    1.407   .     A
C355   C362    1.444   .     S
C359   C375    1.444   .     S
C360   C374    1.444   .     S
C361   C373    1.444   .     S
C362   O410    1.296   .     A
C362   O409    1.289   .     A
C363   C372    1.444   .     S
C364   O397    1.221   .     D
C364   C376    1.485   .     S
C365   O398    1.221   .     D
C365   H274    1.073   1_655 S
C366   O399    1.221   .     D
C367   O401    1.221   .     D
C367   H276    1.073   1_655 S
C368   O402    1.221   .     D
C368   H381    1.073   .     S
C369   H382    1.073   .     S
C369   O403    1.221   .     D
C370   H383    1.073   .     S
C370   O404    1.221   .     D
C371   H384    1.073   .     S
C371   O405    1.221   .     D
C372   O392    1.296   .     A
C372   O412    1.289   .     A
C373   O390    1.289   .     A
C373   O391    1.296   .     A
C374   O393    1.289   .     A
C374   O396    1.296   .     A
C375   O394    1.289   .     A
C375   O395    1.296   .     A
C376   C1060   1.428   1_554 S
C376   N386    1.374   .     S
H377   C260    1.073   1_655 S
H379   C262    1.073   1_655 S
N385   Zn413   2.016   .     S
N386   Zn414   2.016   .     S
N387   Zn415   2.016   .     S
N388   Zn416   2.016   .     S
O389   Zn413   2.010   .     S
O390   Zn416   2.010   .     S
O391   Zn415   2.002   .     S
O392   Zn208   2.002   1_565 S
O393   Zn208   2.010   1_565 S
O394   Zn415   2.010   .     S
O395   Zn416   2.002   .     S
O396   Zn207   2.002   1_565 S
O400   Zn310   2.010   1_655 S
O406   Zn309   2.002   1_655 S
O407   Zn414   2.002   .     S
O408   Zn310   2.010   1_655 S
O409   Zn413   2.010   .     S
O410   Zn414   2.002   .     S
O411   Zn309   2.002   1_655 S
O412   Zn207   2.010   1_565 S
Br417  C441    1.942   .     S
Br418  C451    1.942   .     S
Br419  C452    1.939   .     S
Br420  C453    1.939   .     S
Br421  C454    1.942   .     S
Br422  C456    1.942   .     S
Br423  C457    1.939   .     S
Br424  C458    1.939   .     S
Br425  C442    1.942   .     S
Br426  C443    1.939   .     S
Br427  C445    1.939   .     S
Br428  C446    1.942   .     S
Br429  C447    1.942   .     S
Br430  C448    1.939   .     S
Br431  C449    1.939   .     S
Br432  C450    1.942   .     S
C433   O511    1.296   .     A
C433   C462    1.444   .     S
C433   O493    1.289   .     A
C434   C469    1.485   .     S
C434   N593    1.374   .     A
C434   C955    1.428   .     S
C435   C470    1.485   .     S
C435   C122    1.428   1_455 S
C435   N490    1.374   .     S
C436   C471    1.485   .     S
C436   N593    1.374   .     A
C436   C1000   1.428   .     S
C437   N492    1.374   .     A
C437   C472    1.485   .     S
C438   C473    1.485   .     S
C438   C855    1.428   .     S
C438   N699    1.374   .     S
C439   C474    1.485   .     S
C439   N700    1.374   .     S
C440   N491    1.374   .     A
C440   C475    1.485   .     S
C440   C853    1.428   .     S
C441   C460    1.411   .     A
C441   C452    1.380   .     A
C442   C459    1.411   .     A
C442   C453    1.380   .     A
C443   C450    1.380   .     A
C443   C459    1.407   .     A
C444   O510    1.296   .     A
C444   C461    1.444   .     S
C444   O504    1.289   .     A
C445   C460    1.407   .     A
C445   C451    1.380   .     A
C446   C457    1.380   .     A
C446   C462    1.411   .     A
C447   C458    1.380   .     A
C447   C461    1.411   .     A
C448   C461    1.407   .     A
C448   C454    1.380   .     A
C449   C462    1.407   .     A
C449   C456    1.380   .     A
C450   C464    1.411   .     A
C451   C463    1.411   .     A
C452   C463    1.407   .     A
C453   C464    1.407   .     A
C454   C467    1.411   .     A
C455   O515    1.296   .     A
C455   C460    1.444   .     S
C455   O512    1.289   .     A
C456   C465    1.411   .     A
C457   C465    1.407   .     A
C458   C467    1.407   .     A
C459   C466    1.444   .     S
C463   C479    1.444   .     S
C464   C478    1.444   .     S
C465   C477    1.444   .     S
C466   O514    1.296   .     A
C466   O513    1.289   .     A
C467   C476    1.444   .     S
C468   O501    1.221   .     D
C468   C480    1.485   .     S
C468   H585    1.073   1_455 S
C469   O502    1.221   .     D
C469   H586    1.073   .     S
C470   O503    1.221   .     D
C470   H587    1.073   1_455 S
C471   O505    1.221   .     D
C471   H588    1.073   .     S
C472   O506    1.221   .     D
C472   H485    1.073   .     S
C473   H486    1.073   .     S
C473   O507    1.221   .     D
C474   H487    1.073   .     S
C474   O508    1.221   .     D
C475   H488    1.073   .     S
C475   O509    1.221   .     D
C476   O496    1.296   .     A
C476   O516    1.289   .     A
C477   O494    1.289   .     A
C477   O495    1.296   .     A
C478   O497    1.289   .     A
C478   O500    1.296   .     A
C479   O498    1.289   .     A
C479   O499    1.296   .     A
C480   C124    1.428   1_455 S
C480   N490    1.374   .     S
H481   C572    1.073   .     S
H482   C573    1.073   1_455 S
H483   C574    1.073   .     S
H484   C575    1.073   1_455 S
N489   Zn517   2.016   .     S
N489   C538    1.374   1_455 A
N489   C540    1.374   1_455 A
N490   Zn518   2.016   .     S
N491   Zn519   2.016   .     S
N491   C646    1.374   1_545 S
N492   Zn520   2.016   .     S
N492   C647    1.374   1_545 S
O493   Zn517   2.010   .     S
O494   Zn520   2.010   .     S
O495   Zn519   2.002   .     S
O496   Zn728   2.002   .     S
O497   Zn728   2.010   .     S
O498   Zn519   2.010   .     S
O499   Zn520   2.002   .     S
O500   Zn727   2.002   .     S
O504   Zn622   2.010   .     S
O510   Zn621   2.002   .     S
O511   Zn518   2.002   .     S
O512   Zn622   2.010   .     S
O513   Zn517   2.010   .     S
O514   Zn518   2.002   .     S
O515   Zn621   2.002   .     S
O516   Zn727   2.010   .     S
Zn517  O614    2.002   1_455 S
Zn517  O619    2.002   1_455 S
Zn518  O616    2.010   1_455 S
Zn518  O608    2.010   1_455 S
Zn519  O708    2.002   1_545 S
Zn519  O724    2.010   1_545 S
Zn520  O705    2.010   1_545 S
Zn520  O704    2.002   1_545 S
Br521  C545    1.942   .     S
Br522  C555    1.942   .     S
Br523  C556    1.939   .     S
Br524  C557    1.939   .     S
Br525  C558    1.942   .     S
Br526  C560    1.942   .     S
Br527  C561    1.939   .     S
Br528  C562    1.939   .     S
Br529  C546    1.942   .     S
Br530  C547    1.939   .     S
Br531  C549    1.939   .     S
Br532  C550    1.942   .     S
Br533  C551    1.942   .     S
Br534  C552    1.939   .     S
Br535  C553    1.939   .     S
Br536  C554    1.942   .     S
C537   O615    1.296   .     A
C537   C566    1.444   .     S
C537   O597    1.289   .     A
C538   C573    1.485   .     S
C538   N489    1.374   1_655 A
C538   C851    1.428   1_655 S
C539   C574    1.485   .     S
C539   N594    1.374   .     S
C540   C575    1.485   .     S
C540   N489    1.374   1_655 A
C540   C896    1.428   1_655 S
C541   N596    1.374   .     A
C541   C576    1.485   .     S
C542   C577    1.485   .     S
C542   C959    1.428   .     S
C542   N803    1.374   .     S
C543   C578    1.485   .     S
C543   N804    1.374   .     S
C544   N595    1.374   .     A
C544   C579    1.485   .     S
C544   C957    1.428   .     S
C545   C564    1.411   .     A
C545   C556    1.380   .     A
C546   C563    1.411   .     A
C546   C557    1.380   .     A
C547   C554    1.380   .     A
C547   C563    1.407   .     A
C548   O614    1.296   .     A
C548   C565    1.444   .     S
C548   O608    1.289   .     A
C549   C564    1.407   .     A
C549   C555    1.380   .     A
C550   C561    1.380   .     A
C550   C566    1.411   .     A
C551   C562    1.380   .     A
C551   C565    1.411   .     A
C552   C565    1.407   .     A
C552   C558    1.380   .     A
C553   C566    1.407   .     A
C553   C560    1.380   .     A
C554   C568    1.411   .     A
C555   C567    1.411   .     A
C556   C567    1.407   .     A
C557   C568    1.407   .     A
C558   C571    1.411   .     A
C559   O619    1.296   .     A
C559   C564    1.444   .     S
C559   O616    1.289   .     A
C560   C569    1.411   .     A
C561   C569    1.407   .     A
C562   C571    1.407   .     A
C563   C570    1.444   .     S
C567   C583    1.444   .     S
C568   C582    1.444   .     S
C569   C581    1.444   .     S
C570   O618    1.296   .     A
C570   O617    1.289   .     A
C571   C580    1.444   .     S
C572   O605    1.221   .     D
C572   C584    1.485   .     S
C573   O606    1.221   .     D
C573   H482    1.073   1_655 S
C574   O607    1.221   .     D
C575   O609    1.221   .     D
C575   H484    1.073   1_655 S
C576   O610    1.221   .     D
C576   H589    1.073   .     S
C577   H590    1.073   .     S
C577   O611    1.221   .     D
C578   H591    1.073   .     S
C578   O612    1.221   .     D
C579   H592    1.073   .     S
C579   O613    1.221   .     D
C580   O600    1.296   .     A
C580   O620    1.289   .     A
C581   O598    1.289   .     A
C581   O599    1.296   .     A
C582   O601    1.289   .     A
C582   O604    1.296   .     A
C583   O602    1.289   .     A
C583   O603    1.296   .     A
C584   N594    1.374   .     S
H585   C468    1.073   1_655 S
H587   C470    1.073   1_655 S
N593   Zn621   2.016   .     S
N594   Zn622   2.016   .     S
N595   Zn623   2.016   .     S
N595   C750    1.374   1_545 S
N596   Zn624   2.016   .     S
N596   C751    1.374   1_545 S
O597   Zn621   2.010   .     S
O598   Zn624   2.010   .     S
O599   Zn623   2.002   .     S
O600   Zn832   2.002   .     S
O601   Zn832   2.010   .     S
O602   Zn623   2.010   .     S
O603   Zn624   2.002   .     S
O604   Zn831   2.002   .     S
O608   Zn518   2.010   1_655 S
O614   Zn517   2.002   1_655 S
O615   Zn622   2.002   .     S
O616   Zn518   2.010   1_655 S
O617   Zn621   2.010   .     S
O618   Zn622   2.002   .     S
O619   Zn517   2.002   1_655 S
O620   Zn831   2.010   .     S
Zn623  O812    2.002   1_545 S
Zn623  O828    2.010   1_545 S
Zn624  O809    2.010   1_545 S
Zn624  O808    2.002   1_545 S
Br625  C649    1.942   .     S
Br626  C659    1.942   .     S
Br627  C660    1.939   .     S
Br628  C661    1.939   .     S
Br629  C662    1.942   .     S
Br630  C664    1.942   .     S
Br631  C665    1.939   .     S
Br632  C666    1.939   .     S
Br633  C650    1.942   .     S
Br634  C651    1.939   .     S
Br635  C653    1.939   .     S
Br636  C654    1.942   .     S
Br637  C655    1.942   .     S
Br638  C656    1.939   .     S
Br639  C657    1.939   .     S
Br640  C658    1.942   .     S
C641   O719    1.296   .     A
C641   C670    1.444   .     S
C641   O701    1.289   .     A
C642   C677    1.485   .     S
C642   N801    1.374   .     A
C642   C1163   1.428   .     S
C643   C678    1.485   .     S
C643   C330    1.428   1_455 S
C643   N698    1.374   .     S
C644   C679    1.485   .     S
C644   N801    1.374   .     A
C644   C1208   1.428   .     S
C645   N700    1.374   .     A
C645   C680    1.485   .     S
C646   C681    1.485   .     S
C646   C1063   1.428   .     S
C646   N491    1.374   1_565 S
C647   C682    1.485   .     S
C647   N492    1.374   1_565 S
C648   N699    1.374   .     A
C648   C683    1.485   .     S
C648   C1061   1.428   .     S
C649   C668    1.411   .     A
C649   C660    1.380   .     A
C650   C667    1.411   .     A
C650   C661    1.380   .     A
C651   C658    1.380   .     A
C651   C667    1.407   .     A
C652   O718    1.296   .     A
C652   C669    1.444   .     S
C652   O712    1.289   .     A
C653   C668    1.407   .     A
C653   C659    1.380   .     A
C654   C665    1.380   .     A
C654   C670    1.411   .     A
C655   C666    1.380   .     A
C655   C669    1.411   .     A
C656   C669    1.407   .     A
C656   C662    1.380   .     A
C657   C670    1.407   .     A
C657   C664    1.380   .     A
C658   C672    1.411   .     A
C659   C671    1.411   .     A
C660   C671    1.407   .     A
C661   C672    1.407   .     A
C662   C675    1.411   .     A
C663   O723    1.296   .     A
C663   C668    1.444   .     S
C663   O720    1.289   .     A
C664   C673    1.411   .     A
C665   C673    1.407   .     A
C666   C675    1.407   .     A
C667   C674    1.444   .     S
C671   C687    1.444   .     S
C672   C686    1.444   .     S
C673   C685    1.444   .     S
C674   O722    1.296   .     A
C674   O721    1.289   .     A
C675   C684    1.444   .     S
C676   O709    1.221   .     D
C676   C688    1.485   .     S
C676   H793    1.073   1_455 S
C677   O710    1.221   .     D
C677   H794    1.073   .     S
C678   O711    1.221   .     D
C678   H795    1.073   1_455 S
C679   O713    1.221   .     D
C679   H796    1.073   .     S
C680   O714    1.221   .     D
C680   H693    1.073   .     S
C681   H694    1.073   .     S
C681   O715    1.221   .     D
C682   H695    1.073   .     S
C682   O716    1.221   .     D
C683   H696    1.073   .     S
C683   O717    1.221   .     D
C684   O704    1.296   .     A
C684   O724    1.289   .     A
C685   O702    1.289   .     A
C685   O703    1.296   .     A
C686   O705    1.289   .     A
C686   O708    1.296   .     A
C687   O706    1.289   .     A
C687   O707    1.296   .     A
C688   C332    1.428   1_455 S
C688   N698    1.374   .     S
H689   C780    1.073   .     S
H690   C781    1.073   1_455 S
H691   C782    1.073   .     S
H692   C783    1.073   1_455 S
N697   Zn725   2.016   .     S
N697   C746    1.374   1_455 A
N697   C748    1.374   1_455 A
N698   Zn726   2.016   .     S
N699   Zn727   2.016   .     S
N700   Zn728   2.016   .     S
O701   Zn725   2.010   .     S
O702   Zn728   2.010   .     S
O703   Zn727   2.002   .     S
O704   Zn520   2.002   1_565 S
O705   Zn520   2.010   1_565 S
O706   Zn727   2.010   .     S
O707   Zn728   2.002   .     S
O708   Zn519   2.002   1_565 S
O712   Zn830   2.010   .     S
O718   Zn829   2.002   .     S
O719   Zn726   2.002   .     S
O720   Zn830   2.010   .     S
O721   Zn725   2.010   .     S
O722   Zn726   2.002   .     S
O723   Zn829   2.002   .     S
O724   Zn519   2.010   1_565 S
Zn725  O822    2.002   1_455 S
Zn725  O827    2.002   1_455 S
Zn726  O824    2.010   1_455 S
Zn726  O816    2.010   1_455 S
Br729  C753    1.942   .     S
Br730  C763    1.942   .     S
Br731  C764    1.939   .     S
Br732  C765    1.939   .     S
Br733  C766    1.942   .     S
Br734  C768    1.942   .     S
Br735  C769    1.939   .     S
Br736  C770    1.939   .     S
Br737  C754    1.942   .     S
Br738  C755    1.939   .     S
Br739  C757    1.939   .     S
Br740  C758    1.942   .     S
Br741  C759    1.942   .     S
Br742  C760    1.939   .     S
Br743  C761    1.939   .     S
Br744  C762    1.942   .     S
C745   O823    1.296   .     A
C745   C774    1.444   .     S
C745   O805    1.289   .     A
C746   C781    1.485   .     S
C746   N697    1.374   1_655 A
C746   C1059   1.428   1_655 S
C747   C782    1.485   .     S
C747   N802    1.374   .     S
C748   C783    1.485   .     S
C748   N697    1.374   1_655 A
C748   C1104   1.428   1_655 S
C749   N804    1.374   .     A
C749   C784    1.485   .     S
C750   C785    1.485   .     S
C750   C1167   1.428   .     S
C750   N595    1.374   1_565 S
C751   C786    1.485   .     S
C751   N596    1.374   1_565 S
C752   N803    1.374   .     A
C752   C787    1.485   .     S
C752   C1165   1.428   .     S
C753   C772    1.411   .     A
C753   C764    1.380   .     A
C754   C771    1.411   .     A
C754   C765    1.380   .     A
C755   C762    1.380   .     A
C755   C771    1.407   .     A
C756   O822    1.296   .     A
C756   C773    1.444   .     S
C756   O816    1.289   .     A
C757   C772    1.407   .     A
C757   C763    1.380   .     A
C758   C769    1.380   .     A
C758   C774    1.411   .     A
C759   C770    1.380   .     A
C759   C773    1.411   .     A
C760   C773    1.407   .     A
C760   C766    1.380   .     A
C761   C774    1.407   .     A
C761   C768    1.380   .     A
C762   C776    1.411   .     A
C763   C775    1.411   .     A
C764   C775    1.407   .     A
C765   C776    1.407   .     A
C766   C779    1.411   .     A
C767   O827    1.296   .     A
C767   C772    1.444   .     S
C767   O824    1.289   .     A
C768   C777    1.411   .     A
C769   C777    1.407   .     A
C770   C779    1.407   .     A
C771   C778    1.444   .     S
C775   C791    1.444   .     S
C776   C790    1.444   .     S
C777   C789    1.444   .     S
C778   O826    1.296   .     A
C778   O825    1.289   .     A
C779   C788    1.444   .     S
C780   O813    1.221   .     D
C780   C792    1.485   .     S
C781   O814    1.221   .     D
C781   H690    1.073   1_655 S
C782   O815    1.221   .     D
C783   O817    1.221   .     D
C783   H692    1.073   1_655 S
C784   O818    1.221   .     D
C784   H797    1.073   .     S
C785   H798    1.073   .     S
C785   O819    1.221   .     D
C786   H799    1.073   .     S
C786   O820    1.221   .     D
C787   H800    1.073   .     S
C787   O821    1.221   .     D
C788   O808    1.296   .     A
C788   O828    1.289   .     A
C789   O806    1.289   .     A
C789   O807    1.296   .     A
C790   O809    1.289   .     A
C790   O812    1.296   .     A
C791   O810    1.289   .     A
C791   O811    1.296   .     A
C792   N802    1.374   .     S
H793   C676    1.073   1_655 S
H795   C678    1.073   1_655 S
N801   Zn829   2.016   .     S
N802   Zn830   2.016   .     S
N803   Zn831   2.016   .     S
N804   Zn832   2.016   .     S
O805   Zn829   2.010   .     S
O806   Zn832   2.010   .     S
O807   Zn831   2.002   .     S
O808   Zn624   2.002   1_565 S
O809   Zn624   2.010   1_565 S
O810   Zn831   2.010   .     S
O811   Zn832   2.002   .     S
O812   Zn623   2.002   1_565 S
O816   Zn726   2.010   1_655 S
O822   Zn725   2.002   1_655 S
O823   Zn830   2.002   .     S
O824   Zn726   2.010   1_655 S
O825   Zn829   2.010   .     S
O826   Zn830   2.002   .     S
O827   Zn725   2.002   1_655 S
O828   Zn623   2.010   1_565 S
Br833  C857    1.942   .     S
Br834  C867    1.942   .     S
Br835  C868    1.939   .     S
Br836  C869    1.939   .     S
Br837  C870    1.942   .     S
Br838  C872    1.942   .     S
Br839  C873    1.939   .     S
Br840  C874    1.939   .     S
Br841  C858    1.942   .     S
Br842  C859    1.939   .     S
Br843  C861    1.939   .     S
Br844  C862    1.942   .     S
Br845  C863    1.942   .     S
Br846  C864    1.939   .     S
Br847  C865    1.939   .     S
Br848  C866    1.942   .     S
C849   O927    1.296   .     A
C849   C878    1.444   .     S
C849   O909    1.289   .     A
C850   C885    1.485   .     S
C850   N1009   1.374   .     A
C850   C123    1.428   1_556 S
C851   C886    1.485   .     S
C851   C538    1.428   1_455 S
C851   N906    1.374   .     S
C852   C887    1.485   .     S
C852   N1009   1.374   .     A
C852   C168    1.428   1_556 S
C853   N908    1.374   .     A
C853   C888    1.485   .     S
C854   C889    1.485   .     S
C854   C23     1.428   1_556 S
C854   N1115   1.374   .     S
C855   C890    1.485   .     S
C855   N1116   1.374   .     S
C856   N907    1.374   .     A
C856   C891    1.485   .     S
C856   C21     1.428   1_556 S
C857   C876    1.411   .     A
C857   C868    1.380   .     A
C858   C875    1.411   .     A
C858   C869    1.380   .     A
C859   C866    1.380   .     A
C859   C875    1.407   .     A
C860   O926    1.296   .     A
C860   C877    1.444   .     S
C860   O920    1.289   .     A
C861   C876    1.407   .     A
C861   C867    1.380   .     A
C862   C873    1.380   .     A
C862   C878    1.411   .     A
C863   C874    1.380   .     A
C863   C877    1.411   .     A
C864   C877    1.407   .     A
C864   C870    1.380   .     A
C865   C878    1.407   .     A
C865   C872    1.380   .     A
C866   C880    1.411   .     A
C867   C879    1.411   .     A
C868   C879    1.407   .     A
C869   C880    1.407   .     A
C870   C883    1.411   .     A
C871   O931    1.296   .     A
C871   C876    1.444   .     S
C871   O928    1.289   .     A
C872   C881    1.411   .     A
C873   C881    1.407   .     A
C874   C883    1.407   .     A
C875   C882    1.444   .     S
C879   C895    1.444   .     S
C880   C894    1.444   .     S
C881   C893    1.444   .     S
C882   O930    1.296   .     A
C882   O929    1.289   .     A
C883   C892    1.444   .     S
C884   O917    1.221   .     D
C884   C896    1.485   .     S
C884   H1001   1.073   1_455 S
C885   O918    1.221   .     D
C885   H1002   1.073   .     S
C886   O919    1.221   .     D
C886   H1003   1.073   1_455 S
C887   O921    1.221   .     D
C887   H1004   1.073   .     S
C888   O922    1.221   .     D
C888   H901    1.073   .     S
C889   H902    1.073   .     S
C889   O923    1.221   .     D
C890   H903    1.073   .     S
C890   O924    1.221   .     D
C891   H904    1.073   .     S
C891   O925    1.221   .     D
C892   O912    1.296   .     A
C892   O932    1.289   .     A
C893   O910    1.289   .     A
C893   O911    1.296   .     A
C894   O913    1.289   .     A
C894   O916    1.296   .     A
C895   O914    1.289   .     A
C895   O915    1.296   .     A
C896   C540    1.428   1_455 S
C896   N906    1.374   .     S
H897   C988    1.073   .     S
H898   C989    1.073   1_455 S
H899   C990    1.073   .     S
H900   C991    1.073   1_455 S
N905   Zn933   2.016   .     S
N905   C954    1.374   1_455 A
N905   C956    1.374   1_455 A
N906   Zn934   2.016   .     S
N907   Zn935   2.016   .     S
N907   C1062   1.374   1_545 S
N908   Zn936   2.016   .     S
N908   C1063   1.374   1_545 S
O909   Zn933   2.010   .     S
O910   Zn936   2.010   .     S
O911   Zn935   2.002   .     S
O912   Zn1144  2.002   .     S
O913   Zn1144  2.010   .     S
O914   Zn935   2.010   .     S
O915   Zn936   2.002   .     S
O916   Zn1143  2.002   .     S
O920   Zn1038  2.010   .     S
O926   Zn1037  2.002   .     S
O927   Zn934   2.002   .     S
O928   Zn1038  2.010   .     S
O929   Zn933   2.010   .     S
O930   Zn934   2.002   .     S
O931   Zn1037  2.002   .     S
O932   Zn1143  2.010   .     S
Zn933  O1030   2.002   1_455 S
Zn933  O1035   2.002   1_455 S
Zn934  O1032   2.010   1_455 S
Zn934  O1024   2.010   1_455 S
Zn935  O1124   2.002   1_545 S
Zn935  O1140   2.010   1_545 S
Zn936  O1121   2.010   1_545 S
Zn936  O1120   2.002   1_545 S
Br937  C961    1.942   .     S
Br938  C971    1.942   .     S
Br939  C972    1.939   .     S
Br940  C973    1.939   .     S
Br941  C974    1.942   .     S
Br942  C976    1.942   .     S
Br943  C977    1.939   .     S
Br944  C978    1.939   .     S
Br945  C962    1.942   .     S
Br946  C963    1.939   .     S
Br947  C965    1.939   .     S
Br948  C966    1.942   .     S
Br949  C967    1.942   .     S
Br950  C968    1.939   .     S
Br951  C969    1.939   .     S
Br952  C970    1.942   .     S
C953   O1031   1.296   .     A
C953   C982    1.444   .     S
C953   O1013   1.289   .     A
C954   C989    1.485   .     S
C954   N905    1.374   1_655 A
C954   C19     1.428   1_656 S
C955   C990    1.485   .     S
C955   N1010   1.374   .     S
C956   C991    1.485   .     S
C956   N905    1.374   1_655 A
C956   C64     1.428   1_656 S
C957   N1012   1.374   .     A
C957   C992    1.485   .     S
C958   C993    1.485   .     S
C958   C127    1.428   1_556 S
C958   N1219   1.374   .     S
C959   C994    1.485   .     S
C959   N1220   1.374   .     S
C960   N1011   1.374   .     A
C960   C995    1.485   .     S
C960   C125    1.428   1_556 S
C961   C980    1.411   .     A
C961   C972    1.380   .     A
C962   C979    1.411   .     A
C962   C973    1.380   .     A
C963   C970    1.380   .     A
C963   C979    1.407   .     A
C964   O1030   1.296   .     A
C964   C981    1.444   .     S
C964   O1024   1.289   .     A
C965   C980    1.407   .     A
C965   C971    1.380   .     A
C966   C977    1.380   .     A
C966   C982    1.411   .     A
C967   C978    1.380   .     A
C967   C981    1.411   .     A
C968   C981    1.407   .     A
C968   C974    1.380   .     A
C969   C982    1.407   .     A
C969   C976    1.380   .     A
C970   C984    1.411   .     A
C971   C983    1.411   .     A
C972   C983    1.407   .     A
C973   C984    1.407   .     A
C974   C987    1.411   .     A
C975   O1035   1.296   .     A
C975   C980    1.444   .     S
C975   O1032   1.289   .     A
C976   C985    1.411   .     A
C977   C985    1.407   .     A
C978   C987    1.407   .     A
C979   C986    1.444   .     S
C983   C999    1.444   .     S
C984   C998    1.444   .     S
C985   C997    1.444   .     S
C986   O1034   1.296   .     A
C986   O1033   1.289   .     A
C987   C996    1.444   .     S
C988   O1021   1.221   .     D
C988   C1000   1.485   .     S
C989   O1022   1.221   .     D
C989   H898    1.073   1_655 S
C990   O1023   1.221   .     D
C991   O1025   1.221   .     D
C991   H900    1.073   1_655 S
C992   O1026   1.221   .     D
C992   H1005   1.073   .     S
C993   H1006   1.073   .     S
C993   O1027   1.221   .     D
C994   H1007   1.073   .     S
C994   O1028   1.221   .     D
C995   H1008   1.073   .     S
C995   O1029   1.221   .     D
C996   O1016   1.296   .     A
C996   O1036   1.289   .     A
C997   O1014   1.289   .     A
C997   O1015   1.296   .     A
C998   O1017   1.289   .     A
C998   O1020   1.296   .     A
C999   O1018   1.289   .     A
C999   O1019   1.296   .     A
C1000  N1010   1.374   .     S
H1001  C884    1.073   1_655 S
H1003  C886    1.073   1_655 S
N1009  Zn1037  2.016   .     S
N1010  Zn1038  2.016   .     S
N1011  Zn1039  2.016   .     S
N1011  C1166   1.374   1_545 S
N1012  Zn1040  2.016   .     S
N1012  C1167   1.374   1_545 S
O1013  Zn1037  2.010   .     S
O1014  Zn1040  2.010   .     S
O1015  Zn1039  2.002   .     S
O1016  Zn1248  2.002   .     S
O1017  Zn1248  2.010   .     S
O1018  Zn1039  2.010   .     S
O1019  Zn1040  2.002   .     S
O1020  Zn1247  2.002   .     S
O1024  Zn934   2.010   1_655 S
O1030  Zn933   2.002   1_655 S
O1031  Zn1038  2.002   .     S
O1032  Zn934   2.010   1_655 S
O1033  Zn1037  2.010   .     S
O1034  Zn1038  2.002   .     S
O1035  Zn933   2.002   1_655 S
O1036  Zn1247  2.010   .     S
Zn1039 O1228   2.002   1_545 S
Zn1039 O1244   2.010   1_545 S
Zn1040 O1225   2.010   1_545 S
Zn1040 O1224   2.002   1_545 S
Br1041 C1065   1.942   .     S
Br1042 C1075   1.942   .     S
Br1043 C1076   1.939   .     S
Br1044 C1077   1.939   .     S
Br1045 C1078   1.942   .     S
Br1046 C1080   1.942   .     S
Br1047 C1081   1.939   .     S
Br1048 C1082   1.939   .     S
Br1049 C1066   1.942   .     S
Br1050 C1067   1.939   .     S
Br1051 C1069   1.939   .     S
Br1052 C1070   1.942   .     S
Br1053 C1071   1.942   .     S
Br1054 C1072   1.939   .     S
Br1055 C1073   1.939   .     S
Br1056 C1074   1.942   .     S
C1057  O1135   1.296   .     A
C1057  C1086   1.444   .     S
C1057  O1117   1.289   .     A
C1058  C1093   1.485   .     S
C1058  N1217   1.374   .     A
C1058  C331    1.428   1_556 S
C1059  C1094   1.485   .     S
C1059  C746    1.428   1_455 S
C1059  N1114   1.374   .     S
C1060  C1095   1.485   .     S
C1060  N1217   1.374   .     A
C1060  C376    1.428   1_556 S
C1061  N1116   1.374   .     A
C1061  C1096   1.485   .     S
C1062  C1097   1.485   .     S
C1062  C231    1.428   1_556 S
C1062  N907    1.374   1_565 S
C1063  C1098   1.485   .     S
C1063  N908    1.374   1_565 S
C1064  N1115   1.374   .     A
C1064  C1099   1.485   .     S
C1064  C229    1.428   1_556 S
C1065  C1084   1.411   .     A
C1065  C1076   1.380   .     A
C1066  C1083   1.411   .     A
C1066  C1077   1.380   .     A
C1067  C1074   1.380   .     A
C1067  C1083   1.407   .     A
C1068  O1134   1.296   .     A
C1068  C1085   1.444   .     S
C1068  O1128   1.289   .     A
C1069  C1084   1.407   .     A
C1069  C1075   1.380   .     A
C1070  C1081   1.380   .     A
C1070  C1086   1.411   .     A
C1071  C1082   1.380   .     A
C1071  C1085   1.411   .     A
C1072  C1085   1.407   .     A
C1072  C1078   1.380   .     A
C1073  C1086   1.407   .     A
C1073  C1080   1.380   .     A
C1074  C1088   1.411   .     A
C1075  C1087   1.411   .     A
C1076  C1087   1.407   .     A
C1077  C1088   1.407   .     A
C1078  C1091   1.411   .     A
C1079  O1139   1.296   .     A
C1079  C1084   1.444   .     S
C1079  O1136   1.289   .     A
C1080  C1089   1.411   .     A
C1081  C1089   1.407   .     A
C1082  C1091   1.407   .     A
C1083  C1090   1.444   .     S
C1087  C1103   1.444   .     S
C1088  C1102   1.444   .     S
C1089  C1101   1.444   .     S
C1090  O1138   1.296   .     A
C1090  O1137   1.289   .     A
C1091  C1100   1.444   .     S
C1092  O1125   1.221   .     D
C1092  C1104   1.485   .     S
C1092  H1209   1.073   1_455 S
C1093  O1126   1.221   .     D
C1093  H1210   1.073   .     S
C1094  O1127   1.221   .     D
C1094  H1211   1.073   1_455 S
C1095  O1129   1.221   .     D
C1095  H1212   1.073   .     S
C1096  O1130   1.221   .     D
C1096  H1109   1.073   .     S
C1097  H1110   1.073   .     S
C1097  O1131   1.221   .     D
C1098  H1111   1.073   .     S
C1098  O1132   1.221   .     D
C1099  H1112   1.073   .     S
C1099  O1133   1.221   .     D
C1100  O1120   1.296   .     A
C1100  O1140   1.289   .     A
C1101  O1118   1.289   .     A
C1101  O1119   1.296   .     A
C1102  O1121   1.289   .     A
C1102  O1124   1.296   .     A
C1103  O1122   1.289   .     A
C1103  O1123   1.296   .     A
C1104  C748    1.428   1_455 S
C1104  N1114   1.374   .     S
H1105  C1196   1.073   .     S
H1106  C1197   1.073   1_455 S
H1107  C1198   1.073   .     S
H1108  C1199   1.073   1_455 S
N1113  Zn1141  2.016   .     S
N1113  C1162   1.374   1_455 A
N1113  C1164   1.374   1_455 A
N1114  Zn1142  2.016   .     S
N1115  Zn1143  2.016   .     S
N1116  Zn1144  2.016   .     S
O1117  Zn1141  2.010   .     S
O1118  Zn1144  2.010   .     S
O1119  Zn1143  2.002   .     S
O1120  Zn936   2.002   1_565 S
O1121  Zn936   2.010   1_565 S
O1122  Zn1143  2.010   .     S
O1123  Zn1144  2.002   .     S
O1124  Zn935   2.002   1_565 S
O1128  Zn1246  2.010   .     S
O1134  Zn1245  2.002   .     S
O1135  Zn1142  2.002   .     S
O1136  Zn1246  2.010   .     S
O1137  Zn1141  2.010   .     S
O1138  Zn1142  2.002   .     S
O1139  Zn1245  2.002   .     S
O1140  Zn935   2.010   1_565 S
Zn1141 O1238   2.002   1_455 S
Zn1141 O1243   2.002   1_455 S
Zn1142 O1240   2.010   1_455 S
Zn1142 O1232   2.010   1_455 S
Br1145 C1169   1.942   .     S
Br1146 C1179   1.942   .     S
Br1147 C1180   1.939   .     S
Br1148 C1181   1.939   .     S
Br1149 C1182   1.942   .     S
Br1150 C1184   1.942   .     S
Br1151 C1185   1.939   .     S
Br1152 C1186   1.939   .     S
Br1153 C1170   1.942   .     S
Br1154 C1171   1.939   .     S
Br1155 C1173   1.939   .     S
Br1156 C1174   1.942   .     S
Br1157 C1175   1.942   .     S
Br1158 C1176   1.939   .     S
Br1159 C1177   1.939   .     S
Br1160 C1178   1.942   .     S
C1161  O1239   1.296   .     A
C1161  C1190   1.444   .     S
C1161  O1221   1.289   .     A
C1162  C1197   1.485   .     S
C1162  N1113   1.374   1_655 A
C1162  C227    1.428   1_656 S
C1163  C1198   1.485   .     S
C1163  N1218   1.374   .     S
C1164  C1199   1.485   .     S
C1164  N1113   1.374   1_655 A
C1164  C272    1.428   1_656 S
C1165  N1220   1.374   .     A
C1165  C1200   1.485   .     S
C1166  C1201   1.485   .     S
C1166  C335    1.428   1_556 S
C1166  N1011   1.374   1_565 S
C1167  C1202   1.485   .     S
C1167  N1012   1.374   1_565 S
C1168  N1219   1.374   .     A
C1168  C1203   1.485   .     S
C1168  C333    1.428   1_556 S
C1169  C1188   1.411   .     A
C1169  C1180   1.380   .     A
C1170  C1187   1.411   .     A
C1170  C1181   1.380   .     A
C1171  C1178   1.380   .     A
C1171  C1187   1.407   .     A
C1172  O1238   1.296   .     A
C1172  C1189   1.444   .     S
C1172  O1232   1.289   .     A
C1173  C1188   1.407   .     A
C1173  C1179   1.380   .     A
C1174  C1185   1.380   .     A
C1174  C1190   1.411   .     A
C1175  C1186   1.380   .     A
C1175  C1189   1.411   .     A
C1176  C1189   1.407   .     A
C1176  C1182   1.380   .     A
C1177  C1190   1.407   .     A
C1177  C1184   1.380   .     A
C1178  C1192   1.411   .     A
C1179  C1191   1.411   .     A
C1180  C1191   1.407   .     A
C1181  C1192   1.407   .     A
C1182  C1195   1.411   .     A
C1183  O1243   1.296   .     A
C1183  C1188   1.444   .     S
C1183  O1240   1.289   .     A
C1184  C1193   1.411   .     A
C1185  C1193   1.407   .     A
C1186  C1195   1.407   .     A
C1187  C1194   1.444   .     S
C1191  C1207   1.444   .     S
C1192  C1206   1.444   .     S
C1193  C1205   1.444   .     S
C1194  O1242   1.296   .     A
C1194  O1241   1.289   .     A
C1195  C1204   1.444   .     S
C1196  O1229   1.221   .     D
C1196  C1208   1.485   .     S
C1197  O1230   1.221   .     D
C1197  H1106   1.073   1_655 S
C1198  O1231   1.221   .     D
C1199  O1233   1.221   .     D
C1199  H1108   1.073   1_655 S
C1200  O1234   1.221   .     D
C1200  H1213   1.073   .     S
C1201  H1214   1.073   .     S
C1201  O1235   1.221   .     D
C1202  H1215   1.073   .     S
C1202  O1236   1.221   .     D
C1203  H1216   1.073   .     S
C1203  O1237   1.221   .     D
C1204  O1224   1.296   .     A
C1204  O1244   1.289   .     A
C1205  O1222   1.289   .     A
C1205  O1223   1.296   .     A
C1206  O1225   1.289   .     A
C1206  O1228   1.296   .     A
C1207  O1226   1.289   .     A
C1207  O1227   1.296   .     A
C1208  N1218   1.374   .     S
H1209  C1092   1.073   1_655 S
H1211  C1094   1.073   1_655 S
N1217  Zn1245  2.016   .     S
N1218  Zn1246  2.016   .     S
N1219  Zn1247  2.016   .     S
N1220  Zn1248  2.016   .     S
O1221  Zn1245  2.010   .     S
O1222  Zn1248  2.010   .     S
O1223  Zn1247  2.002   .     S
O1224  Zn1040  2.002   1_565 S
O1225  Zn1040  2.010   1_565 S
O1226  Zn1247  2.010   .     S
O1227  Zn1248  2.002   .     S
O1228  Zn1039  2.002   1_565 S
O1232  Zn1142  2.010   1_655 S
O1238  Zn1141  2.002   1_655 S
O1239  Zn1246  2.002   .     S
O1240  Zn1142  2.010   1_655 S
O1241  Zn1245  2.010   .     S
O1242  Zn1246  2.002   .     S
O1243  Zn1141  2.002   1_655 S
O1244  Zn1039  2.010   1_565 S
