data_str_m2_o10_o17_pcu_sym.179
_audit_creation_date              2020-01-03
_audit_creation_method            'Materials Studio'
_symmetry_space_group_name_H-M    'P1'
_symmetry_Int_Tables_number       1
_symmetry_cell_setting            triclinic
loop_
_symmetry_equiv_pos_as_xyz
  x,y,z
_cell_length_a                    29.9729
_cell_length_b                    27.0234
_cell_length_c                    22.5198
_cell_angle_alpha                 103.2031
_cell_angle_beta                  95.5220
_cell_angle_gamma                 92.2226
loop_
_atom_site_label
_atom_site_type_symbol
_atom_site_fract_x
_atom_site_fract_y
_atom_site_fract_z
_atom_site_U_iso_or_equiv
_atom_site_adp_type
_atom_site_occupancy
C1     C     0.24857   0.06680   0.15140   0.00000  Uiso   1.00
C2     C     0.25143   0.26654   0.18193   0.00000  Uiso   1.00
C3     C     0.02365   0.08099   0.18012   0.00000  Uiso   1.00
C4     C     0.47635   0.25234   0.15321   0.00000  Uiso   1.00
C5     C     0.24364   0.01151   0.14344   0.00000  Uiso   1.00
C6     C     0.25636   0.32182   0.18990   0.00000  Uiso   1.00
C7     C     0.16479   0.17007   0.16720   0.00000  Uiso   1.00
C8     C     0.33521   0.16327   0.16613   0.00000  Uiso   1.00
C9     C     0.40783   0.20998   0.17299   0.00000  Uiso   1.00
C10    C     0.09217   0.12336   0.16034   0.00000  Uiso   1.00
C11    C     0.38373   0.16369   0.16696   0.00000  Uiso   1.00
C12    C     0.11627   0.16965   0.16638   0.00000  Uiso   1.00
C13    C     0.40612   0.11886   0.16457   0.00000  Uiso   1.00
C14    C     0.09388   0.21447   0.16876   0.00000  Uiso   1.00
C15    C     0.45330   0.12169   0.17352   0.00000  Uiso   1.00
C16    C     0.04670   0.21165   0.15982   0.00000  Uiso   1.00
C17    C     0.47671   0.16631   0.16800   0.00000  Uiso   1.00
C18    C     0.02329   0.16702   0.16533   0.00000  Uiso   1.00
C19    C     0.45369   0.21050   0.16623   0.00000  Uiso   1.00
C20    C     0.04631   0.12283   0.16711   0.00000  Uiso   1.00
C21    C     0.47816   0.08221   0.18817   0.00000  Uiso   1.00
C22    C     0.02184   0.25112   0.14517   0.00000  Uiso   1.00
Cu23   Cu    0.25501   0.17246   0.22813   0.00000  Uiso   1.00
Cu24   Cu    0.24500   0.16087   0.10521   0.00000  Uiso   1.00
H25    H     0.04222   0.05037   0.19182   0.00000  Uiso   1.00
H26    H     0.45778   0.28297   0.14152   0.00000  Uiso   1.00
N27    N     0.23745   0.15214   0.01284   0.00000  Uiso   1.00
N28    N     0.26256   0.18119   0.32049   0.00000  Uiso   1.00
O29    O     0.25326   0.09538   0.20659   0.00000  Uiso   1.00
O30    O     0.24675   0.23796   0.12674   0.00000  Uiso   1.00
O31    O     0.24480   0.08559   0.10279   0.00000  Uiso   1.00
O32    O     0.25520   0.24774   0.23055   0.00000  Uiso   1.00
O33    O     0.18936   0.17155   0.21857   0.00000  Uiso   1.00
O34    O     0.31065   0.16179   0.11476   0.00000  Uiso   1.00
O35    O     0.18090   0.16176   0.11477   0.00000  Uiso   1.00
O36    O     0.31910   0.17157   0.21857   0.00000  Uiso   1.00
I37    I     0.37459   0.27735   0.19965   0.00000  Uiso   1.00
I38    I     0.12541   0.05599   0.13368   0.00000  Uiso   1.00
I39    I     0.36952   0.04853   0.12514   0.00000  Uiso   1.00
I40    I     0.13048   0.28480   0.20819   0.00000  Uiso   1.00
I41    I     0.45915   0.04609   0.25642   0.00000  Uiso   1.00
I42    I     0.04085   0.28724   0.07691   0.00000  Uiso   1.00
I43    I     0.20972   0.30643   0.05499   0.00000  Uiso   1.00
I44    I     0.29028   0.02690   0.27834   0.00000  Uiso   1.00
I45    I     0.18371   0.10241   0.30137   0.00000  Uiso   1.00
I46    I     0.31629   0.23093   0.03196   0.00000  Uiso   1.00
C47    C     0.74857   0.06680   0.15140   0.00000  Uiso   1.00
C48    C     0.75143   0.26654   0.18193   0.00000  Uiso   1.00
C49    C     0.52365   0.08099   0.18012   0.00000  Uiso   1.00
C50    C     0.97635   0.25234   0.15321   0.00000  Uiso   1.00
C51    C     0.74364   0.01151   0.14344   0.00000  Uiso   1.00
C52    C     0.75636   0.32182   0.18990   0.00000  Uiso   1.00
C53    C     0.66479   0.17007   0.16720   0.00000  Uiso   1.00
C54    C     0.83521   0.16327   0.16613   0.00000  Uiso   1.00
C55    C     0.90783   0.20998   0.17299   0.00000  Uiso   1.00
C56    C     0.59217   0.12336   0.16034   0.00000  Uiso   1.00
C57    C     0.88373   0.16369   0.16696   0.00000  Uiso   1.00
C58    C     0.61627   0.16965   0.16638   0.00000  Uiso   1.00
C59    C     0.90612   0.11886   0.16457   0.00000  Uiso   1.00
C60    C     0.59388   0.21447   0.16876   0.00000  Uiso   1.00
C61    C     0.95330   0.12169   0.17352   0.00000  Uiso   1.00
C62    C     0.54670   0.21165   0.15982   0.00000  Uiso   1.00
C63    C     0.97671   0.16631   0.16800   0.00000  Uiso   1.00
C64    C     0.52329   0.16702   0.16533   0.00000  Uiso   1.00
C65    C     0.95369   0.21050   0.16623   0.00000  Uiso   1.00
C66    C     0.54631   0.12283   0.16711   0.00000  Uiso   1.00
C67    C     0.97816   0.08221   0.18817   0.00000  Uiso   1.00
C68    C     0.52184   0.25112   0.14517   0.00000  Uiso   1.00
Cu69   Cu    0.75501   0.17246   0.22813   0.00000  Uiso   1.00
Cu70   Cu    0.74500   0.16087   0.10521   0.00000  Uiso   1.00
H71    H     0.54222   0.05037   0.19182   0.00000  Uiso   1.00
H72    H     0.95778   0.28297   0.14152   0.00000  Uiso   1.00
N73    N     0.73745   0.15214   0.01284   0.00000  Uiso   1.00
N74    N     0.76256   0.18119   0.32049   0.00000  Uiso   1.00
O75    O     0.75326   0.09538   0.20659   0.00000  Uiso   1.00
O76    O     0.74675   0.23796   0.12674   0.00000  Uiso   1.00
O77    O     0.74480   0.08559   0.10279   0.00000  Uiso   1.00
O78    O     0.75520   0.24774   0.23055   0.00000  Uiso   1.00
O79    O     0.68936   0.17155   0.21857   0.00000  Uiso   1.00
O80    O     0.81065   0.16179   0.11476   0.00000  Uiso   1.00
O81    O     0.68090   0.16176   0.11477   0.00000  Uiso   1.00
O82    O     0.81910   0.17157   0.21857   0.00000  Uiso   1.00
I83    I     0.87459   0.27735   0.19965   0.00000  Uiso   1.00
I84    I     0.62541   0.05599   0.13368   0.00000  Uiso   1.00
I85    I     0.86952   0.04853   0.12514   0.00000  Uiso   1.00
I86    I     0.63048   0.28480   0.20819   0.00000  Uiso   1.00
I87    I     0.95915   0.04609   0.25642   0.00000  Uiso   1.00
I88    I     0.54085   0.28724   0.07691   0.00000  Uiso   1.00
I89    I     0.70972   0.30643   0.05499   0.00000  Uiso   1.00
I90    I     0.79028   0.02690   0.27834   0.00000  Uiso   1.00
I91    I     0.68371   0.10241   0.30137   0.00000  Uiso   1.00
I92    I     0.81629   0.23093   0.03196   0.00000  Uiso   1.00
C93    C     0.24857   0.40013   0.15140   0.00000  Uiso   1.00
C94    C     0.25143   0.59987   0.18193   0.00000  Uiso   1.00
C95    C     0.02365   0.41432   0.18012   0.00000  Uiso   1.00
C96    C     0.47635   0.58568   0.15321   0.00000  Uiso   1.00
C97    C     0.24364   0.34485   0.14344   0.00000  Uiso   1.00
C98    C     0.25636   0.65515   0.18990   0.00000  Uiso   1.00
C99    C     0.16479   0.50340   0.16720   0.00000  Uiso   1.00
C100   C     0.33521   0.49660   0.16613   0.00000  Uiso   1.00
C101   C     0.40783   0.54331   0.17299   0.00000  Uiso   1.00
C102   C     0.09217   0.45669   0.16034   0.00000  Uiso   1.00
C103   C     0.38373   0.49702   0.16696   0.00000  Uiso   1.00
C104   C     0.11627   0.50298   0.16638   0.00000  Uiso   1.00
C105   C     0.40612   0.45220   0.16457   0.00000  Uiso   1.00
C106   C     0.09388   0.54780   0.16876   0.00000  Uiso   1.00
C107   C     0.45330   0.45502   0.17352   0.00000  Uiso   1.00
C108   C     0.04670   0.54498   0.15982   0.00000  Uiso   1.00
C109   C     0.47671   0.49965   0.16800   0.00000  Uiso   1.00
C110   C     0.02329   0.50036   0.16533   0.00000  Uiso   1.00
C111   C     0.45369   0.54383   0.16623   0.00000  Uiso   1.00
C112   C     0.04631   0.45617   0.16711   0.00000  Uiso   1.00
C113   C     0.47816   0.41554   0.18817   0.00000  Uiso   1.00
C114   C     0.02184   0.58446   0.14517   0.00000  Uiso   1.00
Cu115  Cu    0.25501   0.50579   0.22813   0.00000  Uiso   1.00
Cu116  Cu    0.24500   0.49421   0.10521   0.00000  Uiso   1.00
H117   H     0.04222   0.38370   0.19182   0.00000  Uiso   1.00
H118   H     0.45778   0.61630   0.14152   0.00000  Uiso   1.00
N119   N     0.23745   0.48547   0.01284   0.00000  Uiso   1.00
N120   N     0.26256   0.51453   0.32049   0.00000  Uiso   1.00
O121   O     0.25326   0.42871   0.20659   0.00000  Uiso   1.00
O122   O     0.24675   0.57129   0.12674   0.00000  Uiso   1.00
O123   O     0.24480   0.41892   0.10279   0.00000  Uiso   1.00
O124   O     0.25520   0.58108   0.23055   0.00000  Uiso   1.00
O125   O     0.18936   0.50488   0.21857   0.00000  Uiso   1.00
O126   O     0.31065   0.49512   0.11476   0.00000  Uiso   1.00
O127   O     0.18090   0.49510   0.11477   0.00000  Uiso   1.00
O128   O     0.31910   0.50490   0.21857   0.00000  Uiso   1.00
I129   I     0.37459   0.61068   0.19965   0.00000  Uiso   1.00
I130   I     0.12541   0.38932   0.13368   0.00000  Uiso   1.00
I131   I     0.36952   0.38186   0.12514   0.00000  Uiso   1.00
I132   I     0.13048   0.61814   0.20819   0.00000  Uiso   1.00
I133   I     0.45915   0.37943   0.25642   0.00000  Uiso   1.00
I134   I     0.04085   0.62057   0.07691   0.00000  Uiso   1.00
I135   I     0.20972   0.63977   0.05499   0.00000  Uiso   1.00
I136   I     0.29028   0.36023   0.27834   0.00000  Uiso   1.00
I137   I     0.18371   0.43574   0.30137   0.00000  Uiso   1.00
I138   I     0.31629   0.56426   0.03196   0.00000  Uiso   1.00
C139   C     0.74857   0.40013   0.15140   0.00000  Uiso   1.00
C140   C     0.75143   0.59987   0.18193   0.00000  Uiso   1.00
C141   C     0.52365   0.41432   0.18012   0.00000  Uiso   1.00
C142   C     0.97635   0.58568   0.15321   0.00000  Uiso   1.00
C143   C     0.74364   0.34485   0.14344   0.00000  Uiso   1.00
C144   C     0.75636   0.65515   0.18990   0.00000  Uiso   1.00
C145   C     0.66479   0.50340   0.16720   0.00000  Uiso   1.00
C146   C     0.83521   0.49660   0.16613   0.00000  Uiso   1.00
C147   C     0.90783   0.54331   0.17299   0.00000  Uiso   1.00
C148   C     0.59217   0.45669   0.16034   0.00000  Uiso   1.00
C149   C     0.88373   0.49702   0.16696   0.00000  Uiso   1.00
C150   C     0.61627   0.50298   0.16638   0.00000  Uiso   1.00
C151   C     0.90612   0.45220   0.16457   0.00000  Uiso   1.00
C152   C     0.59388   0.54780   0.16876   0.00000  Uiso   1.00
C153   C     0.95330   0.45502   0.17352   0.00000  Uiso   1.00
C154   C     0.54670   0.54498   0.15982   0.00000  Uiso   1.00
C155   C     0.97671   0.49965   0.16800   0.00000  Uiso   1.00
C156   C     0.52329   0.50036   0.16533   0.00000  Uiso   1.00
C157   C     0.95369   0.54383   0.16623   0.00000  Uiso   1.00
C158   C     0.54631   0.45617   0.16711   0.00000  Uiso   1.00
C159   C     0.97816   0.41554   0.18817   0.00000  Uiso   1.00
C160   C     0.52184   0.58446   0.14517   0.00000  Uiso   1.00
Cu161  Cu    0.75501   0.50579   0.22813   0.00000  Uiso   1.00
Cu162  Cu    0.74500   0.49421   0.10521   0.00000  Uiso   1.00
H163   H     0.54222   0.38370   0.19182   0.00000  Uiso   1.00
H164   H     0.95778   0.61630   0.14152   0.00000  Uiso   1.00
N165   N     0.73745   0.48547   0.01284   0.00000  Uiso   1.00
N166   N     0.76256   0.51453   0.32049   0.00000  Uiso   1.00
O167   O     0.75326   0.42871   0.20659   0.00000  Uiso   1.00
O168   O     0.74675   0.57129   0.12674   0.00000  Uiso   1.00
O169   O     0.74480   0.41892   0.10279   0.00000  Uiso   1.00
O170   O     0.75520   0.58108   0.23055   0.00000  Uiso   1.00
O171   O     0.68936   0.50488   0.21857   0.00000  Uiso   1.00
O172   O     0.81065   0.49512   0.11476   0.00000  Uiso   1.00
O173   O     0.68090   0.49510   0.11477   0.00000  Uiso   1.00
O174   O     0.81910   0.50490   0.21857   0.00000  Uiso   1.00
I175   I     0.87459   0.61068   0.19965   0.00000  Uiso   1.00
I176   I     0.62541   0.38932   0.13368   0.00000  Uiso   1.00
I177   I     0.86952   0.38186   0.12514   0.00000  Uiso   1.00
I178   I     0.63048   0.61814   0.20819   0.00000  Uiso   1.00
I179   I     0.95915   0.37943   0.25642   0.00000  Uiso   1.00
I180   I     0.54085   0.62057   0.07691   0.00000  Uiso   1.00
I181   I     0.70972   0.63977   0.05499   0.00000  Uiso   1.00
I182   I     0.79028   0.36023   0.27834   0.00000  Uiso   1.00
I183   I     0.68371   0.43574   0.30137   0.00000  Uiso   1.00
I184   I     0.81629   0.56426   0.03196   0.00000  Uiso   1.00
C185   C     0.24857   0.73346   0.15140   0.00000  Uiso   1.00
C186   C     0.25143   0.93320   0.18193   0.00000  Uiso   1.00
C187   C     0.02365   0.74766   0.18012   0.00000  Uiso   1.00
C188   C     0.47635   0.91901   0.15321   0.00000  Uiso   1.00
C189   C     0.24364   0.67818   0.14344   0.00000  Uiso   1.00
C190   C     0.25636   0.98849   0.18990   0.00000  Uiso   1.00
C191   C     0.16479   0.83673   0.16720   0.00000  Uiso   1.00
C192   C     0.33521   0.82993   0.16613   0.00000  Uiso   1.00
C193   C     0.40783   0.87665   0.17299   0.00000  Uiso   1.00
C194   C     0.09217   0.79002   0.16034   0.00000  Uiso   1.00
C195   C     0.38373   0.83035   0.16696   0.00000  Uiso   1.00
C196   C     0.11627   0.83631   0.16638   0.00000  Uiso   1.00
C197   C     0.40612   0.78553   0.16457   0.00000  Uiso   1.00
C198   C     0.09388   0.88114   0.16876   0.00000  Uiso   1.00
C199   C     0.45330   0.78836   0.17352   0.00000  Uiso   1.00
C200   C     0.04670   0.87831   0.15982   0.00000  Uiso   1.00
C201   C     0.47671   0.83298   0.16800   0.00000  Uiso   1.00
C202   C     0.02329   0.83369   0.16533   0.00000  Uiso   1.00
C203   C     0.45369   0.87717   0.16623   0.00000  Uiso   1.00
C204   C     0.04631   0.78950   0.16711   0.00000  Uiso   1.00
C205   C     0.47816   0.74888   0.18817   0.00000  Uiso   1.00
C206   C     0.02184   0.91779   0.14517   0.00000  Uiso   1.00
Cu207  Cu    0.25501   0.83913   0.22813   0.00000  Uiso   1.00
Cu208  Cu    0.24500   0.82754   0.10521   0.00000  Uiso   1.00
H209   H     0.04222   0.71703   0.19182   0.00000  Uiso   1.00
H210   H     0.45778   0.94963   0.14152   0.00000  Uiso   1.00
N211   N     0.23745   0.81881   0.01284   0.00000  Uiso   1.00
N212   N     0.26256   0.84786   0.32049   0.00000  Uiso   1.00
O213   O     0.25326   0.76204   0.20659   0.00000  Uiso   1.00
O214   O     0.24675   0.90462   0.12674   0.00000  Uiso   1.00
O215   O     0.24480   0.75226   0.10279   0.00000  Uiso   1.00
O216   O     0.25520   0.91441   0.23055   0.00000  Uiso   1.00
O217   O     0.18936   0.83821   0.21857   0.00000  Uiso   1.00
O218   O     0.31065   0.82845   0.11476   0.00000  Uiso   1.00
O219   O     0.18090   0.82843   0.11477   0.00000  Uiso   1.00
O220   O     0.31910   0.83824   0.21857   0.00000  Uiso   1.00
I221   I     0.37459   0.94401   0.19965   0.00000  Uiso   1.00
I222   I     0.12541   0.72265   0.13368   0.00000  Uiso   1.00
I223   I     0.36952   0.71520   0.12514   0.00000  Uiso   1.00
I224   I     0.13048   0.95147   0.20819   0.00000  Uiso   1.00
I225   I     0.45915   0.71276   0.25642   0.00000  Uiso   1.00
I226   I     0.04085   0.95391   0.07691   0.00000  Uiso   1.00
I227   I     0.20972   0.97310   0.05499   0.00000  Uiso   1.00
I228   I     0.29028   0.69357   0.27834   0.00000  Uiso   1.00
I229   I     0.18371   0.76907   0.30137   0.00000  Uiso   1.00
I230   I     0.31629   0.89759   0.03196   0.00000  Uiso   1.00
C231   C     0.74857   0.73346   0.15140   0.00000  Uiso   1.00
C232   C     0.75143   0.93320   0.18193   0.00000  Uiso   1.00
C233   C     0.52365   0.74766   0.18012   0.00000  Uiso   1.00
C234   C     0.97635   0.91901   0.15321   0.00000  Uiso   1.00
C235   C     0.74364   0.67818   0.14344   0.00000  Uiso   1.00
C236   C     0.75636   0.98849   0.18990   0.00000  Uiso   1.00
C237   C     0.66479   0.83673   0.16720   0.00000  Uiso   1.00
C238   C     0.83521   0.82993   0.16613   0.00000  Uiso   1.00
C239   C     0.90783   0.87665   0.17299   0.00000  Uiso   1.00
C240   C     0.59217   0.79002   0.16034   0.00000  Uiso   1.00
C241   C     0.88373   0.83035   0.16696   0.00000  Uiso   1.00
C242   C     0.61627   0.83631   0.16638   0.00000  Uiso   1.00
C243   C     0.90612   0.78553   0.16457   0.00000  Uiso   1.00
C244   C     0.59388   0.88114   0.16876   0.00000  Uiso   1.00
C245   C     0.95330   0.78836   0.17352   0.00000  Uiso   1.00
C246   C     0.54670   0.87831   0.15982   0.00000  Uiso   1.00
C247   C     0.97671   0.83298   0.16800   0.00000  Uiso   1.00
C248   C     0.52329   0.83369   0.16533   0.00000  Uiso   1.00
C249   C     0.95369   0.87717   0.16623   0.00000  Uiso   1.00
C250   C     0.54631   0.78950   0.16711   0.00000  Uiso   1.00
C251   C     0.97816   0.74888   0.18817   0.00000  Uiso   1.00
C252   C     0.52184   0.91779   0.14517   0.00000  Uiso   1.00
Cu253  Cu    0.75501   0.83913   0.22813   0.00000  Uiso   1.00
Cu254  Cu    0.74500   0.82754   0.10521   0.00000  Uiso   1.00
H255   H     0.54222   0.71703   0.19182   0.00000  Uiso   1.00
H256   H     0.95778   0.94963   0.14152   0.00000  Uiso   1.00
N257   N     0.73745   0.81881   0.01284   0.00000  Uiso   1.00
N258   N     0.76256   0.84786   0.32049   0.00000  Uiso   1.00
O259   O     0.75326   0.76204   0.20659   0.00000  Uiso   1.00
O260   O     0.74675   0.90462   0.12674   0.00000  Uiso   1.00
O261   O     0.74480   0.75226   0.10279   0.00000  Uiso   1.00
O262   O     0.75520   0.91441   0.23055   0.00000  Uiso   1.00
O263   O     0.68936   0.83821   0.21857   0.00000  Uiso   1.00
O264   O     0.81065   0.82845   0.11476   0.00000  Uiso   1.00
O265   O     0.68090   0.82843   0.11477   0.00000  Uiso   1.00
O266   O     0.81910   0.83824   0.21857   0.00000  Uiso   1.00
I267   I     0.87459   0.94401   0.19965   0.00000  Uiso   1.00
I268   I     0.62541   0.72265   0.13368   0.00000  Uiso   1.00
I269   I     0.86952   0.71520   0.12514   0.00000  Uiso   1.00
I270   I     0.63048   0.95147   0.20819   0.00000  Uiso   1.00
I271   I     0.95915   0.71276   0.25642   0.00000  Uiso   1.00
I272   I     0.54085   0.95391   0.07691   0.00000  Uiso   1.00
I273   I     0.70972   0.97310   0.05499   0.00000  Uiso   1.00
I274   I     0.79028   0.69357   0.27834   0.00000  Uiso   1.00
I275   I     0.68371   0.76907   0.30137   0.00000  Uiso   1.00
I276   I     0.81629   0.89759   0.03196   0.00000  Uiso   1.00
C277   C     0.24857   0.06680   0.48474   0.00000  Uiso   1.00
C278   C     0.25143   0.26654   0.51526   0.00000  Uiso   1.00
C279   C     0.02365   0.08099   0.51346   0.00000  Uiso   1.00
C280   C     0.47635   0.25234   0.48655   0.00000  Uiso   1.00
C281   C     0.24364   0.01151   0.47677   0.00000  Uiso   1.00
C282   C     0.25636   0.32182   0.52323   0.00000  Uiso   1.00
C283   C     0.16479   0.17007   0.50053   0.00000  Uiso   1.00
C284   C     0.33521   0.16327   0.49947   0.00000  Uiso   1.00
C285   C     0.40783   0.20998   0.50633   0.00000  Uiso   1.00
C286   C     0.09217   0.12336   0.49367   0.00000  Uiso   1.00
C287   C     0.38373   0.16369   0.50029   0.00000  Uiso   1.00
C288   C     0.11627   0.16965   0.49971   0.00000  Uiso   1.00
C289   C     0.40612   0.11886   0.49791   0.00000  Uiso   1.00
C290   C     0.09388   0.21447   0.50210   0.00000  Uiso   1.00
C291   C     0.45330   0.12169   0.50685   0.00000  Uiso   1.00
C292   C     0.04670   0.21165   0.49315   0.00000  Uiso   1.00
C293   C     0.47671   0.16631   0.50134   0.00000  Uiso   1.00
C294   C     0.02329   0.16702   0.49867   0.00000  Uiso   1.00
C295   C     0.45369   0.21050   0.49956   0.00000  Uiso   1.00
C296   C     0.04631   0.12283   0.50044   0.00000  Uiso   1.00
C297   C     0.47816   0.08221   0.52150   0.00000  Uiso   1.00
C298   C     0.02184   0.25112   0.47850   0.00000  Uiso   1.00
Cu299  Cu    0.25501   0.17246   0.56146   0.00000  Uiso   1.00
Cu300  Cu    0.24500   0.16087   0.43854   0.00000  Uiso   1.00
H301   H     0.04222   0.05037   0.52515   0.00000  Uiso   1.00
H302   H     0.45778   0.28297   0.47485   0.00000  Uiso   1.00
N303   N     0.23745   0.15214   0.34617   0.00000  Uiso   1.00
N304   N     0.26256   0.18119   0.65383   0.00000  Uiso   1.00
O305   O     0.25326   0.09538   0.53992   0.00000  Uiso   1.00
O306   O     0.24675   0.23796   0.46008   0.00000  Uiso   1.00
O307   O     0.24480   0.08559   0.43612   0.00000  Uiso   1.00
O308   O     0.25520   0.24774   0.56388   0.00000  Uiso   1.00
O309   O     0.18936   0.17155   0.55191   0.00000  Uiso   1.00
O310   O     0.31065   0.16179   0.44809   0.00000  Uiso   1.00
O311   O     0.18090   0.16176   0.44810   0.00000  Uiso   1.00
O312   O     0.31910   0.17157   0.55190   0.00000  Uiso   1.00
I313   I     0.37459   0.27735   0.53299   0.00000  Uiso   1.00
I314   I     0.12541   0.05599   0.46701   0.00000  Uiso   1.00
I315   I     0.36952   0.04853   0.45847   0.00000  Uiso   1.00
I316   I     0.13048   0.28480   0.54153   0.00000  Uiso   1.00
I317   I     0.45915   0.04609   0.58976   0.00000  Uiso   1.00
I318   I     0.04085   0.28724   0.41024   0.00000  Uiso   1.00
I319   I     0.20972   0.30643   0.38833   0.00000  Uiso   1.00
I320   I     0.29028   0.02690   0.61167   0.00000  Uiso   1.00
I321   I     0.18371   0.10241   0.63470   0.00000  Uiso   1.00
I322   I     0.31629   0.23093   0.36530   0.00000  Uiso   1.00
C323   C     0.74857   0.06680   0.48474   0.00000  Uiso   1.00
C324   C     0.75143   0.26654   0.51526   0.00000  Uiso   1.00
C325   C     0.52365   0.08099   0.51346   0.00000  Uiso   1.00
C326   C     0.97635   0.25234   0.48655   0.00000  Uiso   1.00
C327   C     0.74364   0.01151   0.47677   0.00000  Uiso   1.00
C328   C     0.75636   0.32182   0.52323   0.00000  Uiso   1.00
C329   C     0.66479   0.17007   0.50053   0.00000  Uiso   1.00
C330   C     0.83521   0.16327   0.49947   0.00000  Uiso   1.00
C331   C     0.90783   0.20998   0.50633   0.00000  Uiso   1.00
C332   C     0.59217   0.12336   0.49367   0.00000  Uiso   1.00
C333   C     0.88373   0.16369   0.50029   0.00000  Uiso   1.00
C334   C     0.61627   0.16965   0.49971   0.00000  Uiso   1.00
C335   C     0.90612   0.11886   0.49791   0.00000  Uiso   1.00
C336   C     0.59388   0.21447   0.50210   0.00000  Uiso   1.00
C337   C     0.95330   0.12169   0.50685   0.00000  Uiso   1.00
C338   C     0.54670   0.21165   0.49315   0.00000  Uiso   1.00
C339   C     0.97671   0.16631   0.50134   0.00000  Uiso   1.00
C340   C     0.52329   0.16702   0.49867   0.00000  Uiso   1.00
C341   C     0.95369   0.21050   0.49956   0.00000  Uiso   1.00
C342   C     0.54631   0.12283   0.50044   0.00000  Uiso   1.00
C343   C     0.97816   0.08221   0.52150   0.00000  Uiso   1.00
C344   C     0.52184   0.25112   0.47850   0.00000  Uiso   1.00
Cu345  Cu    0.75501   0.17246   0.56146   0.00000  Uiso   1.00
Cu346  Cu    0.74500   0.16087   0.43854   0.00000  Uiso   1.00
H347   H     0.54222   0.05037   0.52515   0.00000  Uiso   1.00
H348   H     0.95778   0.28297   0.47485   0.00000  Uiso   1.00
N349   N     0.73745   0.15214   0.34617   0.00000  Uiso   1.00
N350   N     0.76256   0.18119   0.65383   0.00000  Uiso   1.00
O351   O     0.75326   0.09538   0.53992   0.00000  Uiso   1.00
O352   O     0.74675   0.23796   0.46008   0.00000  Uiso   1.00
O353   O     0.74480   0.08559   0.43612   0.00000  Uiso   1.00
O354   O     0.75520   0.24774   0.56388   0.00000  Uiso   1.00
O355   O     0.68936   0.17155   0.55191   0.00000  Uiso   1.00
O356   O     0.81065   0.16179   0.44809   0.00000  Uiso   1.00
O357   O     0.68090   0.16176   0.44810   0.00000  Uiso   1.00
O358   O     0.81910   0.17157   0.55190   0.00000  Uiso   1.00
I359   I     0.87459   0.27735   0.53299   0.00000  Uiso   1.00
I360   I     0.62541   0.05599   0.46701   0.00000  Uiso   1.00
I361   I     0.86952   0.04853   0.45847   0.00000  Uiso   1.00
I362   I     0.63048   0.28480   0.54153   0.00000  Uiso   1.00
I363   I     0.95915   0.04609   0.58976   0.00000  Uiso   1.00
I364   I     0.54085   0.28724   0.41024   0.00000  Uiso   1.00
I365   I     0.70972   0.30643   0.38833   0.00000  Uiso   1.00
I366   I     0.79028   0.02690   0.61167   0.00000  Uiso   1.00
I367   I     0.68371   0.10241   0.63470   0.00000  Uiso   1.00
I368   I     0.81629   0.23093   0.36530   0.00000  Uiso   1.00
C369   C     0.24857   0.40013   0.48474   0.00000  Uiso   1.00
C370   C     0.25143   0.59987   0.51526   0.00000  Uiso   1.00
C371   C     0.02365   0.41432   0.51346   0.00000  Uiso   1.00
C372   C     0.47635   0.58568   0.48655   0.00000  Uiso   1.00
C373   C     0.24364   0.34485   0.47677   0.00000  Uiso   1.00
C374   C     0.25636   0.65515   0.52323   0.00000  Uiso   1.00
C375   C     0.16479   0.50340   0.50053   0.00000  Uiso   1.00
C376   C     0.33521   0.49660   0.49947   0.00000  Uiso   1.00
C377   C     0.40783   0.54331   0.50633   0.00000  Uiso   1.00
C378   C     0.09217   0.45669   0.49367   0.00000  Uiso   1.00
C379   C     0.38373   0.49702   0.50029   0.00000  Uiso   1.00
C380   C     0.11627   0.50298   0.49971   0.00000  Uiso   1.00
C381   C     0.40612   0.45220   0.49791   0.00000  Uiso   1.00
C382   C     0.09388   0.54780   0.50210   0.00000  Uiso   1.00
C383   C     0.45330   0.45502   0.50685   0.00000  Uiso   1.00
C384   C     0.04670   0.54498   0.49315   0.00000  Uiso   1.00
C385   C     0.47671   0.49965   0.50134   0.00000  Uiso   1.00
C386   C     0.02329   0.50036   0.49867   0.00000  Uiso   1.00
C387   C     0.45369   0.54383   0.49956   0.00000  Uiso   1.00
C388   C     0.04631   0.45617   0.50044   0.00000  Uiso   1.00
C389   C     0.47816   0.41554   0.52150   0.00000  Uiso   1.00
C390   C     0.02184   0.58446   0.47850   0.00000  Uiso   1.00
Cu391  Cu    0.25501   0.50579   0.56146   0.00000  Uiso   1.00
Cu392  Cu    0.24500   0.49421   0.43854   0.00000  Uiso   1.00
H393   H     0.04222   0.38370   0.52515   0.00000  Uiso   1.00
H394   H     0.45778   0.61630   0.47485   0.00000  Uiso   1.00
N395   N     0.23745   0.48547   0.34617   0.00000  Uiso   1.00
N396   N     0.26256   0.51453   0.65383   0.00000  Uiso   1.00
O397   O     0.25326   0.42871   0.53992   0.00000  Uiso   1.00
O398   O     0.24675   0.57129   0.46008   0.00000  Uiso   1.00
O399   O     0.24480   0.41892   0.43612   0.00000  Uiso   1.00
O400   O     0.25520   0.58108   0.56388   0.00000  Uiso   1.00
O401   O     0.18936   0.50488   0.55191   0.00000  Uiso   1.00
O402   O     0.31065   0.49512   0.44809   0.00000  Uiso   1.00
O403   O     0.18090   0.49510   0.44810   0.00000  Uiso   1.00
O404   O     0.31910   0.50490   0.55190   0.00000  Uiso   1.00
I405   I     0.37459   0.61068   0.53299   0.00000  Uiso   1.00
I406   I     0.12541   0.38932   0.46701   0.00000  Uiso   1.00
I407   I     0.36952   0.38186   0.45847   0.00000  Uiso   1.00
I408   I     0.13048   0.61814   0.54153   0.00000  Uiso   1.00
I409   I     0.45915   0.37943   0.58976   0.00000  Uiso   1.00
I410   I     0.04085   0.62057   0.41024   0.00000  Uiso   1.00
I411   I     0.20972   0.63977   0.38833   0.00000  Uiso   1.00
I412   I     0.29028   0.36023   0.61167   0.00000  Uiso   1.00
I413   I     0.18371   0.43574   0.63470   0.00000  Uiso   1.00
I414   I     0.31629   0.56426   0.36530   0.00000  Uiso   1.00
C415   C     0.74857   0.40013   0.48474   0.00000  Uiso   1.00
C416   C     0.75143   0.59987   0.51526   0.00000  Uiso   1.00
C417   C     0.52365   0.41432   0.51346   0.00000  Uiso   1.00
C418   C     0.97635   0.58568   0.48655   0.00000  Uiso   1.00
C419   C     0.74364   0.34485   0.47677   0.00000  Uiso   1.00
C420   C     0.75636   0.65515   0.52323   0.00000  Uiso   1.00
C421   C     0.66479   0.50340   0.50053   0.00000  Uiso   1.00
C422   C     0.83521   0.49660   0.49947   0.00000  Uiso   1.00
C423   C     0.90783   0.54331   0.50633   0.00000  Uiso   1.00
C424   C     0.59217   0.45669   0.49367   0.00000  Uiso   1.00
C425   C     0.88373   0.49702   0.50029   0.00000  Uiso   1.00
C426   C     0.61627   0.50298   0.49971   0.00000  Uiso   1.00
C427   C     0.90612   0.45220   0.49791   0.00000  Uiso   1.00
C428   C     0.59388   0.54780   0.50210   0.00000  Uiso   1.00
C429   C     0.95330   0.45502   0.50685   0.00000  Uiso   1.00
C430   C     0.54670   0.54498   0.49315   0.00000  Uiso   1.00
C431   C     0.97671   0.49965   0.50134   0.00000  Uiso   1.00
C432   C     0.52329   0.50036   0.49867   0.00000  Uiso   1.00
C433   C     0.95369   0.54383   0.49956   0.00000  Uiso   1.00
C434   C     0.54631   0.45617   0.50044   0.00000  Uiso   1.00
C435   C     0.97816   0.41554   0.52150   0.00000  Uiso   1.00
C436   C     0.52184   0.58446   0.47850   0.00000  Uiso   1.00
Cu437  Cu    0.75501   0.50579   0.56146   0.00000  Uiso   1.00
Cu438  Cu    0.74500   0.49421   0.43854   0.00000  Uiso   1.00
H439   H     0.54222   0.38370   0.52515   0.00000  Uiso   1.00
H440   H     0.95778   0.61630   0.47485   0.00000  Uiso   1.00
N441   N     0.73745   0.48547   0.34617   0.00000  Uiso   1.00
N442   N     0.76256   0.51453   0.65383   0.00000  Uiso   1.00
O443   O     0.75326   0.42871   0.53992   0.00000  Uiso   1.00
O444   O     0.74675   0.57129   0.46008   0.00000  Uiso   1.00
O445   O     0.74480   0.41892   0.43612   0.00000  Uiso   1.00
O446   O     0.75520   0.58108   0.56388   0.00000  Uiso   1.00
O447   O     0.68936   0.50488   0.55191   0.00000  Uiso   1.00
O448   O     0.81065   0.49512   0.44809   0.00000  Uiso   1.00
O449   O     0.68090   0.49510   0.44810   0.00000  Uiso   1.00
O450   O     0.81910   0.50490   0.55190   0.00000  Uiso   1.00
I451   I     0.87459   0.61068   0.53299   0.00000  Uiso   1.00
I452   I     0.62541   0.38932   0.46701   0.00000  Uiso   1.00
I453   I     0.86952   0.38186   0.45847   0.00000  Uiso   1.00
I454   I     0.63048   0.61814   0.54153   0.00000  Uiso   1.00
I455   I     0.95915   0.37943   0.58976   0.00000  Uiso   1.00
I456   I     0.54085   0.62057   0.41024   0.00000  Uiso   1.00
I457   I     0.70972   0.63977   0.38833   0.00000  Uiso   1.00
I458   I     0.79028   0.36023   0.61167   0.00000  Uiso   1.00
I459   I     0.68371   0.43574   0.63470   0.00000  Uiso   1.00
I460   I     0.81629   0.56426   0.36530   0.00000  Uiso   1.00
C461   C     0.24857   0.73346   0.48474   0.00000  Uiso   1.00
C462   C     0.25143   0.93320   0.51526   0.00000  Uiso   1.00
C463   C     0.02365   0.74766   0.51346   0.00000  Uiso   1.00
C464   C     0.47635   0.91901   0.48655   0.00000  Uiso   1.00
C465   C     0.24364   0.67818   0.47677   0.00000  Uiso   1.00
C466   C     0.25636   0.98849   0.52323   0.00000  Uiso   1.00
C467   C     0.16479   0.83673   0.50053   0.00000  Uiso   1.00
C468   C     0.33521   0.82993   0.49947   0.00000  Uiso   1.00
C469   C     0.40783   0.87665   0.50633   0.00000  Uiso   1.00
C470   C     0.09217   0.79002   0.49367   0.00000  Uiso   1.00
C471   C     0.38373   0.83035   0.50029   0.00000  Uiso   1.00
C472   C     0.11627   0.83631   0.49971   0.00000  Uiso   1.00
C473   C     0.40612   0.78553   0.49791   0.00000  Uiso   1.00
C474   C     0.09388   0.88114   0.50210   0.00000  Uiso   1.00
C475   C     0.45330   0.78836   0.50685   0.00000  Uiso   1.00
C476   C     0.04670   0.87831   0.49315   0.00000  Uiso   1.00
C477   C     0.47671   0.83298   0.50134   0.00000  Uiso   1.00
C478   C     0.02329   0.83369   0.49867   0.00000  Uiso   1.00
C479   C     0.45369   0.87717   0.49956   0.00000  Uiso   1.00
C480   C     0.04631   0.78950   0.50044   0.00000  Uiso   1.00
C481   C     0.47816   0.74888   0.52150   0.00000  Uiso   1.00
C482   C     0.02184   0.91779   0.47850   0.00000  Uiso   1.00
Cu483  Cu    0.25501   0.83913   0.56146   0.00000  Uiso   1.00
Cu484  Cu    0.24500   0.82754   0.43854   0.00000  Uiso   1.00
H485   H     0.04222   0.71703   0.52515   0.00000  Uiso   1.00
H486   H     0.45778   0.94963   0.47485   0.00000  Uiso   1.00
N487   N     0.23745   0.81881   0.34617   0.00000  Uiso   1.00
N488   N     0.26256   0.84786   0.65383   0.00000  Uiso   1.00
O489   O     0.25326   0.76204   0.53992   0.00000  Uiso   1.00
O490   O     0.24675   0.90462   0.46008   0.00000  Uiso   1.00
O491   O     0.24480   0.75226   0.43612   0.00000  Uiso   1.00
O492   O     0.25520   0.91441   0.56388   0.00000  Uiso   1.00
O493   O     0.18936   0.83821   0.55191   0.00000  Uiso   1.00
O494   O     0.31065   0.82845   0.44809   0.00000  Uiso   1.00
O495   O     0.18090   0.82843   0.44810   0.00000  Uiso   1.00
O496   O     0.31910   0.83824   0.55190   0.00000  Uiso   1.00
I497   I     0.37459   0.94401   0.53299   0.00000  Uiso   1.00
I498   I     0.12541   0.72265   0.46701   0.00000  Uiso   1.00
I499   I     0.36952   0.71520   0.45847   0.00000  Uiso   1.00
I500   I     0.13048   0.95147   0.54153   0.00000  Uiso   1.00
I501   I     0.45915   0.71276   0.58976   0.00000  Uiso   1.00
I502   I     0.04085   0.95391   0.41024   0.00000  Uiso   1.00
I503   I     0.20972   0.97310   0.38833   0.00000  Uiso   1.00
I504   I     0.29028   0.69357   0.61167   0.00000  Uiso   1.00
I505   I     0.18371   0.76907   0.63470   0.00000  Uiso   1.00
I506   I     0.31629   0.89759   0.36530   0.00000  Uiso   1.00
C507   C     0.74857   0.73346   0.48474   0.00000  Uiso   1.00
C508   C     0.75143   0.93320   0.51526   0.00000  Uiso   1.00
C509   C     0.52365   0.74766   0.51346   0.00000  Uiso   1.00
C510   C     0.97635   0.91901   0.48655   0.00000  Uiso   1.00
C511   C     0.74364   0.67818   0.47677   0.00000  Uiso   1.00
C512   C     0.75636   0.98849   0.52323   0.00000  Uiso   1.00
C513   C     0.66479   0.83673   0.50053   0.00000  Uiso   1.00
C514   C     0.83521   0.82993   0.49947   0.00000  Uiso   1.00
C515   C     0.90783   0.87665   0.50633   0.00000  Uiso   1.00
C516   C     0.59217   0.79002   0.49367   0.00000  Uiso   1.00
C517   C     0.88373   0.83035   0.50029   0.00000  Uiso   1.00
C518   C     0.61627   0.83631   0.49971   0.00000  Uiso   1.00
C519   C     0.90612   0.78553   0.49791   0.00000  Uiso   1.00
C520   C     0.59388   0.88114   0.50210   0.00000  Uiso   1.00
C521   C     0.95330   0.78836   0.50685   0.00000  Uiso   1.00
C522   C     0.54670   0.87831   0.49315   0.00000  Uiso   1.00
C523   C     0.97671   0.83298   0.50134   0.00000  Uiso   1.00
C524   C     0.52329   0.83369   0.49867   0.00000  Uiso   1.00
C525   C     0.95369   0.87717   0.49956   0.00000  Uiso   1.00
C526   C     0.54631   0.78950   0.50044   0.00000  Uiso   1.00
C527   C     0.97816   0.74888   0.52150   0.00000  Uiso   1.00
C528   C     0.52184   0.91779   0.47850   0.00000  Uiso   1.00
Cu529  Cu    0.75501   0.83913   0.56146   0.00000  Uiso   1.00
Cu530  Cu    0.74500   0.82754   0.43854   0.00000  Uiso   1.00
H531   H     0.54222   0.71703   0.52515   0.00000  Uiso   1.00
H532   H     0.95778   0.94963   0.47485   0.00000  Uiso   1.00
N533   N     0.73745   0.81881   0.34617   0.00000  Uiso   1.00
N534   N     0.76256   0.84786   0.65383   0.00000  Uiso   1.00
O535   O     0.75326   0.76204   0.53992   0.00000  Uiso   1.00
O536   O     0.74675   0.90462   0.46008   0.00000  Uiso   1.00
O537   O     0.74480   0.75226   0.43612   0.00000  Uiso   1.00
O538   O     0.75520   0.91441   0.56388   0.00000  Uiso   1.00
O539   O     0.68936   0.83821   0.55191   0.00000  Uiso   1.00
O540   O     0.81065   0.82845   0.44809   0.00000  Uiso   1.00
O541   O     0.68090   0.82843   0.44810   0.00000  Uiso   1.00
O542   O     0.81910   0.83824   0.55190   0.00000  Uiso   1.00
I543   I     0.87459   0.94401   0.53299   0.00000  Uiso   1.00
I544   I     0.62541   0.72265   0.46701   0.00000  Uiso   1.00
I545   I     0.86952   0.71520   0.45847   0.00000  Uiso   1.00
I546   I     0.63048   0.95147   0.54153   0.00000  Uiso   1.00
I547   I     0.95915   0.71276   0.58976   0.00000  Uiso   1.00
I548   I     0.54085   0.95391   0.41024   0.00000  Uiso   1.00
I549   I     0.70972   0.97310   0.38833   0.00000  Uiso   1.00
I550   I     0.79028   0.69357   0.61167   0.00000  Uiso   1.00
I551   I     0.68371   0.76907   0.63470   0.00000  Uiso   1.00
I552   I     0.81629   0.89759   0.36530   0.00000  Uiso   1.00
C553   C     0.24857   0.06680   0.81807   0.00000  Uiso   1.00
C554   C     0.25143   0.26654   0.84860   0.00000  Uiso   1.00
C555   C     0.02365   0.08099   0.84679   0.00000  Uiso   1.00
C556   C     0.47635   0.25234   0.81988   0.00000  Uiso   1.00
C557   C     0.24364   0.01151   0.81010   0.00000  Uiso   1.00
C558   C     0.25636   0.32182   0.85657   0.00000  Uiso   1.00
C559   C     0.16479   0.17007   0.83387   0.00000  Uiso   1.00
C560   C     0.33521   0.16327   0.83280   0.00000  Uiso   1.00
C561   C     0.40783   0.20998   0.83966   0.00000  Uiso   1.00
C562   C     0.09217   0.12336   0.82701   0.00000  Uiso   1.00
C563   C     0.38373   0.16369   0.83362   0.00000  Uiso   1.00
C564   C     0.11627   0.16965   0.83304   0.00000  Uiso   1.00
C565   C     0.40612   0.11886   0.83124   0.00000  Uiso   1.00
C566   C     0.09388   0.21447   0.83543   0.00000  Uiso   1.00
C567   C     0.45330   0.12169   0.84019   0.00000  Uiso   1.00
C568   C     0.04670   0.21165   0.82648   0.00000  Uiso   1.00
C569   C     0.47671   0.16631   0.83467   0.00000  Uiso   1.00
C570   C     0.02329   0.16702   0.83200   0.00000  Uiso   1.00
C571   C     0.45369   0.21050   0.83290   0.00000  Uiso   1.00
C572   C     0.04631   0.12283   0.83377   0.00000  Uiso   1.00
C573   C     0.47816   0.08221   0.85483   0.00000  Uiso   1.00
C574   C     0.02184   0.25112   0.81183   0.00000  Uiso   1.00
Cu575  Cu    0.25501   0.17246   0.89479   0.00000  Uiso   1.00
Cu576  Cu    0.24500   0.16087   0.77187   0.00000  Uiso   1.00
H577   H     0.04222   0.05037   0.85848   0.00000  Uiso   1.00
H578   H     0.45778   0.28297   0.80818   0.00000  Uiso   1.00
N579   N     0.23745   0.15214   0.67951   0.00000  Uiso   1.00
N580   N     0.26256   0.18119   0.98716   0.00000  Uiso   1.00
O581   O     0.25326   0.09538   0.87326   0.00000  Uiso   1.00
O582   O     0.24675   0.23796   0.79341   0.00000  Uiso   1.00
O583   O     0.24480   0.08559   0.76945   0.00000  Uiso   1.00
O584   O     0.25520   0.24774   0.89721   0.00000  Uiso   1.00
O585   O     0.18936   0.17155   0.88524   0.00000  Uiso   1.00
O586   O     0.31065   0.16179   0.78143   0.00000  Uiso   1.00
O587   O     0.18090   0.16176   0.78143   0.00000  Uiso   1.00
O588   O     0.31910   0.17157   0.88523   0.00000  Uiso   1.00
I589   I     0.37459   0.27735   0.86632   0.00000  Uiso   1.00
I590   I     0.12541   0.05599   0.80035   0.00000  Uiso   1.00
I591   I     0.36952   0.04853   0.79181   0.00000  Uiso   1.00
I592   I     0.13048   0.28480   0.87486   0.00000  Uiso   1.00
I593   I     0.45915   0.04609   0.92309   0.00000  Uiso   1.00
I594   I     0.04085   0.28724   0.74358   0.00000  Uiso   1.00
I595   I     0.20972   0.30643   0.72166   0.00000  Uiso   1.00
I596   I     0.29028   0.02690   0.94501   0.00000  Uiso   1.00
I597   I     0.18371   0.10241   0.96804   0.00000  Uiso   1.00
I598   I     0.31629   0.23093   0.69863   0.00000  Uiso   1.00
C599   C     0.74857   0.06680   0.81807   0.00000  Uiso   1.00
C600   C     0.75143   0.26654   0.84860   0.00000  Uiso   1.00
C601   C     0.52365   0.08099   0.84679   0.00000  Uiso   1.00
C602   C     0.97635   0.25234   0.81988   0.00000  Uiso   1.00
C603   C     0.74364   0.01151   0.81010   0.00000  Uiso   1.00
C604   C     0.75636   0.32182   0.85657   0.00000  Uiso   1.00
C605   C     0.66479   0.17007   0.83387   0.00000  Uiso   1.00
C606   C     0.83521   0.16327   0.83280   0.00000  Uiso   1.00
C607   C     0.90783   0.20998   0.83966   0.00000  Uiso   1.00
C608   C     0.59217   0.12336   0.82701   0.00000  Uiso   1.00
C609   C     0.88373   0.16369   0.83362   0.00000  Uiso   1.00
C610   C     0.61627   0.16965   0.83304   0.00000  Uiso   1.00
C611   C     0.90612   0.11886   0.83124   0.00000  Uiso   1.00
C612   C     0.59388   0.21447   0.83543   0.00000  Uiso   1.00
C613   C     0.95330   0.12169   0.84019   0.00000  Uiso   1.00
C614   C     0.54670   0.21165   0.82648   0.00000  Uiso   1.00
C615   C     0.97671   0.16631   0.83467   0.00000  Uiso   1.00
C616   C     0.52329   0.16702   0.83200   0.00000  Uiso   1.00
C617   C     0.95369   0.21050   0.83290   0.00000  Uiso   1.00
C618   C     0.54631   0.12283   0.83377   0.00000  Uiso   1.00
C619   C     0.97816   0.08221   0.85483   0.00000  Uiso   1.00
C620   C     0.52184   0.25112   0.81183   0.00000  Uiso   1.00
Cu621  Cu    0.75501   0.17246   0.89479   0.00000  Uiso   1.00
Cu622  Cu    0.74500   0.16087   0.77187   0.00000  Uiso   1.00
H623   H     0.54222   0.05037   0.85848   0.00000  Uiso   1.00
H624   H     0.95778   0.28297   0.80818   0.00000  Uiso   1.00
N625   N     0.73745   0.15214   0.67951   0.00000  Uiso   1.00
N626   N     0.76256   0.18119   0.98716   0.00000  Uiso   1.00
O627   O     0.75326   0.09538   0.87326   0.00000  Uiso   1.00
O628   O     0.74675   0.23796   0.79341   0.00000  Uiso   1.00
O629   O     0.74480   0.08559   0.76945   0.00000  Uiso   1.00
O630   O     0.75520   0.24774   0.89721   0.00000  Uiso   1.00
O631   O     0.68936   0.17155   0.88524   0.00000  Uiso   1.00
O632   O     0.81065   0.16179   0.78143   0.00000  Uiso   1.00
O633   O     0.68090   0.16176   0.78143   0.00000  Uiso   1.00
O634   O     0.81910   0.17157   0.88523   0.00000  Uiso   1.00
I635   I     0.87459   0.27735   0.86632   0.00000  Uiso   1.00
I636   I     0.62541   0.05599   0.80035   0.00000  Uiso   1.00
I637   I     0.86952   0.04853   0.79181   0.00000  Uiso   1.00
I638   I     0.63048   0.28480   0.87486   0.00000  Uiso   1.00
I639   I     0.95915   0.04609   0.92309   0.00000  Uiso   1.00
I640   I     0.54085   0.28724   0.74358   0.00000  Uiso   1.00
I641   I     0.70972   0.30643   0.72166   0.00000  Uiso   1.00
I642   I     0.79028   0.02690   0.94501   0.00000  Uiso   1.00
I643   I     0.68371   0.10241   0.96804   0.00000  Uiso   1.00
I644   I     0.81629   0.23093   0.69863   0.00000  Uiso   1.00
C645   C     0.24857   0.40013   0.81807   0.00000  Uiso   1.00
C646   C     0.25143   0.59987   0.84860   0.00000  Uiso   1.00
C647   C     0.02365   0.41432   0.84679   0.00000  Uiso   1.00
C648   C     0.47635   0.58568   0.81988   0.00000  Uiso   1.00
C649   C     0.24364   0.34485   0.81010   0.00000  Uiso   1.00
C650   C     0.25636   0.65515   0.85657   0.00000  Uiso   1.00
C651   C     0.16479   0.50340   0.83387   0.00000  Uiso   1.00
C652   C     0.33521   0.49660   0.83280   0.00000  Uiso   1.00
C653   C     0.40783   0.54331   0.83966   0.00000  Uiso   1.00
C654   C     0.09217   0.45669   0.82701   0.00000  Uiso   1.00
C655   C     0.38373   0.49702   0.83362   0.00000  Uiso   1.00
C656   C     0.11627   0.50298   0.83304   0.00000  Uiso   1.00
C657   C     0.40612   0.45220   0.83124   0.00000  Uiso   1.00
C658   C     0.09388   0.54780   0.83543   0.00000  Uiso   1.00
C659   C     0.45330   0.45502   0.84019   0.00000  Uiso   1.00
C660   C     0.04670   0.54498   0.82648   0.00000  Uiso   1.00
C661   C     0.47671   0.49965   0.83467   0.00000  Uiso   1.00
C662   C     0.02329   0.50036   0.83200   0.00000  Uiso   1.00
C663   C     0.45369   0.54383   0.83290   0.00000  Uiso   1.00
C664   C     0.04631   0.45617   0.83377   0.00000  Uiso   1.00
C665   C     0.47816   0.41554   0.85483   0.00000  Uiso   1.00
C666   C     0.02184   0.58446   0.81183   0.00000  Uiso   1.00
Cu667  Cu    0.25501   0.50579   0.89479   0.00000  Uiso   1.00
Cu668  Cu    0.24500   0.49421   0.77187   0.00000  Uiso   1.00
H669   H     0.04222   0.38370   0.85848   0.00000  Uiso   1.00
H670   H     0.45778   0.61630   0.80818   0.00000  Uiso   1.00
N671   N     0.23745   0.48547   0.67951   0.00000  Uiso   1.00
N672   N     0.26256   0.51453   0.98716   0.00000  Uiso   1.00
O673   O     0.25326   0.42871   0.87326   0.00000  Uiso   1.00
O674   O     0.24675   0.57129   0.79341   0.00000  Uiso   1.00
O675   O     0.24480   0.41892   0.76945   0.00000  Uiso   1.00
O676   O     0.25520   0.58108   0.89721   0.00000  Uiso   1.00
O677   O     0.18936   0.50488   0.88524   0.00000  Uiso   1.00
O678   O     0.31065   0.49512   0.78143   0.00000  Uiso   1.00
O679   O     0.18090   0.49510   0.78143   0.00000  Uiso   1.00
O680   O     0.31910   0.50490   0.88523   0.00000  Uiso   1.00
I681   I     0.37459   0.61068   0.86632   0.00000  Uiso   1.00
I682   I     0.12541   0.38932   0.80035   0.00000  Uiso   1.00
I683   I     0.36952   0.38186   0.79181   0.00000  Uiso   1.00
I684   I     0.13048   0.61814   0.87486   0.00000  Uiso   1.00
I685   I     0.45915   0.37943   0.92309   0.00000  Uiso   1.00
I686   I     0.04085   0.62057   0.74358   0.00000  Uiso   1.00
I687   I     0.20972   0.63977   0.72166   0.00000  Uiso   1.00
I688   I     0.29028   0.36023   0.94501   0.00000  Uiso   1.00
I689   I     0.18371   0.43574   0.96804   0.00000  Uiso   1.00
I690   I     0.31629   0.56426   0.69863   0.00000  Uiso   1.00
C691   C     0.74857   0.40013   0.81807   0.00000  Uiso   1.00
C692   C     0.75143   0.59987   0.84860   0.00000  Uiso   1.00
C693   C     0.52365   0.41432   0.84679   0.00000  Uiso   1.00
C694   C     0.97635   0.58568   0.81988   0.00000  Uiso   1.00
C695   C     0.74364   0.34485   0.81010   0.00000  Uiso   1.00
C696   C     0.75636   0.65515   0.85657   0.00000  Uiso   1.00
C697   C     0.66479   0.50340   0.83387   0.00000  Uiso   1.00
C698   C     0.83521   0.49660   0.83280   0.00000  Uiso   1.00
C699   C     0.90783   0.54331   0.83966   0.00000  Uiso   1.00
C700   C     0.59217   0.45669   0.82701   0.00000  Uiso   1.00
C701   C     0.88373   0.49702   0.83362   0.00000  Uiso   1.00
C702   C     0.61627   0.50298   0.83304   0.00000  Uiso   1.00
C703   C     0.90612   0.45220   0.83124   0.00000  Uiso   1.00
C704   C     0.59388   0.54780   0.83543   0.00000  Uiso   1.00
C705   C     0.95330   0.45502   0.84019   0.00000  Uiso   1.00
C706   C     0.54670   0.54498   0.82648   0.00000  Uiso   1.00
C707   C     0.97671   0.49965   0.83467   0.00000  Uiso   1.00
C708   C     0.52329   0.50036   0.83200   0.00000  Uiso   1.00
C709   C     0.95369   0.54383   0.83290   0.00000  Uiso   1.00
C710   C     0.54631   0.45617   0.83377   0.00000  Uiso   1.00
C711   C     0.97816   0.41554   0.85483   0.00000  Uiso   1.00
C712   C     0.52184   0.58446   0.81183   0.00000  Uiso   1.00
Cu713  Cu    0.75501   0.50579   0.89479   0.00000  Uiso   1.00
Cu714  Cu    0.74500   0.49421   0.77187   0.00000  Uiso   1.00
H715   H     0.54222   0.38370   0.85848   0.00000  Uiso   1.00
H716   H     0.95778   0.61630   0.80818   0.00000  Uiso   1.00
N717   N     0.73745   0.48547   0.67951   0.00000  Uiso   1.00
N718   N     0.76256   0.51453   0.98716   0.00000  Uiso   1.00
O719   O     0.75326   0.42871   0.87326   0.00000  Uiso   1.00
O720   O     0.74675   0.57129   0.79341   0.00000  Uiso   1.00
O721   O     0.74480   0.41892   0.76945   0.00000  Uiso   1.00
O722   O     0.75520   0.58108   0.89721   0.00000  Uiso   1.00
O723   O     0.68936   0.50488   0.88524   0.00000  Uiso   1.00
O724   O     0.81065   0.49512   0.78143   0.00000  Uiso   1.00
O725   O     0.68090   0.49510   0.78143   0.00000  Uiso   1.00
O726   O     0.81910   0.50490   0.88523   0.00000  Uiso   1.00
I727   I     0.87459   0.61068   0.86632   0.00000  Uiso   1.00
I728   I     0.62541   0.38932   0.80035   0.00000  Uiso   1.00
I729   I     0.86952   0.38186   0.79181   0.00000  Uiso   1.00
I730   I     0.63048   0.61814   0.87486   0.00000  Uiso   1.00
I731   I     0.95915   0.37943   0.92309   0.00000  Uiso   1.00
I732   I     0.54085   0.62057   0.74358   0.00000  Uiso   1.00
I733   I     0.70972   0.63977   0.72166   0.00000  Uiso   1.00
I734   I     0.79028   0.36023   0.94501   0.00000  Uiso   1.00
I735   I     0.68371   0.43574   0.96804   0.00000  Uiso   1.00
I736   I     0.81629   0.56426   0.69863   0.00000  Uiso   1.00
C737   C     0.24857   0.73346   0.81807   0.00000  Uiso   1.00
C738   C     0.25143   0.93320   0.84860   0.00000  Uiso   1.00
C739   C     0.02365   0.74766   0.84679   0.00000  Uiso   1.00
C740   C     0.47635   0.91901   0.81988   0.00000  Uiso   1.00
C741   C     0.24364   0.67818   0.81010   0.00000  Uiso   1.00
C742   C     0.25636   0.98849   0.85657   0.00000  Uiso   1.00
C743   C     0.16479   0.83673   0.83387   0.00000  Uiso   1.00
C744   C     0.33521   0.82993   0.83280   0.00000  Uiso   1.00
C745   C     0.40783   0.87665   0.83966   0.00000  Uiso   1.00
C746   C     0.09217   0.79002   0.82701   0.00000  Uiso   1.00
C747   C     0.38373   0.83035   0.83362   0.00000  Uiso   1.00
C748   C     0.11627   0.83631   0.83304   0.00000  Uiso   1.00
C749   C     0.40612   0.78553   0.83124   0.00000  Uiso   1.00
C750   C     0.09388   0.88114   0.83543   0.00000  Uiso   1.00
C751   C     0.45330   0.78836   0.84019   0.00000  Uiso   1.00
C752   C     0.04670   0.87831   0.82648   0.00000  Uiso   1.00
C753   C     0.47671   0.83298   0.83467   0.00000  Uiso   1.00
C754   C     0.02329   0.83369   0.83200   0.00000  Uiso   1.00
C755   C     0.45369   0.87717   0.83290   0.00000  Uiso   1.00
C756   C     0.04631   0.78950   0.83377   0.00000  Uiso   1.00
C757   C     0.47816   0.74888   0.85483   0.00000  Uiso   1.00
C758   C     0.02184   0.91779   0.81183   0.00000  Uiso   1.00
Cu759  Cu    0.25501   0.83913   0.89479   0.00000  Uiso   1.00
Cu760  Cu    0.24500   0.82754   0.77187   0.00000  Uiso   1.00
H761   H     0.04222   0.71703   0.85848   0.00000  Uiso   1.00
H762   H     0.45778   0.94963   0.80818   0.00000  Uiso   1.00
N763   N     0.23745   0.81881   0.67951   0.00000  Uiso   1.00
N764   N     0.26256   0.84786   0.98716   0.00000  Uiso   1.00
O765   O     0.25326   0.76204   0.87326   0.00000  Uiso   1.00
O766   O     0.24675   0.90462   0.79341   0.00000  Uiso   1.00
O767   O     0.24480   0.75226   0.76945   0.00000  Uiso   1.00
O768   O     0.25520   0.91441   0.89721   0.00000  Uiso   1.00
O769   O     0.18936   0.83821   0.88524   0.00000  Uiso   1.00
O770   O     0.31065   0.82845   0.78143   0.00000  Uiso   1.00
O771   O     0.18090   0.82843   0.78143   0.00000  Uiso   1.00
O772   O     0.31910   0.83824   0.88523   0.00000  Uiso   1.00
I773   I     0.37459   0.94401   0.86632   0.00000  Uiso   1.00
I774   I     0.12541   0.72265   0.80035   0.00000  Uiso   1.00
I775   I     0.36952   0.71520   0.79181   0.00000  Uiso   1.00
I776   I     0.13048   0.95147   0.87486   0.00000  Uiso   1.00
I777   I     0.45915   0.71276   0.92309   0.00000  Uiso   1.00
I778   I     0.04085   0.95391   0.74358   0.00000  Uiso   1.00
I779   I     0.20972   0.97310   0.72166   0.00000  Uiso   1.00
I780   I     0.29028   0.69357   0.94501   0.00000  Uiso   1.00
I781   I     0.18371   0.76907   0.96804   0.00000  Uiso   1.00
I782   I     0.31629   0.89759   0.69863   0.00000  Uiso   1.00
C783   C     0.74857   0.73346   0.81807   0.00000  Uiso   1.00
C784   C     0.75143   0.93320   0.84860   0.00000  Uiso   1.00
C785   C     0.52365   0.74766   0.84679   0.00000  Uiso   1.00
C786   C     0.97635   0.91901   0.81988   0.00000  Uiso   1.00
C787   C     0.74364   0.67818   0.81010   0.00000  Uiso   1.00
C788   C     0.75636   0.98849   0.85657   0.00000  Uiso   1.00
C789   C     0.66479   0.83673   0.83387   0.00000  Uiso   1.00
C790   C     0.83521   0.82993   0.83280   0.00000  Uiso   1.00
C791   C     0.90783   0.87665   0.83966   0.00000  Uiso   1.00
C792   C     0.59217   0.79002   0.82701   0.00000  Uiso   1.00
C793   C     0.88373   0.83035   0.83362   0.00000  Uiso   1.00
C794   C     0.61627   0.83631   0.83304   0.00000  Uiso   1.00
C795   C     0.90612   0.78553   0.83124   0.00000  Uiso   1.00
C796   C     0.59388   0.88114   0.83543   0.00000  Uiso   1.00
C797   C     0.95330   0.78836   0.84019   0.00000  Uiso   1.00
C798   C     0.54670   0.87831   0.82648   0.00000  Uiso   1.00
C799   C     0.97671   0.83298   0.83467   0.00000  Uiso   1.00
C800   C     0.52329   0.83369   0.83200   0.00000  Uiso   1.00
C801   C     0.95369   0.87717   0.83290   0.00000  Uiso   1.00
C802   C     0.54631   0.78950   0.83377   0.00000  Uiso   1.00
C803   C     0.97816   0.74888   0.85483   0.00000  Uiso   1.00
C804   C     0.52184   0.91779   0.81183   0.00000  Uiso   1.00
Cu805  Cu    0.75501   0.83913   0.89479   0.00000  Uiso   1.00
Cu806  Cu    0.74500   0.82754   0.77187   0.00000  Uiso   1.00
H807   H     0.54222   0.71703   0.85848   0.00000  Uiso   1.00
H808   H     0.95778   0.94963   0.80818   0.00000  Uiso   1.00
N809   N     0.73745   0.81881   0.67951   0.00000  Uiso   1.00
N810   N     0.76256   0.84786   0.98716   0.00000  Uiso   1.00
O811   O     0.75326   0.76204   0.87326   0.00000  Uiso   1.00
O812   O     0.74675   0.90462   0.79341   0.00000  Uiso   1.00
O813   O     0.74480   0.75226   0.76945   0.00000  Uiso   1.00
O814   O     0.75520   0.91441   0.89721   0.00000  Uiso   1.00
O815   O     0.68936   0.83821   0.88524   0.00000  Uiso   1.00
O816   O     0.81065   0.82845   0.78143   0.00000  Uiso   1.00
O817   O     0.68090   0.82843   0.78143   0.00000  Uiso   1.00
O818   O     0.81910   0.83824   0.88523   0.00000  Uiso   1.00
I819   I     0.87459   0.94401   0.86632   0.00000  Uiso   1.00
I820   I     0.62541   0.72265   0.80035   0.00000  Uiso   1.00
I821   I     0.86952   0.71520   0.79181   0.00000  Uiso   1.00
I822   I     0.63048   0.95147   0.87486   0.00000  Uiso   1.00
I823   I     0.95915   0.71276   0.92309   0.00000  Uiso   1.00
I824   I     0.54085   0.95391   0.74358   0.00000  Uiso   1.00
I825   I     0.70972   0.97310   0.72166   0.00000  Uiso   1.00
I826   I     0.79028   0.69357   0.94501   0.00000  Uiso   1.00
I827   I     0.68371   0.76907   0.96804   0.00000  Uiso   1.00
I828   I     0.81629   0.89759   0.69863   0.00000  Uiso   1.00
loop_
_geom_bond_atom_site_label_1
_geom_bond_atom_site_label_2
_geom_bond_distance
_geom_bond_site_symmetry_2
_ccdc_geom_bond_type
C1     O31     1.305   .     A
C1     O29     1.296   .     A
C1     C5      1.463   .     S
C2     O30     1.296   .     A
C2     C6      1.463   .     S
C2     O32     1.305   .     A
C3     C20     1.399   .     A
C3     H25     1.082   .     S
C3     C67     1.393   1_455 S
C4     H26     1.082   .     S
C4     C19     1.399   .     A
C4     C68     1.393   .     S
C5     C190    1.366   1_545 S
C5     I227    2.159   1_545 S
C6     C97     1.366   .     S
C6     I136    2.159   .     S
C7     O33     1.302   .     A
C7     C12     1.452   .     S
C7     O35     1.294   .     A
C8     C11     1.452   .     S
C8     O36     1.294   .     A
C8     O34     1.302   .     A
C9     C11     1.392   .     A
C9     C19     1.397   .     A
C9     I37     2.103   .     S
C10    I38     2.103   .     S
C10    C12     1.392   .     A
C10    C20     1.397   .     A
C11    C13     1.400   .     A
C12    C14     1.400   .     A
C13    C15     1.406   .     A
C13    I39     2.118   .     S
C14    C16     1.406   .     A
C14    I40     2.118   .     S
C15    C21     1.406   .     A
C15    C17     1.408   .     A
C16    C18     1.408   .     A
C16    C22     1.406   .     A
C17    C19     1.409   .     A
C17    C64     1.403   .     S
C18    C20     1.409   .     A
C18    C63     1.403   1_455 S
C21    I41     2.110   .     S
C21    C49     1.393   .     S
C22    I42     2.110   .     S
C22    C50     1.393   1_455 S
Cu23   Cu24    2.700   .     S
Cu23   O32     2.022   .     S
Cu23   N28     2.028   .     S
Cu23   O29     2.025   .     S
Cu23   O36     1.954   .     S
Cu23   O33     1.957   .     S
Cu24   N27     2.028   .     S
Cu24   O31     2.022   .     S
Cu24   O35     1.954   .     S
Cu24   O30     2.025   .     S
Cu24   O34     1.957   .     S
N27    N580    1.328   1_554 S
N27    I597    2.078   1_554 S
N28    N303    1.328   .     S
N28    I322    2.078   .     S
I43    C97     2.159   .     S
I44    C190    2.159   1_545 S
I45    N303    2.078   .     S
I46    N580    2.078   1_554 S
C47    O77     1.305   .     A
C47    O75     1.296   .     A
C47    C51     1.463   .     S
C48    O76     1.296   .     A
C48    C52     1.463   .     S
C48    O78     1.305   .     A
C49    C66     1.399   .     A
C49    H71     1.082   .     S
C50    H72     1.082   .     S
C50    C65     1.399   .     A
C50    C22     1.393   1_655 S
C51    C236    1.366   1_545 S
C51    I273    2.159   1_545 S
C52    C143    1.366   .     S
C52    I182    2.159   .     S
C53    O79     1.302   .     A
C53    C58     1.452   .     S
C53    O81     1.294   .     A
C54    C57     1.452   .     S
C54    O82     1.294   .     A
C54    O80     1.302   .     A
C55    C57     1.392   .     A
C55    C65     1.397   .     A
C55    I83     2.103   .     S
C56    I84     2.103   .     S
C56    C58     1.392   .     A
C56    C66     1.397   .     A
C57    C59     1.400   .     A
C58    C60     1.400   .     A
C59    C61     1.406   .     A
C59    I85     2.118   .     S
C60    C62     1.406   .     A
C60    I86     2.118   .     S
C61    C67     1.406   .     A
C61    C63     1.408   .     A
C62    C64     1.408   .     A
C62    C68     1.406   .     A
C63    C65     1.409   .     A
C63    C18     1.403   1_655 S
C64    C66     1.409   .     A
C67    I87     2.110   .     S
C67    C3      1.393   1_655 S
C68    I88     2.110   .     S
Cu69   Cu70    2.700   .     S
Cu69   O78     2.022   .     S
Cu69   N74     2.028   .     S
Cu69   O75     2.025   .     S
Cu69   O82     1.954   .     S
Cu69   O79     1.957   .     S
Cu70   N73     2.028   .     S
Cu70   O77     2.022   .     S
Cu70   O81     1.954   .     S
Cu70   O76     2.025   .     S
Cu70   O80     1.957   .     S
N73    N626    1.328   1_554 S
N73    I643    2.078   1_554 S
N74    N349    1.328   .     S
N74    I368    2.078   .     S
I89    C143    2.159   .     S
I90    C236    2.159   1_545 S
I91    N349    2.078   .     S
I92    N626    2.078   1_554 S
C93    O123    1.305   .     A
C93    O121    1.296   .     A
C93    C97     1.463   .     S
C94    O122    1.296   .     A
C94    C98     1.463   .     S
C94    O124    1.305   .     A
C95    C112    1.399   .     A
C95    H117    1.082   .     S
C95    C159    1.393   1_455 S
C96    H118    1.082   .     S
C96    C111    1.399   .     A
C96    C160    1.393   .     S
C98    C189    1.366   .     S
C98    I228    2.159   .     S
C99    O125    1.302   .     A
C99    C104    1.452   .     S
C99    O127    1.294   .     A
C100   C103    1.452   .     S
C100   O128    1.294   .     A
C100   O126    1.302   .     A
C101   C103    1.392   .     A
C101   C111    1.397   .     A
C101   I129    2.103   .     S
C102   I130    2.103   .     S
C102   C104    1.392   .     A
C102   C112    1.397   .     A
C103   C105    1.400   .     A
C104   C106    1.400   .     A
C105   C107    1.406   .     A
C105   I131    2.118   .     S
C106   C108    1.406   .     A
C106   I132    2.118   .     S
C107   C113    1.406   .     A
C107   C109    1.408   .     A
C108   C110    1.408   .     A
C108   C114    1.406   .     A
C109   C111    1.409   .     A
C109   C156    1.403   .     S
C110   C112    1.409   .     A
C110   C155    1.403   1_455 S
C113   I133    2.110   .     S
C113   C141    1.393   .     S
C114   I134    2.110   .     S
C114   C142    1.393   1_455 S
Cu115  Cu116   2.700   .     S
Cu115  O124    2.022   .     S
Cu115  N120    2.028   .     S
Cu115  O121    2.025   .     S
Cu115  O128    1.954   .     S
Cu115  O125    1.957   .     S
Cu116  N119    2.028   .     S
Cu116  O123    2.022   .     S
Cu116  O127    1.954   .     S
Cu116  O122    2.025   .     S
Cu116  O126    1.957   .     S
N119   N672    1.328   1_554 S
N119   I689    2.078   1_554 S
N120   N395    1.328   .     S
N120   I414    2.078   .     S
I135   C189    2.159   .     S
I137   N395    2.078   .     S
I138   N672    2.078   1_554 S
C139   O169    1.305   .     A
C139   O167    1.296   .     A
C139   C143    1.463   .     S
C140   O168    1.296   .     A
C140   C144    1.463   .     S
C140   O170    1.305   .     A
C141   C158    1.399   .     A
C141   H163    1.082   .     S
C142   H164    1.082   .     S
C142   C157    1.399   .     A
C142   C114    1.393   1_655 S
C144   C235    1.366   .     S
C144   I274    2.159   .     S
C145   O171    1.302   .     A
C145   C150    1.452   .     S
C145   O173    1.294   .     A
C146   C149    1.452   .     S
C146   O174    1.294   .     A
C146   O172    1.302   .     A
C147   C149    1.392   .     A
C147   C157    1.397   .     A
C147   I175    2.103   .     S
C148   I176    2.103   .     S
C148   C150    1.392   .     A
C148   C158    1.397   .     A
C149   C151    1.400   .     A
C150   C152    1.400   .     A
C151   C153    1.406   .     A
C151   I177    2.118   .     S
C152   C154    1.406   .     A
C152   I178    2.118   .     S
C153   C159    1.406   .     A
C153   C155    1.408   .     A
C154   C156    1.408   .     A
C154   C160    1.406   .     A
C155   C157    1.409   .     A
C155   C110    1.403   1_655 S
C156   C158    1.409   .     A
C159   I179    2.110   .     S
C159   C95     1.393   1_655 S
C160   I180    2.110   .     S
Cu161  Cu162   2.700   .     S
Cu161  O170    2.022   .     S
Cu161  N166    2.028   .     S
Cu161  O167    2.025   .     S
Cu161  O174    1.954   .     S
Cu161  O171    1.957   .     S
Cu162  N165    2.028   .     S
Cu162  O169    2.022   .     S
Cu162  O173    1.954   .     S
Cu162  O168    2.025   .     S
Cu162  O172    1.957   .     S
N165   N718    1.328   1_554 S
N165   I735    2.078   1_554 S
N166   N441    1.328   .     S
N166   I460    2.078   .     S
I181   C235    2.159   .     S
I183   N441    2.078   .     S
I184   N718    2.078   1_554 S
C185   O215    1.305   .     A
C185   O213    1.296   .     A
C185   C189    1.463   .     S
C186   O214    1.296   .     A
C186   C190    1.463   .     S
C186   O216    1.305   .     A
C187   C204    1.399   .     A
C187   H209    1.082   .     S
C187   C251    1.393   1_455 S
C188   H210    1.082   .     S
C188   C203    1.399   .     A
C188   C252    1.393   .     S
C190   C5      1.366   1_565 S
C190   I44     2.159   1_565 S
C191   O217    1.302   .     A
C191   C196    1.452   .     S
C191   O219    1.294   .     A
C192   C195    1.452   .     S
C192   O220    1.294   .     A
C192   O218    1.302   .     A
C193   C195    1.392   .     A
C193   C203    1.397   .     A
C193   I221    2.103   .     S
C194   I222    2.103   .     S
C194   C196    1.392   .     A
C194   C204    1.397   .     A
C195   C197    1.400   .     A
C196   C198    1.400   .     A
C197   C199    1.406   .     A
C197   I223    2.118   .     S
C198   C200    1.406   .     A
C198   I224    2.118   .     S
C199   C205    1.406   .     A
C199   C201    1.408   .     A
C200   C202    1.408   .     A
C200   C206    1.406   .     A
C201   C203    1.409   .     A
C201   C248    1.403   .     S
C202   C204    1.409   .     A
C202   C247    1.403   1_455 S
C205   I225    2.110   .     S
C205   C233    1.393   .     S
C206   I226    2.110   .     S
C206   C234    1.393   1_455 S
Cu207  Cu208   2.700   .     S
Cu207  O216    2.022   .     S
Cu207  N212    2.028   .     S
Cu207  O213    2.025   .     S
Cu207  O220    1.954   .     S
Cu207  O217    1.957   .     S
Cu208  N211    2.028   .     S
Cu208  O215    2.022   .     S
Cu208  O219    1.954   .     S
Cu208  O214    2.025   .     S
Cu208  O218    1.957   .     S
N211   N764    1.328   1_554 S
N211   I781    2.078   1_554 S
N212   N487    1.328   .     S
N212   I506    2.078   .     S
I227   C5      2.159   1_565 S
I229   N487    2.078   .     S
I230   N764    2.078   1_554 S
C231   O261    1.305   .     A
C231   O259    1.296   .     A
C231   C235    1.463   .     S
C232   O260    1.296   .     A
C232   C236    1.463   .     S
C232   O262    1.305   .     A
C233   C250    1.399   .     A
C233   H255    1.082   .     S
C234   H256    1.082   .     S
C234   C249    1.399   .     A
C234   C206    1.393   1_655 S
C236   C51     1.366   1_565 S
C236   I90     2.159   1_565 S
C237   O263    1.302   .     A
C237   C242    1.452   .     S
C237   O265    1.294   .     A
C238   C241    1.452   .     S
C238   O266    1.294   .     A
C238   O264    1.302   .     A
C239   C241    1.392   .     A
C239   C249    1.397   .     A
C239   I267    2.103   .     S
C240   I268    2.103   .     S
C240   C242    1.392   .     A
C240   C250    1.397   .     A
C241   C243    1.400   .     A
C242   C244    1.400   .     A
C243   C245    1.406   .     A
C243   I269    2.118   .     S
C244   C246    1.406   .     A
C244   I270    2.118   .     S
C245   C251    1.406   .     A
C245   C247    1.408   .     A
C246   C248    1.408   .     A
C246   C252    1.406   .     A
C247   C249    1.409   .     A
C247   C202    1.403   1_655 S
C248   C250    1.409   .     A
C251   I271    2.110   .     S
C251   C187    1.393   1_655 S
C252   I272    2.110   .     S
Cu253  Cu254   2.700   .     S
Cu253  O262    2.022   .     S
Cu253  N258    2.028   .     S
Cu253  O259    2.025   .     S
Cu253  O266    1.954   .     S
Cu253  O263    1.957   .     S
Cu254  N257    2.028   .     S
Cu254  O261    2.022   .     S
Cu254  O265    1.954   .     S
Cu254  O260    2.025   .     S
Cu254  O264    1.957   .     S
N257   N810    1.328   1_554 S
N257   I827    2.078   1_554 S
N258   N533    1.328   .     S
N258   I552    2.078   .     S
I273   C51     2.159   1_565 S
I275   N533    2.078   .     S
I276   N810    2.078   1_554 S
C277   O307    1.305   .     A
C277   O305    1.296   .     A
C277   C281    1.463   .     S
C278   O306    1.296   .     A
C278   C282    1.463   .     S
C278   O308    1.305   .     A
C279   C296    1.399   .     A
C279   H301    1.082   .     S
C279   C343    1.393   1_455 S
C280   H302    1.082   .     S
C280   C295    1.399   .     A
C280   C344    1.393   .     S
C281   C466    1.366   1_545 S
C281   I503    2.159   1_545 S
C282   C373    1.366   .     S
C282   I412    2.159   .     S
C283   O309    1.302   .     A
C283   C288    1.452   .     S
C283   O311    1.294   .     A
C284   C287    1.452   .     S
C284   O312    1.294   .     A
C284   O310    1.302   .     A
C285   C287    1.392   .     A
C285   C295    1.397   .     A
C285   I313    2.103   .     S
C286   I314    2.103   .     S
C286   C288    1.392   .     A
C286   C296    1.397   .     A
C287   C289    1.400   .     A
C288   C290    1.400   .     A
C289   C291    1.406   .     A
C289   I315    2.118   .     S
C290   C292    1.406   .     A
C290   I316    2.118   .     S
C291   C297    1.406   .     A
C291   C293    1.408   .     A
C292   C294    1.408   .     A
C292   C298    1.406   .     A
C293   C295    1.409   .     A
C293   C340    1.403   .     S
C294   C296    1.409   .     A
C294   C339    1.403   1_455 S
C297   I317    2.110   .     S
C297   C325    1.393   .     S
C298   I318    2.110   .     S
C298   C326    1.393   1_455 S
Cu299  Cu300   2.700   .     S
Cu299  O308    2.022   .     S
Cu299  N304    2.028   .     S
Cu299  O305    2.025   .     S
Cu299  O312    1.954   .     S
Cu299  O309    1.957   .     S
Cu300  N303    2.028   .     S
Cu300  O307    2.022   .     S
Cu300  O311    1.954   .     S
Cu300  O306    2.025   .     S
Cu300  O310    1.957   .     S
N304   N579    1.328   .     S
N304   I598    2.078   .     S
I319   C373    2.159   .     S
I320   C466    2.159   1_545 S
I321   N579    2.078   .     S
C323   O353    1.305   .     A
C323   O351    1.296   .     A
C323   C327    1.463   .     S
C324   O352    1.296   .     A
C324   C328    1.463   .     S
C324   O354    1.305   .     A
C325   C342    1.399   .     A
C325   H347    1.082   .     S
C326   H348    1.082   .     S
C326   C341    1.399   .     A
C326   C298    1.393   1_655 S
C327   C512    1.366   1_545 S
C327   I549    2.159   1_545 S
C328   C419    1.366   .     S
C328   I458    2.159   .     S
C329   O355    1.302   .     A
C329   C334    1.452   .     S
C329   O357    1.294   .     A
C330   C333    1.452   .     S
C330   O358    1.294   .     A
C330   O356    1.302   .     A
C331   C333    1.392   .     A
C331   C341    1.397   .     A
C331   I359    2.103   .     S
C332   I360    2.103   .     S
C332   C334    1.392   .     A
C332   C342    1.397   .     A
C333   C335    1.400   .     A
C334   C336    1.400   .     A
C335   C337    1.406   .     A
C335   I361    2.118   .     S
C336   C338    1.406   .     A
C336   I362    2.118   .     S
C337   C343    1.406   .     A
C337   C339    1.408   .     A
C338   C340    1.408   .     A
C338   C344    1.406   .     A
C339   C341    1.409   .     A
C339   C294    1.403   1_655 S
C340   C342    1.409   .     A
C343   I363    2.110   .     S
C343   C279    1.393   1_655 S
C344   I364    2.110   .     S
Cu345  Cu346   2.700   .     S
Cu345  O354    2.022   .     S
Cu345  N350    2.028   .     S
Cu345  O351    2.025   .     S
Cu345  O358    1.954   .     S
Cu345  O355    1.957   .     S
Cu346  N349    2.028   .     S
Cu346  O353    2.022   .     S
Cu346  O357    1.954   .     S
Cu346  O352    2.025   .     S
Cu346  O356    1.957   .     S
N350   N625    1.328   .     S
N350   I644    2.078   .     S
I365   C419    2.159   .     S
I366   C512    2.159   1_545 S
I367   N625    2.078   .     S
C369   O399    1.305   .     A
C369   O397    1.296   .     A
C369   C373    1.463   .     S
C370   O398    1.296   .     A
C370   C374    1.463   .     S
C370   O400    1.305   .     A
C371   C388    1.399   .     A
C371   H393    1.082   .     S
C371   C435    1.393   1_455 S
C372   H394    1.082   .     S
C372   C387    1.399   .     A
C372   C436    1.393   .     S
C374   C465    1.366   .     S
C374   I504    2.159   .     S
C375   O401    1.302   .     A
C375   C380    1.452   .     S
C375   O403    1.294   .     A
C376   C379    1.452   .     S
C376   O404    1.294   .     A
C376   O402    1.302   .     A
C377   C379    1.392   .     A
C377   C387    1.397   .     A
C377   I405    2.103   .     S
C378   I406    2.103   .     S
C378   C380    1.392   .     A
C378   C388    1.397   .     A
C379   C381    1.400   .     A
C380   C382    1.400   .     A
C381   C383    1.406   .     A
C381   I407    2.118   .     S
C382   C384    1.406   .     A
C382   I408    2.118   .     S
C383   C389    1.406   .     A
C383   C385    1.408   .     A
C384   C386    1.408   .     A
C384   C390    1.406   .     A
C385   C387    1.409   .     A
C385   C432    1.403   .     S
C386   C388    1.409   .     A
C386   C431    1.403   1_455 S
C389   I409    2.110   .     S
C389   C417    1.393   .     S
C390   I410    2.110   .     S
C390   C418    1.393   1_455 S
Cu391  Cu392   2.700   .     S
Cu391  O400    2.022   .     S
Cu391  N396    2.028   .     S
Cu391  O397    2.025   .     S
Cu391  O404    1.954   .     S
Cu391  O401    1.957   .     S
Cu392  N395    2.028   .     S
Cu392  O399    2.022   .     S
Cu392  O403    1.954   .     S
Cu392  O398    2.025   .     S
Cu392  O402    1.957   .     S
N396   N671    1.328   .     S
N396   I690    2.078   .     S
I411   C465    2.159   .     S
I413   N671    2.078   .     S
C415   O445    1.305   .     A
C415   O443    1.296   .     A
C415   C419    1.463   .     S
C416   O444    1.296   .     A
C416   C420    1.463   .     S
C416   O446    1.305   .     A
C417   C434    1.399   .     A
C417   H439    1.082   .     S
C418   H440    1.082   .     S
C418   C433    1.399   .     A
C418   C390    1.393   1_655 S
C420   C511    1.366   .     S
C420   I550    2.159   .     S
C421   O447    1.302   .     A
C421   C426    1.452   .     S
C421   O449    1.294   .     A
C422   C425    1.452   .     S
C422   O450    1.294   .     A
C422   O448    1.302   .     A
C423   C425    1.392   .     A
C423   C433    1.397   .     A
C423   I451    2.103   .     S
C424   I452    2.103   .     S
C424   C426    1.392   .     A
C424   C434    1.397   .     A
C425   C427    1.400   .     A
C426   C428    1.400   .     A
C427   C429    1.406   .     A
C427   I453    2.118   .     S
C428   C430    1.406   .     A
C428   I454    2.118   .     S
C429   C435    1.406   .     A
C429   C431    1.408   .     A
C430   C432    1.408   .     A
C430   C436    1.406   .     A
C431   C433    1.409   .     A
C431   C386    1.403   1_655 S
C432   C434    1.409   .     A
C435   I455    2.110   .     S
C435   C371    1.393   1_655 S
C436   I456    2.110   .     S
Cu437  Cu438   2.700   .     S
Cu437  O446    2.022   .     S
Cu437  N442    2.028   .     S
Cu437  O443    2.025   .     S
Cu437  O450    1.954   .     S
Cu437  O447    1.957   .     S
Cu438  N441    2.028   .     S
Cu438  O445    2.022   .     S
Cu438  O449    1.954   .     S
Cu438  O444    2.025   .     S
Cu438  O448    1.957   .     S
N442   N717    1.328   .     S
N442   I736    2.078   .     S
I457   C511    2.159   .     S
I459   N717    2.078   .     S
C461   O491    1.305   .     A
C461   O489    1.296   .     A
C461   C465    1.463   .     S
C462   O490    1.296   .     A
C462   C466    1.463   .     S
C462   O492    1.305   .     A
C463   C480    1.399   .     A
C463   H485    1.082   .     S
C463   C527    1.393   1_455 S
C464   H486    1.082   .     S
C464   C479    1.399   .     A
C464   C528    1.393   .     S
C466   C281    1.366   1_565 S
C466   I320    2.159   1_565 S
C467   O493    1.302   .     A
C467   C472    1.452   .     S
C467   O495    1.294   .     A
C468   C471    1.452   .     S
C468   O496    1.294   .     A
C468   O494    1.302   .     A
C469   C471    1.392   .     A
C469   C479    1.397   .     A
C469   I497    2.103   .     S
C470   I498    2.103   .     S
C470   C472    1.392   .     A
C470   C480    1.397   .     A
C471   C473    1.400   .     A
C472   C474    1.400   .     A
C473   C475    1.406   .     A
C473   I499    2.118   .     S
C474   C476    1.406   .     A
C474   I500    2.118   .     S
C475   C481    1.406   .     A
C475   C477    1.408   .     A
C476   C478    1.408   .     A
C476   C482    1.406   .     A
C477   C479    1.409   .     A
C477   C524    1.403   .     S
C478   C480    1.409   .     A
C478   C523    1.403   1_455 S
C481   I501    2.110   .     S
C481   C509    1.393   .     S
C482   I502    2.110   .     S
C482   C510    1.393   1_455 S
Cu483  Cu484   2.700   .     S
Cu483  O492    2.022   .     S
Cu483  N488    2.028   .     S
Cu483  O489    2.025   .     S
Cu483  O496    1.954   .     S
Cu483  O493    1.957   .     S
Cu484  N487    2.028   .     S
Cu484  O491    2.022   .     S
Cu484  O495    1.954   .     S
Cu484  O490    2.025   .     S
Cu484  O494    1.957   .     S
N488   N763    1.328   .     S
N488   I782    2.078   .     S
I503   C281    2.159   1_565 S
I505   N763    2.078   .     S
C507   O537    1.305   .     A
C507   O535    1.296   .     A
C507   C511    1.463   .     S
C508   O536    1.296   .     A
C508   C512    1.463   .     S
C508   O538    1.305   .     A
C509   C526    1.399   .     A
C509   H531    1.082   .     S
C510   H532    1.082   .     S
C510   C525    1.399   .     A
C510   C482    1.393   1_655 S
C512   C327    1.366   1_565 S
C512   I366    2.159   1_565 S
C513   O539    1.302   .     A
C513   C518    1.452   .     S
C513   O541    1.294   .     A
C514   C517    1.452   .     S
C514   O542    1.294   .     A
C514   O540    1.302   .     A
C515   C517    1.392   .     A
C515   C525    1.397   .     A
C515   I543    2.103   .     S
C516   I544    2.103   .     S
C516   C518    1.392   .     A
C516   C526    1.397   .     A
C517   C519    1.400   .     A
C518   C520    1.400   .     A
C519   C521    1.406   .     A
C519   I545    2.118   .     S
C520   C522    1.406   .     A
C520   I546    2.118   .     S
C521   C527    1.406   .     A
C521   C523    1.408   .     A
C522   C524    1.408   .     A
C522   C528    1.406   .     A
C523   C525    1.409   .     A
C523   C478    1.403   1_655 S
C524   C526    1.409   .     A
C527   I547    2.110   .     S
C527   C463    1.393   1_655 S
C528   I548    2.110   .     S
Cu529  Cu530   2.700   .     S
Cu529  O538    2.022   .     S
Cu529  N534    2.028   .     S
Cu529  O535    2.025   .     S
Cu529  O542    1.954   .     S
Cu529  O539    1.957   .     S
Cu530  N533    2.028   .     S
Cu530  O537    2.022   .     S
Cu530  O541    1.954   .     S
Cu530  O536    2.025   .     S
Cu530  O540    1.957   .     S
N534   N809    1.328   .     S
N534   I828    2.078   .     S
I549   C327    2.159   1_565 S
I551   N809    2.078   .     S
C553   O583    1.305   .     A
C553   O581    1.296   .     A
C553   C557    1.463   .     S
C554   O582    1.296   .     A
C554   C558    1.463   .     S
C554   O584    1.305   .     A
C555   C572    1.399   .     A
C555   H577    1.082   .     S
C555   C619    1.393   1_455 S
C556   H578    1.082   .     S
C556   C571    1.399   .     A
C556   C620    1.393   .     S
C557   C742    1.366   1_545 S
C557   I779    2.159   1_545 S
C558   C649    1.366   .     S
C558   I688    2.159   .     S
C559   O585    1.302   .     A
C559   C564    1.452   .     S
C559   O587    1.294   .     A
C560   C563    1.452   .     S
C560   O588    1.294   .     A
C560   O586    1.302   .     A
C561   C563    1.392   .     A
C561   C571    1.397   .     A
C561   I589    2.103   .     S
C562   I590    2.103   .     S
C562   C564    1.392   .     A
C562   C572    1.397   .     A
C563   C565    1.400   .     A
C564   C566    1.400   .     A
C565   C567    1.406   .     A
C565   I591    2.118   .     S
C566   C568    1.406   .     A
C566   I592    2.118   .     S
C567   C573    1.406   .     A
C567   C569    1.408   .     A
C568   C570    1.408   .     A
C568   C574    1.406   .     A
C569   C571    1.409   .     A
C569   C616    1.403   .     S
C570   C572    1.409   .     A
C570   C615    1.403   1_455 S
C573   I593    2.110   .     S
C573   C601    1.393   .     S
C574   I594    2.110   .     S
C574   C602    1.393   1_455 S
Cu575  Cu576   2.700   .     S
Cu575  O584    2.022   .     S
Cu575  N580    2.028   .     S
Cu575  O581    2.025   .     S
Cu575  O588    1.954   .     S
Cu575  O585    1.957   .     S
Cu576  N579    2.028   .     S
Cu576  O583    2.022   .     S
Cu576  O587    1.954   .     S
Cu576  O582    2.025   .     S
Cu576  O586    1.957   .     S
N580   N27     1.328   1_556 S
N580   I46     2.078   1_556 S
I595   C649    2.159   .     S
I596   C742    2.159   1_545 S
I597   N27     2.078   1_556 S
C599   O629    1.305   .     A
C599   O627    1.296   .     A
C599   C603    1.463   .     S
C600   O628    1.296   .     A
C600   C604    1.463   .     S
C600   O630    1.305   .     A
C601   C618    1.399   .     A
C601   H623    1.082   .     S
C602   H624    1.082   .     S
C602   C617    1.399   .     A
C602   C574    1.393   1_655 S
C603   C788    1.366   1_545 S
C603   I825    2.159   1_545 S
C604   C695    1.366   .     S
C604   I734    2.159   .     S
C605   O631    1.302   .     A
C605   C610    1.452   .     S
C605   O633    1.294   .     A
C606   C609    1.452   .     S
C606   O634    1.294   .     A
C606   O632    1.302   .     A
C607   C609    1.392   .     A
C607   C617    1.397   .     A
C607   I635    2.103   .     S
C608   I636    2.103   .     S
C608   C610    1.392   .     A
C608   C618    1.397   .     A
C609   C611    1.400   .     A
C610   C612    1.400   .     A
C611   C613    1.406   .     A
C611   I637    2.118   .     S
C612   C614    1.406   .     A
C612   I638    2.118   .     S
C613   C619    1.406   .     A
C613   C615    1.408   .     A
C614   C616    1.408   .     A
C614   C620    1.406   .     A
C615   C617    1.409   .     A
C615   C570    1.403   1_655 S
C616   C618    1.409   .     A
C619   I639    2.110   .     S
C619   C555    1.393   1_655 S
C620   I640    2.110   .     S
Cu621  Cu622   2.700   .     S
Cu621  O630    2.022   .     S
Cu621  N626    2.028   .     S
Cu621  O627    2.025   .     S
Cu621  O634    1.954   .     S
Cu621  O631    1.957   .     S
Cu622  N625    2.028   .     S
Cu622  O629    2.022   .     S
Cu622  O633    1.954   .     S
Cu622  O628    2.025   .     S
Cu622  O632    1.957   .     S
N626   N73     1.328   1_556 S
N626   I92     2.078   1_556 S
I641   C695    2.159   .     S
I642   C788    2.159   1_545 S
I643   N73     2.078   1_556 S
C645   O675    1.305   .     A
C645   O673    1.296   .     A
C645   C649    1.463   .     S
C646   O674    1.296   .     A
C646   C650    1.463   .     S
C646   O676    1.305   .     A
C647   C664    1.399   .     A
C647   H669    1.082   .     S
C647   C711    1.393   1_455 S
C648   H670    1.082   .     S
C648   C663    1.399   .     A
C648   C712    1.393   .     S
C650   C741    1.366   .     S
C650   I780    2.159   .     S
C651   O677    1.302   .     A
C651   C656    1.452   .     S
C651   O679    1.294   .     A
C652   C655    1.452   .     S
C652   O680    1.294   .     A
C652   O678    1.302   .     A
C653   C655    1.392   .     A
C653   C663    1.397   .     A
C653   I681    2.103   .     S
C654   I682    2.103   .     S
C654   C656    1.392   .     A
C654   C664    1.397   .     A
C655   C657    1.400   .     A
C656   C658    1.400   .     A
C657   C659    1.406   .     A
C657   I683    2.118   .     S
C658   C660    1.406   .     A
C658   I684    2.118   .     S
C659   C665    1.406   .     A
C659   C661    1.408   .     A
C660   C662    1.408   .     A
C660   C666    1.406   .     A
C661   C663    1.409   .     A
C661   C708    1.403   .     S
C662   C664    1.409   .     A
C662   C707    1.403   1_455 S
C665   I685    2.110   .     S
C665   C693    1.393   .     S
C666   I686    2.110   .     S
C666   C694    1.393   1_455 S
Cu667  Cu668   2.700   .     S
Cu667  O676    2.022   .     S
Cu667  N672    2.028   .     S
Cu667  O673    2.025   .     S
Cu667  O680    1.954   .     S
Cu667  O677    1.957   .     S
Cu668  N671    2.028   .     S
Cu668  O675    2.022   .     S
Cu668  O679    1.954   .     S
Cu668  O674    2.025   .     S
Cu668  O678    1.957   .     S
N672   N119    1.328   1_556 S
N672   I138    2.078   1_556 S
I687   C741    2.159   .     S
I689   N119    2.078   1_556 S
C691   O721    1.305   .     A
C691   O719    1.296   .     A
C691   C695    1.463   .     S
C692   O720    1.296   .     A
C692   C696    1.463   .     S
C692   O722    1.305   .     A
C693   C710    1.399   .     A
C693   H715    1.082   .     S
C694   H716    1.082   .     S
C694   C709    1.399   .     A
C694   C666    1.393   1_655 S
C696   C787    1.366   .     S
C696   I826    2.159   .     S
C697   O723    1.302   .     A
C697   C702    1.452   .     S
C697   O725    1.294   .     A
C698   C701    1.452   .     S
C698   O726    1.294   .     A
C698   O724    1.302   .     A
C699   C701    1.392   .     A
C699   C709    1.397   .     A
C699   I727    2.103   .     S
C700   I728    2.103   .     S
C700   C702    1.392   .     A
C700   C710    1.397   .     A
C701   C703    1.400   .     A
C702   C704    1.400   .     A
C703   C705    1.406   .     A
C703   I729    2.118   .     S
C704   C706    1.406   .     A
C704   I730    2.118   .     S
C705   C711    1.406   .     A
C705   C707    1.408   .     A
C706   C708    1.408   .     A
C706   C712    1.406   .     A
C707   C709    1.409   .     A
C707   C662    1.403   1_655 S
C708   C710    1.409   .     A
C711   I731    2.110   .     S
C711   C647    1.393   1_655 S
C712   I732    2.110   .     S
Cu713  Cu714   2.700   .     S
Cu713  O722    2.022   .     S
Cu713  N718    2.028   .     S
Cu713  O719    2.025   .     S
Cu713  O726    1.954   .     S
Cu713  O723    1.957   .     S
Cu714  N717    2.028   .     S
Cu714  O721    2.022   .     S
Cu714  O725    1.954   .     S
Cu714  O720    2.025   .     S
Cu714  O724    1.957   .     S
N718   N165    1.328   1_556 S
N718   I184    2.078   1_556 S
I733   C787    2.159   .     S
I735   N165    2.078   1_556 S
C737   O767    1.305   .     A
C737   O765    1.296   .     A
C737   C741    1.463   .     S
C738   O766    1.296   .     A
C738   C742    1.463   .     S
C738   O768    1.305   .     A
C739   C756    1.399   .     A
C739   H761    1.082   .     S
C739   C803    1.393   1_455 S
C740   H762    1.082   .     S
C740   C755    1.399   .     A
C740   C804    1.393   .     S
C742   C557    1.366   1_565 S
C742   I596    2.159   1_565 S
C743   O769    1.302   .     A
C743   C748    1.452   .     S
C743   O771    1.294   .     A
C744   C747    1.452   .     S
C744   O772    1.294   .     A
C744   O770    1.302   .     A
C745   C747    1.392   .     A
C745   C755    1.397   .     A
C745   I773    2.103   .     S
C746   I774    2.103   .     S
C746   C748    1.392   .     A
C746   C756    1.397   .     A
C747   C749    1.400   .     A
C748   C750    1.400   .     A
C749   C751    1.406   .     A
C749   I775    2.118   .     S
C750   C752    1.406   .     A
C750   I776    2.118   .     S
C751   C757    1.406   .     A
C751   C753    1.408   .     A
C752   C754    1.408   .     A
C752   C758    1.406   .     A
C753   C755    1.409   .     A
C753   C800    1.403   .     S
C754   C756    1.409   .     A
C754   C799    1.403   1_455 S
C757   I777    2.110   .     S
C757   C785    1.393   .     S
C758   I778    2.110   .     S
C758   C786    1.393   1_455 S
Cu759  Cu760   2.700   .     S
Cu759  O768    2.022   .     S
Cu759  N764    2.028   .     S
Cu759  O765    2.025   .     S
Cu759  O772    1.954   .     S
Cu759  O769    1.957   .     S
Cu760  N763    2.028   .     S
Cu760  O767    2.022   .     S
Cu760  O771    1.954   .     S
Cu760  O766    2.025   .     S
Cu760  O770    1.957   .     S
N764   N211    1.328   1_556 S
N764   I230    2.078   1_556 S
I779   C557    2.159   1_565 S
I781   N211    2.078   1_556 S
C783   O813    1.305   .     A
C783   O811    1.296   .     A
C783   C787    1.463   .     S
C784   O812    1.296   .     A
C784   C788    1.463   .     S
C784   O814    1.305   .     A
C785   C802    1.399   .     A
C785   H807    1.082   .     S
C786   H808    1.082   .     S
C786   C801    1.399   .     A
C786   C758    1.393   1_655 S
C788   C603    1.366   1_565 S
C788   I642    2.159   1_565 S
C789   O815    1.302   .     A
C789   C794    1.452   .     S
C789   O817    1.294   .     A
C790   C793    1.452   .     S
C790   O818    1.294   .     A
C790   O816    1.302   .     A
C791   C793    1.392   .     A
C791   C801    1.397   .     A
C791   I819    2.103   .     S
C792   I820    2.103   .     S
C792   C794    1.392   .     A
C792   C802    1.397   .     A
C793   C795    1.400   .     A
C794   C796    1.400   .     A
C795   C797    1.406   .     A
C795   I821    2.118   .     S
C796   C798    1.406   .     A
C796   I822    2.118   .     S
C797   C803    1.406   .     A
C797   C799    1.408   .     A
C798   C800    1.408   .     A
C798   C804    1.406   .     A
C799   C801    1.409   .     A
C799   C754    1.403   1_655 S
C800   C802    1.409   .     A
C803   I823    2.110   .     S
C803   C739    1.393   1_655 S
C804   I824    2.110   .     S
Cu805  Cu806   2.700   .     S
Cu805  O814    2.022   .     S
Cu805  N810    2.028   .     S
Cu805  O811    2.025   .     S
Cu805  O818    1.954   .     S
Cu805  O815    1.957   .     S
Cu806  N809    2.028   .     S
Cu806  O813    2.022   .     S
Cu806  O817    1.954   .     S
Cu806  O812    2.025   .     S
Cu806  O816    1.957   .     S
N810   N257    1.328   1_556 S
N810   I276    2.078   1_556 S
I825   C603    2.159   1_565 S
I827   N257    2.078   1_556 S
