data_str_m2_o10_o17_pcu_sym.199
_audit_creation_date              2020-01-03
_audit_creation_method            'Materials Studio'
_symmetry_space_group_name_H-M    'P1'
_symmetry_Int_Tables_number       1
_symmetry_cell_setting            triclinic
loop_
_symmetry_equiv_pos_as_xyz
  x,y,z
_cell_length_a                    30.0918
_cell_length_b                    26.3904
_cell_length_c                    22.8471
_cell_angle_alpha                 103.7539
_cell_angle_beta                  95.4099
_cell_angle_gamma                 95.0039
loop_
_atom_site_label
_atom_site_type_symbol
_atom_site_fract_x
_atom_site_fract_y
_atom_site_fract_z
_atom_site_U_iso_or_equiv
_atom_site_adp_type
_atom_site_occupancy
C1     C     0.24774   0.06686   0.15116   0.00000  Uiso   1.00
C2     C     0.25224   0.26647   0.18217   0.00000  Uiso   1.00
C3     C     0.01586   0.07568   0.11149   0.00000  Uiso   1.00
C4     C     0.48391   0.25664   0.22172   0.00000  Uiso   1.00
C5     C     0.24354   0.01084   0.14329   0.00000  Uiso   1.00
C6     C     0.25637   0.32248   0.19002   0.00000  Uiso   1.00
C7     C     0.16485   0.16847   0.16704   0.00000  Uiso   1.00
C8     C     0.33508   0.16459   0.16624   0.00000  Uiso   1.00
C9     C     0.41125   0.20656   0.19889   0.00000  Uiso   1.00
C10    C     0.08865   0.12587   0.13472   0.00000  Uiso   1.00
C11    C     0.38326   0.16222   0.16622   0.00000  Uiso   1.00
C12    C     0.11658   0.17049   0.16701   0.00000  Uiso   1.00
C13    C     0.40137   0.11791   0.13327   0.00000  Uiso   1.00
C14    C     0.09832   0.21486   0.19951   0.00000  Uiso   1.00
C15    C     0.44873   0.11696   0.13847   0.00000  Uiso   1.00
C16    C     0.05095   0.21541   0.19453   0.00000  Uiso   1.00
C17    C     0.47644   0.16450   0.16722   0.00000  Uiso   1.00
C18    C     0.02333   0.16772   0.16628   0.00000  Uiso   1.00
C19    C     0.45731   0.20903   0.19695   0.00000  Uiso   1.00
C20    C     0.04253   0.12323   0.13665   0.00000  Uiso   1.00
C21    C     0.46971   0.07107   0.11506   0.00000  Uiso   1.00
C22    C     0.02995   0.26128   0.21749   0.00000  Uiso   1.00
Cu23   Cu    0.25500   0.17246   0.22813   0.00000  Uiso   1.00
Cu24   Cu    0.24499   0.16087   0.10521   0.00000  Uiso   1.00
H25    H     0.39666   0.24066   0.22269   0.00000  Uiso   1.00
H26    H     0.10334   0.09180   0.11104   0.00000  Uiso   1.00
H27    H     0.03164   0.04104   0.09228   0.00000  Uiso   1.00
H28    H     0.46809   0.29139   0.24047   0.00000  Uiso   1.00
N29    N     0.23744   0.15214   0.01284   0.00000  Uiso   1.00
N30    N     0.26255   0.18119   0.32049   0.00000  Uiso   1.00
O31    O     0.25325   0.09538   0.20659   0.00000  Uiso   1.00
O32    O     0.24674   0.23796   0.12674   0.00000  Uiso   1.00
O33    O     0.24480   0.08559   0.10279   0.00000  Uiso   1.00
O34    O     0.25520   0.24774   0.23055   0.00000  Uiso   1.00
O35    O     0.18935   0.17155   0.21857   0.00000  Uiso   1.00
O36    O     0.31064   0.16179   0.11476   0.00000  Uiso   1.00
O37    O     0.18090   0.16176   0.11477   0.00000  Uiso   1.00
O38    O     0.31910   0.17157   0.21857   0.00000  Uiso   1.00
C39    C     0.37132   0.07623   0.08866   0.00000  Uiso   1.00
O40    O     0.37852   0.06495   0.03559   0.00000  Uiso   1.00
O41    O     0.33596   0.04880   0.10754   0.00000  Uiso   1.00
H42    H     0.31892   0.02016   0.07312   0.00000  Uiso   1.00
C43    C     0.12822   0.25722   0.24348   0.00000  Uiso   1.00
O44    O     0.12090   0.26940   0.29648   0.00000  Uiso   1.00
O45    O     0.16367   0.28408   0.22416   0.00000  Uiso   1.00
H46    H     0.18082   0.31287   0.25833   0.00000  Uiso   1.00
C47    C     0.44667   0.01679   0.10114   0.00000  Uiso   1.00
O48    O     0.42139   0.00419   0.13546   0.00000  Uiso   1.00
O49    O     0.45573   0.31268   0.05041   0.00000  Uiso   1.00
H50    H     0.43852   0.27696   0.04618   0.00000  Uiso   1.00
C51    C     0.05264   0.31536   0.22797   0.00000  Uiso   1.00
O52    O     0.04605   0.01622   0.27184   0.00000  Uiso   1.00
O53    O     0.07944   0.32780   0.18547   0.00000  Uiso   1.00
H54    H     0.09044   0.03325   0.19514   0.00000  Uiso   1.00
C55    C     0.22308   0.31398   0.08358   0.00000  Uiso   1.00
N56    N     0.20706   0.29003   0.03594   0.00000  Uiso   1.00
C57    C     0.27664   0.01935   0.24979   0.00000  Uiso   1.00
N58    N     0.29247   0.04334   0.29749   0.00000  Uiso   1.00
C59    C     0.20201   0.11080   0.31748   0.00000  Uiso   1.00
O60    O     0.18303   0.08726   0.01637   0.00000  Uiso   1.00
O61    O     0.18735   0.09559   0.25609   0.00000  Uiso   1.00
H62    H     0.16226   0.06558   0.24476   0.00000  Uiso   1.00
C63    C     0.29814   0.22245   0.01586   0.00000  Uiso   1.00
O64    O     0.31720   0.24584   0.31691   0.00000  Uiso   1.00
O65    O     0.31287   0.23774   0.07729   0.00000  Uiso   1.00
H66    H     0.33893   0.26670   0.08846   0.00000  Uiso   1.00
C67    C     0.74774   0.06686   0.15116   0.00000  Uiso   1.00
C68    C     0.75224   0.26647   0.18217   0.00000  Uiso   1.00
C69    C     0.51586   0.07568   0.11149   0.00000  Uiso   1.00
C70    C     0.98391   0.25664   0.22172   0.00000  Uiso   1.00
C71    C     0.74354   0.01084   0.14329   0.00000  Uiso   1.00
C72    C     0.75637   0.32248   0.19002   0.00000  Uiso   1.00
C73    C     0.66485   0.16847   0.16704   0.00000  Uiso   1.00
C74    C     0.83508   0.16459   0.16624   0.00000  Uiso   1.00
C75    C     0.91125   0.20656   0.19889   0.00000  Uiso   1.00
C76    C     0.58865   0.12587   0.13472   0.00000  Uiso   1.00
C77    C     0.88326   0.16222   0.16622   0.00000  Uiso   1.00
C78    C     0.61658   0.17049   0.16701   0.00000  Uiso   1.00
C79    C     0.90137   0.11791   0.13327   0.00000  Uiso   1.00
C80    C     0.59832   0.21486   0.19951   0.00000  Uiso   1.00
C81    C     0.94873   0.11696   0.13847   0.00000  Uiso   1.00
C82    C     0.55095   0.21541   0.19453   0.00000  Uiso   1.00
C83    C     0.97644   0.16450   0.16722   0.00000  Uiso   1.00
C84    C     0.52333   0.16772   0.16628   0.00000  Uiso   1.00
C85    C     0.95731   0.20903   0.19695   0.00000  Uiso   1.00
C86    C     0.54253   0.12323   0.13665   0.00000  Uiso   1.00
C87    C     0.96971   0.07107   0.11506   0.00000  Uiso   1.00
C88    C     0.52995   0.26128   0.21749   0.00000  Uiso   1.00
Cu89   Cu    0.75500   0.17246   0.22813   0.00000  Uiso   1.00
Cu90   Cu    0.74499   0.16087   0.10521   0.00000  Uiso   1.00
H91    H     0.89666   0.24066   0.22269   0.00000  Uiso   1.00
H92    H     0.60334   0.09180   0.11104   0.00000  Uiso   1.00
H93    H     0.53164   0.04104   0.09228   0.00000  Uiso   1.00
H94    H     0.96809   0.29139   0.24047   0.00000  Uiso   1.00
N95    N     0.73744   0.15214   0.01284   0.00000  Uiso   1.00
N96    N     0.76255   0.18119   0.32049   0.00000  Uiso   1.00
O97    O     0.75325   0.09538   0.20659   0.00000  Uiso   1.00
O98    O     0.74674   0.23796   0.12674   0.00000  Uiso   1.00
O99    O     0.74480   0.08559   0.10279   0.00000  Uiso   1.00
O100   O     0.75520   0.24774   0.23055   0.00000  Uiso   1.00
O101   O     0.68935   0.17155   0.21857   0.00000  Uiso   1.00
O102   O     0.81064   0.16179   0.11476   0.00000  Uiso   1.00
O103   O     0.68090   0.16176   0.11477   0.00000  Uiso   1.00
O104   O     0.81910   0.17157   0.21857   0.00000  Uiso   1.00
C105   C     0.87132   0.07623   0.08866   0.00000  Uiso   1.00
O106   O     0.87852   0.06495   0.03559   0.00000  Uiso   1.00
O107   O     0.83596   0.04880   0.10754   0.00000  Uiso   1.00
H108   H     0.81892   0.02016   0.07312   0.00000  Uiso   1.00
C109   C     0.62822   0.25722   0.24348   0.00000  Uiso   1.00
O110   O     0.62090   0.26940   0.29648   0.00000  Uiso   1.00
O111   O     0.66367   0.28408   0.22416   0.00000  Uiso   1.00
H112   H     0.68082   0.31287   0.25833   0.00000  Uiso   1.00
C113   C     0.94667   0.01679   0.10114   0.00000  Uiso   1.00
O114   O     0.92139   0.00419   0.13546   0.00000  Uiso   1.00
O115   O     0.95573   0.31268   0.05041   0.00000  Uiso   1.00
H116   H     0.93852   0.27696   0.04618   0.00000  Uiso   1.00
C117   C     0.55264   0.31536   0.22797   0.00000  Uiso   1.00
O118   O     0.54605   0.01622   0.27184   0.00000  Uiso   1.00
O119   O     0.57944   0.32780   0.18547   0.00000  Uiso   1.00
H120   H     0.59044   0.03325   0.19514   0.00000  Uiso   1.00
C121   C     0.72308   0.31398   0.08358   0.00000  Uiso   1.00
N122   N     0.70706   0.29003   0.03594   0.00000  Uiso   1.00
C123   C     0.77664   0.01935   0.24979   0.00000  Uiso   1.00
N124   N     0.79247   0.04334   0.29749   0.00000  Uiso   1.00
C125   C     0.70201   0.11080   0.31748   0.00000  Uiso   1.00
O126   O     0.68303   0.08726   0.01637   0.00000  Uiso   1.00
O127   O     0.68735   0.09559   0.25609   0.00000  Uiso   1.00
H128   H     0.66226   0.06558   0.24476   0.00000  Uiso   1.00
C129   C     0.79814   0.22245   0.01586   0.00000  Uiso   1.00
O130   O     0.81720   0.24584   0.31691   0.00000  Uiso   1.00
O131   O     0.81287   0.23774   0.07729   0.00000  Uiso   1.00
H132   H     0.83893   0.26670   0.08846   0.00000  Uiso   1.00
C133   C     0.24774   0.40019   0.15116   0.00000  Uiso   1.00
C134   C     0.25224   0.59980   0.18217   0.00000  Uiso   1.00
C135   C     0.01586   0.40902   0.11149   0.00000  Uiso   1.00
C136   C     0.48391   0.58997   0.22172   0.00000  Uiso   1.00
C137   C     0.24354   0.34417   0.14329   0.00000  Uiso   1.00
C138   C     0.25637   0.65581   0.19002   0.00000  Uiso   1.00
C139   C     0.16485   0.50180   0.16704   0.00000  Uiso   1.00
C140   C     0.33508   0.49792   0.16624   0.00000  Uiso   1.00
C141   C     0.41125   0.53990   0.19889   0.00000  Uiso   1.00
C142   C     0.08865   0.45921   0.13472   0.00000  Uiso   1.00
C143   C     0.38326   0.49555   0.16622   0.00000  Uiso   1.00
C144   C     0.11658   0.50382   0.16701   0.00000  Uiso   1.00
C145   C     0.40137   0.45125   0.13327   0.00000  Uiso   1.00
C146   C     0.09832   0.54819   0.19951   0.00000  Uiso   1.00
C147   C     0.44873   0.45030   0.13847   0.00000  Uiso   1.00
C148   C     0.05095   0.54875   0.19453   0.00000  Uiso   1.00
C149   C     0.47644   0.49783   0.16722   0.00000  Uiso   1.00
C150   C     0.02333   0.50105   0.16628   0.00000  Uiso   1.00
C151   C     0.45731   0.54237   0.19695   0.00000  Uiso   1.00
C152   C     0.04253   0.45656   0.13665   0.00000  Uiso   1.00
C153   C     0.46971   0.40440   0.11506   0.00000  Uiso   1.00
C154   C     0.02995   0.59461   0.21749   0.00000  Uiso   1.00
Cu155  Cu    0.25500   0.50579   0.22813   0.00000  Uiso   1.00
Cu156  Cu    0.24499   0.49421   0.10521   0.00000  Uiso   1.00
H157   H     0.39666   0.57400   0.22269   0.00000  Uiso   1.00
H158   H     0.10334   0.42514   0.11104   0.00000  Uiso   1.00
H159   H     0.03164   0.37437   0.09228   0.00000  Uiso   1.00
H160   H     0.46809   0.62472   0.24047   0.00000  Uiso   1.00
N161   N     0.23744   0.48547   0.01284   0.00000  Uiso   1.00
N162   N     0.26255   0.51453   0.32049   0.00000  Uiso   1.00
O163   O     0.25325   0.42871   0.20659   0.00000  Uiso   1.00
O164   O     0.24674   0.57129   0.12674   0.00000  Uiso   1.00
O165   O     0.24480   0.41892   0.10279   0.00000  Uiso   1.00
O166   O     0.25520   0.58108   0.23055   0.00000  Uiso   1.00
O167   O     0.18935   0.50488   0.21857   0.00000  Uiso   1.00
O168   O     0.31064   0.49512   0.11476   0.00000  Uiso   1.00
O169   O     0.18090   0.49510   0.11477   0.00000  Uiso   1.00
O170   O     0.31910   0.50490   0.21857   0.00000  Uiso   1.00
C171   C     0.37132   0.40956   0.08866   0.00000  Uiso   1.00
O172   O     0.37852   0.39828   0.03559   0.00000  Uiso   1.00
O173   O     0.33596   0.38214   0.10754   0.00000  Uiso   1.00
H174   H     0.31892   0.35349   0.07312   0.00000  Uiso   1.00
C175   C     0.12822   0.59055   0.24348   0.00000  Uiso   1.00
O176   O     0.12090   0.60273   0.29648   0.00000  Uiso   1.00
O177   O     0.16367   0.61741   0.22416   0.00000  Uiso   1.00
H178   H     0.18082   0.64620   0.25833   0.00000  Uiso   1.00
C179   C     0.44667   0.35012   0.10114   0.00000  Uiso   1.00
O180   O     0.42139   0.33752   0.13546   0.00000  Uiso   1.00
O181   O     0.45573   0.64601   0.05041   0.00000  Uiso   1.00
H182   H     0.43852   0.61029   0.04618   0.00000  Uiso   1.00
C183   C     0.05264   0.64869   0.22797   0.00000  Uiso   1.00
O184   O     0.04605   0.34956   0.27184   0.00000  Uiso   1.00
O185   O     0.07944   0.66113   0.18547   0.00000  Uiso   1.00
H186   H     0.09044   0.36658   0.19514   0.00000  Uiso   1.00
C187   C     0.22308   0.64731   0.08358   0.00000  Uiso   1.00
N188   N     0.20706   0.62337   0.03594   0.00000  Uiso   1.00
C189   C     0.27664   0.35268   0.24979   0.00000  Uiso   1.00
N190   N     0.29247   0.37667   0.29749   0.00000  Uiso   1.00
C191   C     0.20201   0.44413   0.31748   0.00000  Uiso   1.00
O192   O     0.18303   0.42060   0.01637   0.00000  Uiso   1.00
O193   O     0.18735   0.42892   0.25609   0.00000  Uiso   1.00
H194   H     0.16226   0.39891   0.24476   0.00000  Uiso   1.00
C195   C     0.29814   0.55578   0.01586   0.00000  Uiso   1.00
O196   O     0.31720   0.57917   0.31691   0.00000  Uiso   1.00
O197   O     0.31287   0.57107   0.07729   0.00000  Uiso   1.00
H198   H     0.33893   0.60003   0.08846   0.00000  Uiso   1.00
C199   C     0.74774   0.40019   0.15116   0.00000  Uiso   1.00
C200   C     0.75224   0.59980   0.18217   0.00000  Uiso   1.00
C201   C     0.51586   0.40902   0.11149   0.00000  Uiso   1.00
C202   C     0.98391   0.58997   0.22172   0.00000  Uiso   1.00
C203   C     0.74354   0.34417   0.14329   0.00000  Uiso   1.00
C204   C     0.75637   0.65581   0.19002   0.00000  Uiso   1.00
C205   C     0.66485   0.50180   0.16704   0.00000  Uiso   1.00
C206   C     0.83508   0.49792   0.16624   0.00000  Uiso   1.00
C207   C     0.91125   0.53990   0.19889   0.00000  Uiso   1.00
C208   C     0.58865   0.45921   0.13472   0.00000  Uiso   1.00
C209   C     0.88326   0.49555   0.16622   0.00000  Uiso   1.00
C210   C     0.61658   0.50382   0.16701   0.00000  Uiso   1.00
C211   C     0.90137   0.45125   0.13327   0.00000  Uiso   1.00
C212   C     0.59832   0.54819   0.19951   0.00000  Uiso   1.00
C213   C     0.94873   0.45030   0.13847   0.00000  Uiso   1.00
C214   C     0.55095   0.54875   0.19453   0.00000  Uiso   1.00
C215   C     0.97644   0.49783   0.16722   0.00000  Uiso   1.00
C216   C     0.52333   0.50105   0.16628   0.00000  Uiso   1.00
C217   C     0.95731   0.54237   0.19695   0.00000  Uiso   1.00
C218   C     0.54253   0.45656   0.13665   0.00000  Uiso   1.00
C219   C     0.96971   0.40440   0.11506   0.00000  Uiso   1.00
C220   C     0.52995   0.59461   0.21749   0.00000  Uiso   1.00
Cu221  Cu    0.75500   0.50579   0.22813   0.00000  Uiso   1.00
Cu222  Cu    0.74499   0.49421   0.10521   0.00000  Uiso   1.00
H223   H     0.89666   0.57400   0.22269   0.00000  Uiso   1.00
H224   H     0.60334   0.42514   0.11104   0.00000  Uiso   1.00
H225   H     0.53164   0.37437   0.09228   0.00000  Uiso   1.00
H226   H     0.96809   0.62472   0.24047   0.00000  Uiso   1.00
N227   N     0.73744   0.48547   0.01284   0.00000  Uiso   1.00
N228   N     0.76255   0.51453   0.32049   0.00000  Uiso   1.00
O229   O     0.75325   0.42871   0.20659   0.00000  Uiso   1.00
O230   O     0.74674   0.57129   0.12674   0.00000  Uiso   1.00
O231   O     0.74480   0.41892   0.10279   0.00000  Uiso   1.00
O232   O     0.75520   0.58108   0.23055   0.00000  Uiso   1.00
O233   O     0.68935   0.50488   0.21857   0.00000  Uiso   1.00
O234   O     0.81064   0.49512   0.11476   0.00000  Uiso   1.00
O235   O     0.68090   0.49510   0.11477   0.00000  Uiso   1.00
O236   O     0.81910   0.50490   0.21857   0.00000  Uiso   1.00
C237   C     0.87132   0.40956   0.08866   0.00000  Uiso   1.00
O238   O     0.87852   0.39828   0.03559   0.00000  Uiso   1.00
O239   O     0.83596   0.38214   0.10754   0.00000  Uiso   1.00
H240   H     0.81892   0.35349   0.07312   0.00000  Uiso   1.00
C241   C     0.62822   0.59055   0.24348   0.00000  Uiso   1.00
O242   O     0.62090   0.60273   0.29648   0.00000  Uiso   1.00
O243   O     0.66367   0.61741   0.22416   0.00000  Uiso   1.00
H244   H     0.68082   0.64620   0.25833   0.00000  Uiso   1.00
C245   C     0.94667   0.35012   0.10114   0.00000  Uiso   1.00
O246   O     0.92139   0.33752   0.13546   0.00000  Uiso   1.00
O247   O     0.95573   0.64601   0.05041   0.00000  Uiso   1.00
H248   H     0.93852   0.61029   0.04618   0.00000  Uiso   1.00
C249   C     0.55264   0.64869   0.22797   0.00000  Uiso   1.00
O250   O     0.54605   0.34956   0.27184   0.00000  Uiso   1.00
O251   O     0.57944   0.66113   0.18547   0.00000  Uiso   1.00
H252   H     0.59044   0.36658   0.19514   0.00000  Uiso   1.00
C253   C     0.72308   0.64731   0.08358   0.00000  Uiso   1.00
N254   N     0.70706   0.62337   0.03594   0.00000  Uiso   1.00
C255   C     0.77664   0.35268   0.24979   0.00000  Uiso   1.00
N256   N     0.79247   0.37667   0.29749   0.00000  Uiso   1.00
C257   C     0.70201   0.44413   0.31748   0.00000  Uiso   1.00
O258   O     0.68303   0.42060   0.01637   0.00000  Uiso   1.00
O259   O     0.68735   0.42892   0.25609   0.00000  Uiso   1.00
H260   H     0.66226   0.39891   0.24476   0.00000  Uiso   1.00
C261   C     0.79814   0.55578   0.01586   0.00000  Uiso   1.00
O262   O     0.81720   0.57917   0.31691   0.00000  Uiso   1.00
O263   O     0.81287   0.57107   0.07729   0.00000  Uiso   1.00
H264   H     0.83893   0.60003   0.08846   0.00000  Uiso   1.00
C265   C     0.24774   0.73352   0.15116   0.00000  Uiso   1.00
C266   C     0.25224   0.93314   0.18217   0.00000  Uiso   1.00
C267   C     0.01586   0.74235   0.11149   0.00000  Uiso   1.00
C268   C     0.48391   0.92330   0.22172   0.00000  Uiso   1.00
C269   C     0.24354   0.67751   0.14329   0.00000  Uiso   1.00
C270   C     0.25637   0.98914   0.19002   0.00000  Uiso   1.00
C271   C     0.16485   0.83513   0.16704   0.00000  Uiso   1.00
C272   C     0.33508   0.83125   0.16624   0.00000  Uiso   1.00
C273   C     0.41125   0.87323   0.19889   0.00000  Uiso   1.00
C274   C     0.08865   0.79254   0.13472   0.00000  Uiso   1.00
C275   C     0.38326   0.82889   0.16622   0.00000  Uiso   1.00
C276   C     0.11658   0.83716   0.16701   0.00000  Uiso   1.00
C277   C     0.40137   0.78458   0.13327   0.00000  Uiso   1.00
C278   C     0.09832   0.88152   0.19951   0.00000  Uiso   1.00
C279   C     0.44873   0.78363   0.13847   0.00000  Uiso   1.00
C280   C     0.05095   0.88208   0.19453   0.00000  Uiso   1.00
C281   C     0.47644   0.83116   0.16722   0.00000  Uiso   1.00
C282   C     0.02333   0.83439   0.16628   0.00000  Uiso   1.00
C283   C     0.45731   0.87570   0.19695   0.00000  Uiso   1.00
C284   C     0.04253   0.78990   0.13665   0.00000  Uiso   1.00
C285   C     0.46971   0.73774   0.11506   0.00000  Uiso   1.00
C286   C     0.02995   0.92795   0.21749   0.00000  Uiso   1.00
Cu287  Cu    0.25500   0.83913   0.22813   0.00000  Uiso   1.00
Cu288  Cu    0.24499   0.82754   0.10521   0.00000  Uiso   1.00
H289   H     0.39666   0.90733   0.22269   0.00000  Uiso   1.00
H290   H     0.10334   0.75847   0.11104   0.00000  Uiso   1.00
H291   H     0.03164   0.70770   0.09228   0.00000  Uiso   1.00
H292   H     0.46809   0.95805   0.24047   0.00000  Uiso   1.00
N293   N     0.23744   0.81881   0.01284   0.00000  Uiso   1.00
N294   N     0.26255   0.84786   0.32049   0.00000  Uiso   1.00
O295   O     0.25325   0.76204   0.20659   0.00000  Uiso   1.00
O296   O     0.24674   0.90462   0.12674   0.00000  Uiso   1.00
O297   O     0.24480   0.75226   0.10279   0.00000  Uiso   1.00
O298   O     0.25520   0.91441   0.23055   0.00000  Uiso   1.00
O299   O     0.18935   0.83821   0.21857   0.00000  Uiso   1.00
O300   O     0.31064   0.82845   0.11476   0.00000  Uiso   1.00
O301   O     0.18090   0.82843   0.11477   0.00000  Uiso   1.00
O302   O     0.31910   0.83824   0.21857   0.00000  Uiso   1.00
C303   C     0.37132   0.74289   0.08866   0.00000  Uiso   1.00
O304   O     0.37852   0.73162   0.03559   0.00000  Uiso   1.00
O305   O     0.33596   0.71547   0.10754   0.00000  Uiso   1.00
H306   H     0.31892   0.68683   0.07312   0.00000  Uiso   1.00
C307   C     0.12822   0.92388   0.24348   0.00000  Uiso   1.00
O308   O     0.12090   0.93606   0.29648   0.00000  Uiso   1.00
O309   O     0.16367   0.95075   0.22416   0.00000  Uiso   1.00
H310   H     0.18082   0.97953   0.25833   0.00000  Uiso   1.00
C311   C     0.44667   0.68345   0.10114   0.00000  Uiso   1.00
O312   O     0.42139   0.67086   0.13546   0.00000  Uiso   1.00
O313   O     0.45573   0.97934   0.05041   0.00000  Uiso   1.00
H314   H     0.43852   0.94362   0.04618   0.00000  Uiso   1.00
C315   C     0.05264   0.98202   0.22797   0.00000  Uiso   1.00
O316   O     0.04605   0.68289   0.27184   0.00000  Uiso   1.00
O317   O     0.07944   0.99446   0.18547   0.00000  Uiso   1.00
H318   H     0.09044   0.69992   0.19514   0.00000  Uiso   1.00
C319   C     0.22308   0.98064   0.08358   0.00000  Uiso   1.00
N320   N     0.20706   0.95670   0.03594   0.00000  Uiso   1.00
C321   C     0.27664   0.68602   0.24979   0.00000  Uiso   1.00
N322   N     0.29247   0.71001   0.29749   0.00000  Uiso   1.00
C323   C     0.20201   0.77746   0.31748   0.00000  Uiso   1.00
O324   O     0.18303   0.75393   0.01637   0.00000  Uiso   1.00
O325   O     0.18735   0.76225   0.25609   0.00000  Uiso   1.00
H326   H     0.16226   0.73225   0.24476   0.00000  Uiso   1.00
C327   C     0.29814   0.88911   0.01586   0.00000  Uiso   1.00
O328   O     0.31720   0.91251   0.31691   0.00000  Uiso   1.00
O329   O     0.31287   0.90440   0.07729   0.00000  Uiso   1.00
H330   H     0.33893   0.93336   0.08846   0.00000  Uiso   1.00
C331   C     0.74774   0.73352   0.15116   0.00000  Uiso   1.00
C332   C     0.75224   0.93314   0.18217   0.00000  Uiso   1.00
C333   C     0.51586   0.74235   0.11149   0.00000  Uiso   1.00
C334   C     0.98391   0.92330   0.22172   0.00000  Uiso   1.00
C335   C     0.74354   0.67751   0.14329   0.00000  Uiso   1.00
C336   C     0.75637   0.98914   0.19002   0.00000  Uiso   1.00
C337   C     0.66485   0.83513   0.16704   0.00000  Uiso   1.00
C338   C     0.83508   0.83125   0.16624   0.00000  Uiso   1.00
C339   C     0.91125   0.87323   0.19889   0.00000  Uiso   1.00
C340   C     0.58865   0.79254   0.13472   0.00000  Uiso   1.00
C341   C     0.88326   0.82889   0.16622   0.00000  Uiso   1.00
C342   C     0.61658   0.83716   0.16701   0.00000  Uiso   1.00
C343   C     0.90137   0.78458   0.13327   0.00000  Uiso   1.00
C344   C     0.59832   0.88152   0.19951   0.00000  Uiso   1.00
C345   C     0.94873   0.78363   0.13847   0.00000  Uiso   1.00
C346   C     0.55095   0.88208   0.19453   0.00000  Uiso   1.00
C347   C     0.97644   0.83116   0.16722   0.00000  Uiso   1.00
C348   C     0.52333   0.83439   0.16628   0.00000  Uiso   1.00
C349   C     0.95731   0.87570   0.19695   0.00000  Uiso   1.00
C350   C     0.54253   0.78990   0.13665   0.00000  Uiso   1.00
C351   C     0.96971   0.73774   0.11506   0.00000  Uiso   1.00
C352   C     0.52995   0.92795   0.21749   0.00000  Uiso   1.00
Cu353  Cu    0.75500   0.83913   0.22813   0.00000  Uiso   1.00
Cu354  Cu    0.74499   0.82754   0.10521   0.00000  Uiso   1.00
H355   H     0.89666   0.90733   0.22269   0.00000  Uiso   1.00
H356   H     0.60334   0.75847   0.11104   0.00000  Uiso   1.00
H357   H     0.53164   0.70770   0.09228   0.00000  Uiso   1.00
H358   H     0.96809   0.95805   0.24047   0.00000  Uiso   1.00
N359   N     0.73744   0.81881   0.01284   0.00000  Uiso   1.00
N360   N     0.76255   0.84786   0.32049   0.00000  Uiso   1.00
O361   O     0.75325   0.76204   0.20659   0.00000  Uiso   1.00
O362   O     0.74674   0.90462   0.12674   0.00000  Uiso   1.00
O363   O     0.74480   0.75226   0.10279   0.00000  Uiso   1.00
O364   O     0.75520   0.91441   0.23055   0.00000  Uiso   1.00
O365   O     0.68935   0.83821   0.21857   0.00000  Uiso   1.00
O366   O     0.81064   0.82845   0.11476   0.00000  Uiso   1.00
O367   O     0.68090   0.82843   0.11477   0.00000  Uiso   1.00
O368   O     0.81910   0.83824   0.21857   0.00000  Uiso   1.00
C369   C     0.87132   0.74289   0.08866   0.00000  Uiso   1.00
O370   O     0.87852   0.73162   0.03559   0.00000  Uiso   1.00
O371   O     0.83596   0.71547   0.10754   0.00000  Uiso   1.00
H372   H     0.81892   0.68683   0.07312   0.00000  Uiso   1.00
C373   C     0.62822   0.92388   0.24348   0.00000  Uiso   1.00
O374   O     0.62090   0.93606   0.29648   0.00000  Uiso   1.00
O375   O     0.66367   0.95075   0.22416   0.00000  Uiso   1.00
H376   H     0.68082   0.97953   0.25833   0.00000  Uiso   1.00
C377   C     0.94667   0.68345   0.10114   0.00000  Uiso   1.00
O378   O     0.92139   0.67086   0.13546   0.00000  Uiso   1.00
O379   O     0.95573   0.97934   0.05041   0.00000  Uiso   1.00
H380   H     0.93852   0.94362   0.04618   0.00000  Uiso   1.00
C381   C     0.55264   0.98202   0.22797   0.00000  Uiso   1.00
O382   O     0.54605   0.68289   0.27184   0.00000  Uiso   1.00
O383   O     0.57944   0.99446   0.18547   0.00000  Uiso   1.00
H384   H     0.59044   0.69992   0.19514   0.00000  Uiso   1.00
C385   C     0.72308   0.98064   0.08358   0.00000  Uiso   1.00
N386   N     0.70706   0.95670   0.03594   0.00000  Uiso   1.00
C387   C     0.77664   0.68602   0.24979   0.00000  Uiso   1.00
N388   N     0.79247   0.71001   0.29749   0.00000  Uiso   1.00
C389   C     0.70201   0.77746   0.31748   0.00000  Uiso   1.00
O390   O     0.68303   0.75393   0.01637   0.00000  Uiso   1.00
O391   O     0.68735   0.76225   0.25609   0.00000  Uiso   1.00
H392   H     0.66226   0.73225   0.24476   0.00000  Uiso   1.00
C393   C     0.79814   0.88911   0.01586   0.00000  Uiso   1.00
O394   O     0.81720   0.91251   0.31691   0.00000  Uiso   1.00
O395   O     0.81287   0.90440   0.07729   0.00000  Uiso   1.00
H396   H     0.83893   0.93336   0.08846   0.00000  Uiso   1.00
C397   C     0.24774   0.06686   0.48449   0.00000  Uiso   1.00
C398   C     0.25224   0.26647   0.51550   0.00000  Uiso   1.00
C399   C     0.01586   0.07568   0.44482   0.00000  Uiso   1.00
C400   C     0.48391   0.25664   0.55505   0.00000  Uiso   1.00
C401   C     0.24354   0.01084   0.47662   0.00000  Uiso   1.00
C402   C     0.25637   0.32248   0.52336   0.00000  Uiso   1.00
C403   C     0.16485   0.16847   0.50037   0.00000  Uiso   1.00
C404   C     0.33508   0.16459   0.49957   0.00000  Uiso   1.00
C405   C     0.41125   0.20656   0.53222   0.00000  Uiso   1.00
C406   C     0.08865   0.12587   0.46805   0.00000  Uiso   1.00
C407   C     0.38326   0.16222   0.49956   0.00000  Uiso   1.00
C408   C     0.11658   0.17049   0.50034   0.00000  Uiso   1.00
C409   C     0.40137   0.11791   0.46660   0.00000  Uiso   1.00
C410   C     0.09832   0.21486   0.53284   0.00000  Uiso   1.00
C411   C     0.44873   0.11696   0.47181   0.00000  Uiso   1.00
C412   C     0.05095   0.21541   0.52786   0.00000  Uiso   1.00
C413   C     0.47644   0.16450   0.50056   0.00000  Uiso   1.00
C414   C     0.02333   0.16772   0.49962   0.00000  Uiso   1.00
C415   C     0.45731   0.20903   0.53028   0.00000  Uiso   1.00
C416   C     0.04253   0.12323   0.46998   0.00000  Uiso   1.00
C417   C     0.46971   0.07107   0.44839   0.00000  Uiso   1.00
C418   C     0.02995   0.26128   0.55082   0.00000  Uiso   1.00
Cu419  Cu    0.25500   0.17246   0.56146   0.00000  Uiso   1.00
Cu420  Cu    0.24499   0.16087   0.43854   0.00000  Uiso   1.00
H421   H     0.39666   0.24066   0.55603   0.00000  Uiso   1.00
H422   H     0.10334   0.09180   0.44438   0.00000  Uiso   1.00
H423   H     0.03164   0.04104   0.42562   0.00000  Uiso   1.00
H424   H     0.46809   0.29139   0.57380   0.00000  Uiso   1.00
N425   N     0.23744   0.15214   0.34617   0.00000  Uiso   1.00
N426   N     0.26255   0.18119   0.65383   0.00000  Uiso   1.00
O427   O     0.25325   0.09538   0.53992   0.00000  Uiso   1.00
O428   O     0.24674   0.23796   0.46008   0.00000  Uiso   1.00
O429   O     0.24480   0.08559   0.43612   0.00000  Uiso   1.00
O430   O     0.25520   0.24774   0.56388   0.00000  Uiso   1.00
O431   O     0.18935   0.17155   0.55191   0.00000  Uiso   1.00
O432   O     0.31064   0.16179   0.44809   0.00000  Uiso   1.00
O433   O     0.18090   0.16176   0.44810   0.00000  Uiso   1.00
O434   O     0.31910   0.17157   0.55190   0.00000  Uiso   1.00
C435   C     0.37132   0.07623   0.42200   0.00000  Uiso   1.00
O436   O     0.37852   0.06495   0.36892   0.00000  Uiso   1.00
O437   O     0.33596   0.04880   0.44087   0.00000  Uiso   1.00
H438   H     0.31892   0.02016   0.40645   0.00000  Uiso   1.00
C439   C     0.12822   0.25722   0.57682   0.00000  Uiso   1.00
O440   O     0.12090   0.26940   0.62981   0.00000  Uiso   1.00
O441   O     0.16367   0.28408   0.55749   0.00000  Uiso   1.00
H442   H     0.18082   0.31287   0.59166   0.00000  Uiso   1.00
C443   C     0.44667   0.01679   0.43447   0.00000  Uiso   1.00
O444   O     0.42139   0.00419   0.46879   0.00000  Uiso   1.00
O445   O     0.45573   0.31268   0.38374   0.00000  Uiso   1.00
H446   H     0.43852   0.27696   0.37951   0.00000  Uiso   1.00
C447   C     0.05264   0.31536   0.56130   0.00000  Uiso   1.00
O448   O     0.04605   0.01622   0.60517   0.00000  Uiso   1.00
O449   O     0.07944   0.32780   0.51880   0.00000  Uiso   1.00
H450   H     0.09044   0.03325   0.52847   0.00000  Uiso   1.00
C451   C     0.22308   0.31398   0.41692   0.00000  Uiso   1.00
N452   N     0.20706   0.29003   0.36928   0.00000  Uiso   1.00
C453   C     0.27664   0.01935   0.58312   0.00000  Uiso   1.00
N454   N     0.29247   0.04334   0.63082   0.00000  Uiso   1.00
C455   C     0.20201   0.11080   0.65081   0.00000  Uiso   1.00
O456   O     0.18303   0.08726   0.34970   0.00000  Uiso   1.00
O457   O     0.18735   0.09559   0.58942   0.00000  Uiso   1.00
H458   H     0.16226   0.06558   0.57809   0.00000  Uiso   1.00
C459   C     0.29814   0.22245   0.34919   0.00000  Uiso   1.00
O460   O     0.31720   0.24584   0.65025   0.00000  Uiso   1.00
O461   O     0.31287   0.23774   0.41062   0.00000  Uiso   1.00
H462   H     0.33893   0.26670   0.42179   0.00000  Uiso   1.00
C463   C     0.74774   0.06686   0.48449   0.00000  Uiso   1.00
C464   C     0.75224   0.26647   0.51550   0.00000  Uiso   1.00
C465   C     0.51586   0.07568   0.44482   0.00000  Uiso   1.00
C466   C     0.98391   0.25664   0.55505   0.00000  Uiso   1.00
C467   C     0.74354   0.01084   0.47662   0.00000  Uiso   1.00
C468   C     0.75637   0.32248   0.52336   0.00000  Uiso   1.00
C469   C     0.66485   0.16847   0.50037   0.00000  Uiso   1.00
C470   C     0.83508   0.16459   0.49957   0.00000  Uiso   1.00
C471   C     0.91125   0.20656   0.53222   0.00000  Uiso   1.00
C472   C     0.58865   0.12587   0.46805   0.00000  Uiso   1.00
C473   C     0.88326   0.16222   0.49956   0.00000  Uiso   1.00
C474   C     0.61658   0.17049   0.50034   0.00000  Uiso   1.00
C475   C     0.90137   0.11791   0.46660   0.00000  Uiso   1.00
C476   C     0.59832   0.21486   0.53284   0.00000  Uiso   1.00
C477   C     0.94873   0.11696   0.47181   0.00000  Uiso   1.00
C478   C     0.55095   0.21541   0.52786   0.00000  Uiso   1.00
C479   C     0.97644   0.16450   0.50056   0.00000  Uiso   1.00
C480   C     0.52333   0.16772   0.49962   0.00000  Uiso   1.00
C481   C     0.95731   0.20903   0.53028   0.00000  Uiso   1.00
C482   C     0.54253   0.12323   0.46998   0.00000  Uiso   1.00
C483   C     0.96971   0.07107   0.44839   0.00000  Uiso   1.00
C484   C     0.52995   0.26128   0.55082   0.00000  Uiso   1.00
Cu485  Cu    0.75500   0.17246   0.56146   0.00000  Uiso   1.00
Cu486  Cu    0.74499   0.16087   0.43854   0.00000  Uiso   1.00
H487   H     0.89666   0.24066   0.55603   0.00000  Uiso   1.00
H488   H     0.60334   0.09180   0.44438   0.00000  Uiso   1.00
H489   H     0.53164   0.04104   0.42562   0.00000  Uiso   1.00
H490   H     0.96809   0.29139   0.57380   0.00000  Uiso   1.00
N491   N     0.73744   0.15214   0.34617   0.00000  Uiso   1.00
N492   N     0.76255   0.18119   0.65383   0.00000  Uiso   1.00
O493   O     0.75325   0.09538   0.53992   0.00000  Uiso   1.00
O494   O     0.74674   0.23796   0.46008   0.00000  Uiso   1.00
O495   O     0.74480   0.08559   0.43612   0.00000  Uiso   1.00
O496   O     0.75520   0.24774   0.56388   0.00000  Uiso   1.00
O497   O     0.68935   0.17155   0.55191   0.00000  Uiso   1.00
O498   O     0.81064   0.16179   0.44809   0.00000  Uiso   1.00
O499   O     0.68090   0.16176   0.44810   0.00000  Uiso   1.00
O500   O     0.81910   0.17157   0.55190   0.00000  Uiso   1.00
C501   C     0.87132   0.07623   0.42200   0.00000  Uiso   1.00
O502   O     0.87852   0.06495   0.36892   0.00000  Uiso   1.00
O503   O     0.83596   0.04880   0.44087   0.00000  Uiso   1.00
H504   H     0.81892   0.02016   0.40645   0.00000  Uiso   1.00
C505   C     0.62822   0.25722   0.57682   0.00000  Uiso   1.00
O506   O     0.62090   0.26940   0.62981   0.00000  Uiso   1.00
O507   O     0.66367   0.28408   0.55749   0.00000  Uiso   1.00
H508   H     0.68082   0.31287   0.59166   0.00000  Uiso   1.00
C509   C     0.94667   0.01679   0.43447   0.00000  Uiso   1.00
O510   O     0.92139   0.00419   0.46879   0.00000  Uiso   1.00
O511   O     0.95573   0.31268   0.38374   0.00000  Uiso   1.00
H512   H     0.93852   0.27696   0.37951   0.00000  Uiso   1.00
C513   C     0.55264   0.31536   0.56130   0.00000  Uiso   1.00
O514   O     0.54605   0.01622   0.60517   0.00000  Uiso   1.00
O515   O     0.57944   0.32780   0.51880   0.00000  Uiso   1.00
H516   H     0.59044   0.03325   0.52847   0.00000  Uiso   1.00
C517   C     0.72308   0.31398   0.41692   0.00000  Uiso   1.00
N518   N     0.70706   0.29003   0.36928   0.00000  Uiso   1.00
C519   C     0.77664   0.01935   0.58312   0.00000  Uiso   1.00
N520   N     0.79247   0.04334   0.63082   0.00000  Uiso   1.00
C521   C     0.70201   0.11080   0.65081   0.00000  Uiso   1.00
O522   O     0.68303   0.08726   0.34970   0.00000  Uiso   1.00
O523   O     0.68735   0.09559   0.58942   0.00000  Uiso   1.00
H524   H     0.66226   0.06558   0.57809   0.00000  Uiso   1.00
C525   C     0.79814   0.22245   0.34919   0.00000  Uiso   1.00
O526   O     0.81720   0.24584   0.65025   0.00000  Uiso   1.00
O527   O     0.81287   0.23774   0.41062   0.00000  Uiso   1.00
H528   H     0.83893   0.26670   0.42179   0.00000  Uiso   1.00
C529   C     0.24774   0.40019   0.48449   0.00000  Uiso   1.00
C530   C     0.25224   0.59980   0.51550   0.00000  Uiso   1.00
C531   C     0.01586   0.40902   0.44482   0.00000  Uiso   1.00
C532   C     0.48391   0.58997   0.55505   0.00000  Uiso   1.00
C533   C     0.24354   0.34417   0.47662   0.00000  Uiso   1.00
C534   C     0.25637   0.65581   0.52336   0.00000  Uiso   1.00
C535   C     0.16485   0.50180   0.50037   0.00000  Uiso   1.00
C536   C     0.33508   0.49792   0.49957   0.00000  Uiso   1.00
C537   C     0.41125   0.53990   0.53222   0.00000  Uiso   1.00
C538   C     0.08865   0.45921   0.46805   0.00000  Uiso   1.00
C539   C     0.38326   0.49555   0.49956   0.00000  Uiso   1.00
C540   C     0.11658   0.50382   0.50034   0.00000  Uiso   1.00
C541   C     0.40137   0.45125   0.46660   0.00000  Uiso   1.00
C542   C     0.09832   0.54819   0.53284   0.00000  Uiso   1.00
C543   C     0.44873   0.45030   0.47181   0.00000  Uiso   1.00
C544   C     0.05095   0.54875   0.52786   0.00000  Uiso   1.00
C545   C     0.47644   0.49783   0.50056   0.00000  Uiso   1.00
C546   C     0.02333   0.50105   0.49962   0.00000  Uiso   1.00
C547   C     0.45731   0.54237   0.53028   0.00000  Uiso   1.00
C548   C     0.04253   0.45656   0.46998   0.00000  Uiso   1.00
C549   C     0.46971   0.40440   0.44839   0.00000  Uiso   1.00
C550   C     0.02995   0.59461   0.55082   0.00000  Uiso   1.00
Cu551  Cu    0.25500   0.50579   0.56146   0.00000  Uiso   1.00
Cu552  Cu    0.24499   0.49421   0.43854   0.00000  Uiso   1.00
H553   H     0.39666   0.57400   0.55603   0.00000  Uiso   1.00
H554   H     0.10334   0.42514   0.44438   0.00000  Uiso   1.00
H555   H     0.03164   0.37437   0.42562   0.00000  Uiso   1.00
H556   H     0.46809   0.62472   0.57380   0.00000  Uiso   1.00
N557   N     0.23744   0.48547   0.34617   0.00000  Uiso   1.00
N558   N     0.26255   0.51453   0.65383   0.00000  Uiso   1.00
O559   O     0.25325   0.42871   0.53992   0.00000  Uiso   1.00
O560   O     0.24674   0.57129   0.46008   0.00000  Uiso   1.00
O561   O     0.24480   0.41892   0.43612   0.00000  Uiso   1.00
O562   O     0.25520   0.58108   0.56388   0.00000  Uiso   1.00
O563   O     0.18935   0.50488   0.55191   0.00000  Uiso   1.00
O564   O     0.31064   0.49512   0.44809   0.00000  Uiso   1.00
O565   O     0.18090   0.49510   0.44810   0.00000  Uiso   1.00
O566   O     0.31910   0.50490   0.55190   0.00000  Uiso   1.00
C567   C     0.37132   0.40956   0.42200   0.00000  Uiso   1.00
O568   O     0.37852   0.39828   0.36892   0.00000  Uiso   1.00
O569   O     0.33596   0.38214   0.44087   0.00000  Uiso   1.00
H570   H     0.31892   0.35349   0.40645   0.00000  Uiso   1.00
C571   C     0.12822   0.59055   0.57682   0.00000  Uiso   1.00
O572   O     0.12090   0.60273   0.62981   0.00000  Uiso   1.00
O573   O     0.16367   0.61741   0.55749   0.00000  Uiso   1.00
H574   H     0.18082   0.64620   0.59166   0.00000  Uiso   1.00
C575   C     0.44667   0.35012   0.43447   0.00000  Uiso   1.00
O576   O     0.42139   0.33752   0.46879   0.00000  Uiso   1.00
O577   O     0.45573   0.64601   0.38374   0.00000  Uiso   1.00
H578   H     0.43852   0.61029   0.37951   0.00000  Uiso   1.00
C579   C     0.05264   0.64869   0.56130   0.00000  Uiso   1.00
O580   O     0.04605   0.34956   0.60517   0.00000  Uiso   1.00
O581   O     0.07944   0.66113   0.51880   0.00000  Uiso   1.00
H582   H     0.09044   0.36658   0.52847   0.00000  Uiso   1.00
C583   C     0.22308   0.64731   0.41692   0.00000  Uiso   1.00
N584   N     0.20706   0.62337   0.36928   0.00000  Uiso   1.00
C585   C     0.27664   0.35268   0.58312   0.00000  Uiso   1.00
N586   N     0.29247   0.37667   0.63082   0.00000  Uiso   1.00
C587   C     0.20201   0.44413   0.65081   0.00000  Uiso   1.00
O588   O     0.18303   0.42060   0.34970   0.00000  Uiso   1.00
O589   O     0.18735   0.42892   0.58942   0.00000  Uiso   1.00
H590   H     0.16226   0.39891   0.57809   0.00000  Uiso   1.00
C591   C     0.29814   0.55578   0.34919   0.00000  Uiso   1.00
O592   O     0.31720   0.57917   0.65025   0.00000  Uiso   1.00
O593   O     0.31287   0.57107   0.41062   0.00000  Uiso   1.00
H594   H     0.33893   0.60003   0.42179   0.00000  Uiso   1.00
C595   C     0.74774   0.40019   0.48449   0.00000  Uiso   1.00
C596   C     0.75224   0.59980   0.51550   0.00000  Uiso   1.00
C597   C     0.51586   0.40902   0.44482   0.00000  Uiso   1.00
C598   C     0.98391   0.58997   0.55505   0.00000  Uiso   1.00
C599   C     0.74354   0.34417   0.47662   0.00000  Uiso   1.00
C600   C     0.75637   0.65581   0.52336   0.00000  Uiso   1.00
C601   C     0.66485   0.50180   0.50037   0.00000  Uiso   1.00
C602   C     0.83508   0.49792   0.49957   0.00000  Uiso   1.00
C603   C     0.91125   0.53990   0.53222   0.00000  Uiso   1.00
C604   C     0.58865   0.45921   0.46805   0.00000  Uiso   1.00
C605   C     0.88326   0.49555   0.49956   0.00000  Uiso   1.00
C606   C     0.61658   0.50382   0.50034   0.00000  Uiso   1.00
C607   C     0.90137   0.45125   0.46660   0.00000  Uiso   1.00
C608   C     0.59832   0.54819   0.53284   0.00000  Uiso   1.00
C609   C     0.94873   0.45030   0.47181   0.00000  Uiso   1.00
C610   C     0.55095   0.54875   0.52786   0.00000  Uiso   1.00
C611   C     0.97644   0.49783   0.50056   0.00000  Uiso   1.00
C612   C     0.52333   0.50105   0.49962   0.00000  Uiso   1.00
C613   C     0.95731   0.54237   0.53028   0.00000  Uiso   1.00
C614   C     0.54253   0.45656   0.46998   0.00000  Uiso   1.00
C615   C     0.96971   0.40440   0.44839   0.00000  Uiso   1.00
C616   C     0.52995   0.59461   0.55082   0.00000  Uiso   1.00
Cu617  Cu    0.75500   0.50579   0.56146   0.00000  Uiso   1.00
Cu618  Cu    0.74499   0.49421   0.43854   0.00000  Uiso   1.00
H619   H     0.89666   0.57400   0.55603   0.00000  Uiso   1.00
H620   H     0.60334   0.42514   0.44438   0.00000  Uiso   1.00
H621   H     0.53164   0.37437   0.42562   0.00000  Uiso   1.00
H622   H     0.96809   0.62472   0.57380   0.00000  Uiso   1.00
N623   N     0.73744   0.48547   0.34617   0.00000  Uiso   1.00
N624   N     0.76255   0.51453   0.65383   0.00000  Uiso   1.00
O625   O     0.75325   0.42871   0.53992   0.00000  Uiso   1.00
O626   O     0.74674   0.57129   0.46008   0.00000  Uiso   1.00
O627   O     0.74480   0.41892   0.43612   0.00000  Uiso   1.00
O628   O     0.75520   0.58108   0.56388   0.00000  Uiso   1.00
O629   O     0.68935   0.50488   0.55191   0.00000  Uiso   1.00
O630   O     0.81064   0.49512   0.44809   0.00000  Uiso   1.00
O631   O     0.68090   0.49510   0.44810   0.00000  Uiso   1.00
O632   O     0.81910   0.50490   0.55190   0.00000  Uiso   1.00
C633   C     0.87132   0.40956   0.42200   0.00000  Uiso   1.00
O634   O     0.87852   0.39828   0.36892   0.00000  Uiso   1.00
O635   O     0.83596   0.38214   0.44087   0.00000  Uiso   1.00
H636   H     0.81892   0.35349   0.40645   0.00000  Uiso   1.00
C637   C     0.62822   0.59055   0.57682   0.00000  Uiso   1.00
O638   O     0.62090   0.60273   0.62981   0.00000  Uiso   1.00
O639   O     0.66367   0.61741   0.55749   0.00000  Uiso   1.00
H640   H     0.68082   0.64620   0.59166   0.00000  Uiso   1.00
C641   C     0.94667   0.35012   0.43447   0.00000  Uiso   1.00
O642   O     0.92139   0.33752   0.46879   0.00000  Uiso   1.00
O643   O     0.95573   0.64601   0.38374   0.00000  Uiso   1.00
H644   H     0.93852   0.61029   0.37951   0.00000  Uiso   1.00
C645   C     0.55264   0.64869   0.56130   0.00000  Uiso   1.00
O646   O     0.54605   0.34956   0.60517   0.00000  Uiso   1.00
O647   O     0.57944   0.66113   0.51880   0.00000  Uiso   1.00
H648   H     0.59044   0.36658   0.52847   0.00000  Uiso   1.00
C649   C     0.72308   0.64731   0.41692   0.00000  Uiso   1.00
N650   N     0.70706   0.62337   0.36928   0.00000  Uiso   1.00
C651   C     0.77664   0.35268   0.58312   0.00000  Uiso   1.00
N652   N     0.79247   0.37667   0.63082   0.00000  Uiso   1.00
C653   C     0.70201   0.44413   0.65081   0.00000  Uiso   1.00
O654   O     0.68303   0.42060   0.34970   0.00000  Uiso   1.00
O655   O     0.68735   0.42892   0.58942   0.00000  Uiso   1.00
H656   H     0.66226   0.39891   0.57809   0.00000  Uiso   1.00
C657   C     0.79814   0.55578   0.34919   0.00000  Uiso   1.00
O658   O     0.81720   0.57917   0.65025   0.00000  Uiso   1.00
O659   O     0.81287   0.57107   0.41062   0.00000  Uiso   1.00
H660   H     0.83893   0.60003   0.42179   0.00000  Uiso   1.00
C661   C     0.24774   0.73352   0.48449   0.00000  Uiso   1.00
C662   C     0.25224   0.93314   0.51550   0.00000  Uiso   1.00
C663   C     0.01586   0.74235   0.44482   0.00000  Uiso   1.00
C664   C     0.48391   0.92330   0.55505   0.00000  Uiso   1.00
C665   C     0.24354   0.67751   0.47662   0.00000  Uiso   1.00
C666   C     0.25637   0.98914   0.52336   0.00000  Uiso   1.00
C667   C     0.16485   0.83513   0.50037   0.00000  Uiso   1.00
C668   C     0.33508   0.83125   0.49957   0.00000  Uiso   1.00
C669   C     0.41125   0.87323   0.53222   0.00000  Uiso   1.00
C670   C     0.08865   0.79254   0.46805   0.00000  Uiso   1.00
C671   C     0.38326   0.82889   0.49956   0.00000  Uiso   1.00
C672   C     0.11658   0.83716   0.50034   0.00000  Uiso   1.00
C673   C     0.40137   0.78458   0.46660   0.00000  Uiso   1.00
C674   C     0.09832   0.88152   0.53284   0.00000  Uiso   1.00
C675   C     0.44873   0.78363   0.47181   0.00000  Uiso   1.00
C676   C     0.05095   0.88208   0.52786   0.00000  Uiso   1.00
C677   C     0.47644   0.83116   0.50056   0.00000  Uiso   1.00
C678   C     0.02333   0.83439   0.49962   0.00000  Uiso   1.00
C679   C     0.45731   0.87570   0.53028   0.00000  Uiso   1.00
C680   C     0.04253   0.78990   0.46998   0.00000  Uiso   1.00
C681   C     0.46971   0.73774   0.44839   0.00000  Uiso   1.00
C682   C     0.02995   0.92795   0.55082   0.00000  Uiso   1.00
Cu683  Cu    0.25500   0.83913   0.56146   0.00000  Uiso   1.00
Cu684  Cu    0.24499   0.82754   0.43854   0.00000  Uiso   1.00
H685   H     0.39666   0.90733   0.55603   0.00000  Uiso   1.00
H686   H     0.10334   0.75847   0.44438   0.00000  Uiso   1.00
H687   H     0.03164   0.70770   0.42562   0.00000  Uiso   1.00
H688   H     0.46809   0.95805   0.57380   0.00000  Uiso   1.00
N689   N     0.23744   0.81881   0.34617   0.00000  Uiso   1.00
N690   N     0.26255   0.84786   0.65383   0.00000  Uiso   1.00
O691   O     0.25325   0.76204   0.53992   0.00000  Uiso   1.00
O692   O     0.24674   0.90462   0.46008   0.00000  Uiso   1.00
O693   O     0.24480   0.75226   0.43612   0.00000  Uiso   1.00
O694   O     0.25520   0.91441   0.56388   0.00000  Uiso   1.00
O695   O     0.18935   0.83821   0.55191   0.00000  Uiso   1.00
O696   O     0.31064   0.82845   0.44809   0.00000  Uiso   1.00
O697   O     0.18090   0.82843   0.44810   0.00000  Uiso   1.00
O698   O     0.31910   0.83824   0.55190   0.00000  Uiso   1.00
C699   C     0.37132   0.74289   0.42200   0.00000  Uiso   1.00
O700   O     0.37852   0.73162   0.36892   0.00000  Uiso   1.00
O701   O     0.33596   0.71547   0.44087   0.00000  Uiso   1.00
H702   H     0.31892   0.68683   0.40645   0.00000  Uiso   1.00
C703   C     0.12822   0.92388   0.57682   0.00000  Uiso   1.00
O704   O     0.12090   0.93606   0.62981   0.00000  Uiso   1.00
O705   O     0.16367   0.95075   0.55749   0.00000  Uiso   1.00
H706   H     0.18082   0.97953   0.59166   0.00000  Uiso   1.00
C707   C     0.44667   0.68345   0.43447   0.00000  Uiso   1.00
O708   O     0.42139   0.67086   0.46879   0.00000  Uiso   1.00
O709   O     0.45573   0.97934   0.38374   0.00000  Uiso   1.00
H710   H     0.43852   0.94362   0.37951   0.00000  Uiso   1.00
C711   C     0.05264   0.98202   0.56130   0.00000  Uiso   1.00
O712   O     0.04605   0.68289   0.60517   0.00000  Uiso   1.00
O713   O     0.07944   0.99446   0.51880   0.00000  Uiso   1.00
H714   H     0.09044   0.69992   0.52847   0.00000  Uiso   1.00
C715   C     0.22308   0.98064   0.41692   0.00000  Uiso   1.00
N716   N     0.20706   0.95670   0.36928   0.00000  Uiso   1.00
C717   C     0.27664   0.68602   0.58312   0.00000  Uiso   1.00
N718   N     0.29247   0.71001   0.63082   0.00000  Uiso   1.00
C719   C     0.20201   0.77746   0.65081   0.00000  Uiso   1.00
O720   O     0.18303   0.75393   0.34970   0.00000  Uiso   1.00
O721   O     0.18735   0.76225   0.58942   0.00000  Uiso   1.00
H722   H     0.16226   0.73225   0.57809   0.00000  Uiso   1.00
C723   C     0.29814   0.88911   0.34919   0.00000  Uiso   1.00
O724   O     0.31720   0.91251   0.65025   0.00000  Uiso   1.00
O725   O     0.31287   0.90440   0.41062   0.00000  Uiso   1.00
H726   H     0.33893   0.93336   0.42179   0.00000  Uiso   1.00
C727   C     0.74774   0.73352   0.48449   0.00000  Uiso   1.00
C728   C     0.75224   0.93314   0.51550   0.00000  Uiso   1.00
C729   C     0.51586   0.74235   0.44482   0.00000  Uiso   1.00
C730   C     0.98391   0.92330   0.55505   0.00000  Uiso   1.00
C731   C     0.74354   0.67751   0.47662   0.00000  Uiso   1.00
C732   C     0.75637   0.98914   0.52336   0.00000  Uiso   1.00
C733   C     0.66485   0.83513   0.50037   0.00000  Uiso   1.00
C734   C     0.83508   0.83125   0.49957   0.00000  Uiso   1.00
C735   C     0.91125   0.87323   0.53222   0.00000  Uiso   1.00
C736   C     0.58865   0.79254   0.46805   0.00000  Uiso   1.00
C737   C     0.88326   0.82889   0.49956   0.00000  Uiso   1.00
C738   C     0.61658   0.83716   0.50034   0.00000  Uiso   1.00
C739   C     0.90137   0.78458   0.46660   0.00000  Uiso   1.00
C740   C     0.59832   0.88152   0.53284   0.00000  Uiso   1.00
C741   C     0.94873   0.78363   0.47181   0.00000  Uiso   1.00
C742   C     0.55095   0.88208   0.52786   0.00000  Uiso   1.00
C743   C     0.97644   0.83116   0.50056   0.00000  Uiso   1.00
C744   C     0.52333   0.83439   0.49962   0.00000  Uiso   1.00
C745   C     0.95731   0.87570   0.53028   0.00000  Uiso   1.00
C746   C     0.54253   0.78990   0.46998   0.00000  Uiso   1.00
C747   C     0.96971   0.73774   0.44839   0.00000  Uiso   1.00
C748   C     0.52995   0.92795   0.55082   0.00000  Uiso   1.00
Cu749  Cu    0.75500   0.83913   0.56146   0.00000  Uiso   1.00
Cu750  Cu    0.74499   0.82754   0.43854   0.00000  Uiso   1.00
H751   H     0.89666   0.90733   0.55603   0.00000  Uiso   1.00
H752   H     0.60334   0.75847   0.44438   0.00000  Uiso   1.00
H753   H     0.53164   0.70770   0.42562   0.00000  Uiso   1.00
H754   H     0.96809   0.95805   0.57380   0.00000  Uiso   1.00
N755   N     0.73744   0.81881   0.34617   0.00000  Uiso   1.00
N756   N     0.76255   0.84786   0.65383   0.00000  Uiso   1.00
O757   O     0.75325   0.76204   0.53992   0.00000  Uiso   1.00
O758   O     0.74674   0.90462   0.46008   0.00000  Uiso   1.00
O759   O     0.74480   0.75226   0.43612   0.00000  Uiso   1.00
O760   O     0.75520   0.91441   0.56388   0.00000  Uiso   1.00
O761   O     0.68935   0.83821   0.55191   0.00000  Uiso   1.00
O762   O     0.81064   0.82845   0.44809   0.00000  Uiso   1.00
O763   O     0.68090   0.82843   0.44810   0.00000  Uiso   1.00
O764   O     0.81910   0.83824   0.55190   0.00000  Uiso   1.00
C765   C     0.87132   0.74289   0.42200   0.00000  Uiso   1.00
O766   O     0.87852   0.73162   0.36892   0.00000  Uiso   1.00
O767   O     0.83596   0.71547   0.44087   0.00000  Uiso   1.00
H768   H     0.81892   0.68683   0.40645   0.00000  Uiso   1.00
C769   C     0.62822   0.92388   0.57682   0.00000  Uiso   1.00
O770   O     0.62090   0.93606   0.62981   0.00000  Uiso   1.00
O771   O     0.66367   0.95075   0.55749   0.00000  Uiso   1.00
H772   H     0.68082   0.97953   0.59166   0.00000  Uiso   1.00
C773   C     0.94667   0.68345   0.43447   0.00000  Uiso   1.00
O774   O     0.92139   0.67086   0.46879   0.00000  Uiso   1.00
O775   O     0.95573   0.97934   0.38374   0.00000  Uiso   1.00
H776   H     0.93852   0.94362   0.37951   0.00000  Uiso   1.00
C777   C     0.55264   0.98202   0.56130   0.00000  Uiso   1.00
O778   O     0.54605   0.68289   0.60517   0.00000  Uiso   1.00
O779   O     0.57944   0.99446   0.51880   0.00000  Uiso   1.00
H780   H     0.59044   0.69992   0.52847   0.00000  Uiso   1.00
C781   C     0.72308   0.98064   0.41692   0.00000  Uiso   1.00
N782   N     0.70706   0.95670   0.36928   0.00000  Uiso   1.00
C783   C     0.77664   0.68602   0.58312   0.00000  Uiso   1.00
N784   N     0.79247   0.71001   0.63082   0.00000  Uiso   1.00
C785   C     0.70201   0.77746   0.65081   0.00000  Uiso   1.00
O786   O     0.68303   0.75393   0.34970   0.00000  Uiso   1.00
O787   O     0.68735   0.76225   0.58942   0.00000  Uiso   1.00
H788   H     0.66226   0.73225   0.57809   0.00000  Uiso   1.00
C789   C     0.79814   0.88911   0.34919   0.00000  Uiso   1.00
O790   O     0.81720   0.91251   0.65025   0.00000  Uiso   1.00
O791   O     0.81287   0.90440   0.41062   0.00000  Uiso   1.00
H792   H     0.83893   0.93336   0.42179   0.00000  Uiso   1.00
C793   C     0.24774   0.06686   0.81782   0.00000  Uiso   1.00
C794   C     0.25224   0.26647   0.84883   0.00000  Uiso   1.00
C795   C     0.01586   0.07568   0.77815   0.00000  Uiso   1.00
C796   C     0.48391   0.25664   0.88838   0.00000  Uiso   1.00
C797   C     0.24354   0.01084   0.80995   0.00000  Uiso   1.00
C798   C     0.25637   0.32248   0.85669   0.00000  Uiso   1.00
C799   C     0.16485   0.16847   0.83370   0.00000  Uiso   1.00
C800   C     0.33508   0.16459   0.83291   0.00000  Uiso   1.00
C801   C     0.41125   0.20656   0.86556   0.00000  Uiso   1.00
C802   C     0.08865   0.12587   0.80138   0.00000  Uiso   1.00
C803   C     0.38326   0.16222   0.83289   0.00000  Uiso   1.00
C804   C     0.11658   0.17049   0.83367   0.00000  Uiso   1.00
C805   C     0.40137   0.11791   0.79993   0.00000  Uiso   1.00
C806   C     0.09832   0.21486   0.86618   0.00000  Uiso   1.00
C807   C     0.44873   0.11696   0.80514   0.00000  Uiso   1.00
C808   C     0.05095   0.21541   0.86120   0.00000  Uiso   1.00
C809   C     0.47644   0.16450   0.83389   0.00000  Uiso   1.00
C810   C     0.02333   0.16772   0.83295   0.00000  Uiso   1.00
C811   C     0.45731   0.20903   0.86361   0.00000  Uiso   1.00
C812   C     0.04253   0.12323   0.80332   0.00000  Uiso   1.00
C813   C     0.46971   0.07107   0.78172   0.00000  Uiso   1.00
C814   C     0.02995   0.26128   0.88415   0.00000  Uiso   1.00
Cu815  Cu    0.25500   0.17246   0.89479   0.00000  Uiso   1.00
Cu816  Cu    0.24499   0.16087   0.77187   0.00000  Uiso   1.00
H817   H     0.39666   0.24066   0.88936   0.00000  Uiso   1.00
H818   H     0.10334   0.09180   0.77771   0.00000  Uiso   1.00
H819   H     0.03164   0.04104   0.75895   0.00000  Uiso   1.00
H820   H     0.46809   0.29139   0.90713   0.00000  Uiso   1.00
N821   N     0.23744   0.15214   0.67951   0.00000  Uiso   1.00
N822   N     0.26255   0.18119   0.98716   0.00000  Uiso   1.00
O823   O     0.25325   0.09538   0.87326   0.00000  Uiso   1.00
O824   O     0.24674   0.23796   0.79341   0.00000  Uiso   1.00
O825   O     0.24480   0.08559   0.76945   0.00000  Uiso   1.00
O826   O     0.25520   0.24774   0.89721   0.00000  Uiso   1.00
O827   O     0.18935   0.17155   0.88524   0.00000  Uiso   1.00
O828   O     0.31064   0.16179   0.78143   0.00000  Uiso   1.00
O829   O     0.18090   0.16176   0.78143   0.00000  Uiso   1.00
O830   O     0.31910   0.17157   0.88523   0.00000  Uiso   1.00
C831   C     0.37132   0.07623   0.75533   0.00000  Uiso   1.00
O832   O     0.37852   0.06495   0.70225   0.00000  Uiso   1.00
O833   O     0.33596   0.04880   0.77420   0.00000  Uiso   1.00
H834   H     0.31892   0.02016   0.73979   0.00000  Uiso   1.00
C835   C     0.12822   0.25722   0.91015   0.00000  Uiso   1.00
O836   O     0.12090   0.26940   0.96315   0.00000  Uiso   1.00
O837   O     0.16367   0.28408   0.89083   0.00000  Uiso   1.00
H838   H     0.18082   0.31287   0.92499   0.00000  Uiso   1.00
C839   C     0.44667   0.01679   0.76780   0.00000  Uiso   1.00
O840   O     0.42139   0.00419   0.80212   0.00000  Uiso   1.00
O841   O     0.45573   0.31268   0.71708   0.00000  Uiso   1.00
H842   H     0.43852   0.27696   0.71285   0.00000  Uiso   1.00
C843   C     0.05264   0.31536   0.89463   0.00000  Uiso   1.00
O844   O     0.04605   0.01622   0.93850   0.00000  Uiso   1.00
O845   O     0.07944   0.32780   0.85214   0.00000  Uiso   1.00
H846   H     0.09044   0.03325   0.86181   0.00000  Uiso   1.00
C847   C     0.22308   0.31398   0.75025   0.00000  Uiso   1.00
N848   N     0.20706   0.29003   0.70261   0.00000  Uiso   1.00
C849   C     0.27664   0.01935   0.91646   0.00000  Uiso   1.00
N850   N     0.29247   0.04334   0.96416   0.00000  Uiso   1.00
C851   C     0.20201   0.11080   0.98414   0.00000  Uiso   1.00
O852   O     0.18303   0.08726   0.68304   0.00000  Uiso   1.00
O853   O     0.18735   0.09559   0.92275   0.00000  Uiso   1.00
H854   H     0.16226   0.06558   0.91142   0.00000  Uiso   1.00
C855   C     0.29814   0.22245   0.68252   0.00000  Uiso   1.00
O856   O     0.31720   0.24584   0.98358   0.00000  Uiso   1.00
O857   O     0.31287   0.23774   0.74396   0.00000  Uiso   1.00
H858   H     0.33893   0.26670   0.75513   0.00000  Uiso   1.00
C859   C     0.74774   0.06686   0.81782   0.00000  Uiso   1.00
C860   C     0.75224   0.26647   0.84883   0.00000  Uiso   1.00
C861   C     0.51586   0.07568   0.77815   0.00000  Uiso   1.00
C862   C     0.98391   0.25664   0.88838   0.00000  Uiso   1.00
C863   C     0.74354   0.01084   0.80995   0.00000  Uiso   1.00
C864   C     0.75637   0.32248   0.85669   0.00000  Uiso   1.00
C865   C     0.66485   0.16847   0.83370   0.00000  Uiso   1.00
C866   C     0.83508   0.16459   0.83291   0.00000  Uiso   1.00
C867   C     0.91125   0.20656   0.86556   0.00000  Uiso   1.00
C868   C     0.58865   0.12587   0.80138   0.00000  Uiso   1.00
C869   C     0.88326   0.16222   0.83289   0.00000  Uiso   1.00
C870   C     0.61658   0.17049   0.83367   0.00000  Uiso   1.00
C871   C     0.90137   0.11791   0.79993   0.00000  Uiso   1.00
C872   C     0.59832   0.21486   0.86618   0.00000  Uiso   1.00
C873   C     0.94873   0.11696   0.80514   0.00000  Uiso   1.00
C874   C     0.55095   0.21541   0.86120   0.00000  Uiso   1.00
C875   C     0.97644   0.16450   0.83389   0.00000  Uiso   1.00
C876   C     0.52333   0.16772   0.83295   0.00000  Uiso   1.00
C877   C     0.95731   0.20903   0.86361   0.00000  Uiso   1.00
C878   C     0.54253   0.12323   0.80332   0.00000  Uiso   1.00
C879   C     0.96971   0.07107   0.78172   0.00000  Uiso   1.00
C880   C     0.52995   0.26128   0.88415   0.00000  Uiso   1.00
Cu881  Cu    0.75500   0.17246   0.89479   0.00000  Uiso   1.00
Cu882  Cu    0.74499   0.16087   0.77187   0.00000  Uiso   1.00
H883   H     0.89666   0.24066   0.88936   0.00000  Uiso   1.00
H884   H     0.60334   0.09180   0.77771   0.00000  Uiso   1.00
H885   H     0.53164   0.04104   0.75895   0.00000  Uiso   1.00
H886   H     0.96809   0.29139   0.90713   0.00000  Uiso   1.00
N887   N     0.73744   0.15214   0.67951   0.00000  Uiso   1.00
N888   N     0.76255   0.18119   0.98716   0.00000  Uiso   1.00
O889   O     0.75325   0.09538   0.87326   0.00000  Uiso   1.00
O890   O     0.74674   0.23796   0.79341   0.00000  Uiso   1.00
O891   O     0.74480   0.08559   0.76945   0.00000  Uiso   1.00
O892   O     0.75520   0.24774   0.89721   0.00000  Uiso   1.00
O893   O     0.68935   0.17155   0.88524   0.00000  Uiso   1.00
O894   O     0.81064   0.16179   0.78143   0.00000  Uiso   1.00
O895   O     0.68090   0.16176   0.78143   0.00000  Uiso   1.00
O896   O     0.81910   0.17157   0.88523   0.00000  Uiso   1.00
C897   C     0.87132   0.07623   0.75533   0.00000  Uiso   1.00
O898   O     0.87852   0.06495   0.70225   0.00000  Uiso   1.00
O899   O     0.83596   0.04880   0.77420   0.00000  Uiso   1.00
H900   H     0.81892   0.02016   0.73979   0.00000  Uiso   1.00
C901   C     0.62822   0.25722   0.91015   0.00000  Uiso   1.00
O902   O     0.62090   0.26940   0.96315   0.00000  Uiso   1.00
O903   O     0.66367   0.28408   0.89083   0.00000  Uiso   1.00
H904   H     0.68082   0.31287   0.92499   0.00000  Uiso   1.00
C905   C     0.94667   0.01679   0.76780   0.00000  Uiso   1.00
O906   O     0.92139   0.00419   0.80212   0.00000  Uiso   1.00
O907   O     0.95573   0.31268   0.71708   0.00000  Uiso   1.00
H908   H     0.93852   0.27696   0.71285   0.00000  Uiso   1.00
C909   C     0.55264   0.31536   0.89463   0.00000  Uiso   1.00
O910   O     0.54605   0.01622   0.93850   0.00000  Uiso   1.00
O911   O     0.57944   0.32780   0.85214   0.00000  Uiso   1.00
H912   H     0.59044   0.03325   0.86181   0.00000  Uiso   1.00
C913   C     0.72308   0.31398   0.75025   0.00000  Uiso   1.00
N914   N     0.70706   0.29003   0.70261   0.00000  Uiso   1.00
C915   C     0.77664   0.01935   0.91646   0.00000  Uiso   1.00
N916   N     0.79247   0.04334   0.96416   0.00000  Uiso   1.00
C917   C     0.70201   0.11080   0.98414   0.00000  Uiso   1.00
O918   O     0.68303   0.08726   0.68304   0.00000  Uiso   1.00
O919   O     0.68735   0.09559   0.92275   0.00000  Uiso   1.00
H920   H     0.66226   0.06558   0.91142   0.00000  Uiso   1.00
C921   C     0.79814   0.22245   0.68252   0.00000  Uiso   1.00
O922   O     0.81720   0.24584   0.98358   0.00000  Uiso   1.00
O923   O     0.81287   0.23774   0.74396   0.00000  Uiso   1.00
H924   H     0.83893   0.26670   0.75513   0.00000  Uiso   1.00
C925   C     0.24774   0.40019   0.81782   0.00000  Uiso   1.00
C926   C     0.25224   0.59980   0.84883   0.00000  Uiso   1.00
C927   C     0.01586   0.40902   0.77815   0.00000  Uiso   1.00
C928   C     0.48391   0.58997   0.88838   0.00000  Uiso   1.00
C929   C     0.24354   0.34417   0.80995   0.00000  Uiso   1.00
C930   C     0.25637   0.65581   0.85669   0.00000  Uiso   1.00
C931   C     0.16485   0.50180   0.83370   0.00000  Uiso   1.00
C932   C     0.33508   0.49792   0.83291   0.00000  Uiso   1.00
C933   C     0.41125   0.53990   0.86556   0.00000  Uiso   1.00
C934   C     0.08865   0.45921   0.80138   0.00000  Uiso   1.00
C935   C     0.38326   0.49555   0.83289   0.00000  Uiso   1.00
C936   C     0.11658   0.50382   0.83367   0.00000  Uiso   1.00
C937   C     0.40137   0.45125   0.79993   0.00000  Uiso   1.00
C938   C     0.09832   0.54819   0.86618   0.00000  Uiso   1.00
C939   C     0.44873   0.45030   0.80514   0.00000  Uiso   1.00
C940   C     0.05095   0.54875   0.86120   0.00000  Uiso   1.00
C941   C     0.47644   0.49783   0.83389   0.00000  Uiso   1.00
C942   C     0.02333   0.50105   0.83295   0.00000  Uiso   1.00
C943   C     0.45731   0.54237   0.86361   0.00000  Uiso   1.00
C944   C     0.04253   0.45656   0.80332   0.00000  Uiso   1.00
C945   C     0.46971   0.40440   0.78172   0.00000  Uiso   1.00
C946   C     0.02995   0.59461   0.88415   0.00000  Uiso   1.00
Cu947  Cu    0.25500   0.50579   0.89479   0.00000  Uiso   1.00
Cu948  Cu    0.24499   0.49421   0.77187   0.00000  Uiso   1.00
H949   H     0.39666   0.57400   0.88936   0.00000  Uiso   1.00
H950   H     0.10334   0.42514   0.77771   0.00000  Uiso   1.00
H951   H     0.03164   0.37437   0.75895   0.00000  Uiso   1.00
H952   H     0.46809   0.62472   0.90713   0.00000  Uiso   1.00
N953   N     0.23744   0.48547   0.67951   0.00000  Uiso   1.00
N954   N     0.26255   0.51453   0.98716   0.00000  Uiso   1.00
O955   O     0.25325   0.42871   0.87326   0.00000  Uiso   1.00
O956   O     0.24674   0.57129   0.79341   0.00000  Uiso   1.00
O957   O     0.24480   0.41892   0.76945   0.00000  Uiso   1.00
O958   O     0.25520   0.58108   0.89721   0.00000  Uiso   1.00
O959   O     0.18935   0.50488   0.88524   0.00000  Uiso   1.00
O960   O     0.31064   0.49512   0.78143   0.00000  Uiso   1.00
O961   O     0.18090   0.49510   0.78143   0.00000  Uiso   1.00
O962   O     0.31910   0.50490   0.88523   0.00000  Uiso   1.00
C963   C     0.37132   0.40956   0.75533   0.00000  Uiso   1.00
O964   O     0.37852   0.39828   0.70225   0.00000  Uiso   1.00
O965   O     0.33596   0.38214   0.77420   0.00000  Uiso   1.00
H966   H     0.31892   0.35349   0.73979   0.00000  Uiso   1.00
C967   C     0.12822   0.59055   0.91015   0.00000  Uiso   1.00
O968   O     0.12090   0.60273   0.96315   0.00000  Uiso   1.00
O969   O     0.16367   0.61741   0.89083   0.00000  Uiso   1.00
H970   H     0.18082   0.64620   0.92499   0.00000  Uiso   1.00
C971   C     0.44667   0.35012   0.76780   0.00000  Uiso   1.00
O972   O     0.42139   0.33752   0.80212   0.00000  Uiso   1.00
O973   O     0.45573   0.64601   0.71708   0.00000  Uiso   1.00
H974   H     0.43852   0.61029   0.71285   0.00000  Uiso   1.00
C975   C     0.05264   0.64869   0.89463   0.00000  Uiso   1.00
O976   O     0.04605   0.34956   0.93850   0.00000  Uiso   1.00
O977   O     0.07944   0.66113   0.85214   0.00000  Uiso   1.00
H978   H     0.09044   0.36658   0.86181   0.00000  Uiso   1.00
C979   C     0.22308   0.64731   0.75025   0.00000  Uiso   1.00
N980   N     0.20706   0.62337   0.70261   0.00000  Uiso   1.00
C981   C     0.27664   0.35268   0.91646   0.00000  Uiso   1.00
N982   N     0.29247   0.37667   0.96416   0.00000  Uiso   1.00
C983   C     0.20201   0.44413   0.98414   0.00000  Uiso   1.00
O984   O     0.18303   0.42060   0.68304   0.00000  Uiso   1.00
O985   O     0.18735   0.42892   0.92275   0.00000  Uiso   1.00
H986   H     0.16226   0.39891   0.91142   0.00000  Uiso   1.00
C987   C     0.29814   0.55578   0.68252   0.00000  Uiso   1.00
O988   O     0.31720   0.57917   0.98358   0.00000  Uiso   1.00
O989   O     0.31287   0.57107   0.74396   0.00000  Uiso   1.00
H990   H     0.33893   0.60003   0.75513   0.00000  Uiso   1.00
C991   C     0.74774   0.40019   0.81782   0.00000  Uiso   1.00
C992   C     0.75224   0.59980   0.84883   0.00000  Uiso   1.00
C993   C     0.51586   0.40902   0.77815   0.00000  Uiso   1.00
C994   C     0.98391   0.58997   0.88838   0.00000  Uiso   1.00
C995   C     0.74354   0.34417   0.80995   0.00000  Uiso   1.00
C996   C     0.75637   0.65581   0.85669   0.00000  Uiso   1.00
C997   C     0.66485   0.50180   0.83370   0.00000  Uiso   1.00
C998   C     0.83508   0.49792   0.83291   0.00000  Uiso   1.00
C999   C     0.91125   0.53990   0.86556   0.00000  Uiso   1.00
C1000  C     0.58865   0.45921   0.80138   0.00000  Uiso   1.00
C1001  C     0.88326   0.49555   0.83289   0.00000  Uiso   1.00
C1002  C     0.61658   0.50382   0.83367   0.00000  Uiso   1.00
C1003  C     0.90137   0.45125   0.79993   0.00000  Uiso   1.00
C1004  C     0.59832   0.54819   0.86618   0.00000  Uiso   1.00
C1005  C     0.94873   0.45030   0.80514   0.00000  Uiso   1.00
C1006  C     0.55095   0.54875   0.86120   0.00000  Uiso   1.00
C1007  C     0.97644   0.49783   0.83389   0.00000  Uiso   1.00
C1008  C     0.52333   0.50105   0.83295   0.00000  Uiso   1.00
C1009  C     0.95731   0.54237   0.86361   0.00000  Uiso   1.00
C1010  C     0.54253   0.45656   0.80332   0.00000  Uiso   1.00
C1011  C     0.96971   0.40440   0.78172   0.00000  Uiso   1.00
C1012  C     0.52995   0.59461   0.88415   0.00000  Uiso   1.00
Cu1013 Cu    0.75500   0.50579   0.89479   0.00000  Uiso   1.00
Cu1014 Cu    0.74499   0.49421   0.77187   0.00000  Uiso   1.00
H1015  H     0.89666   0.57400   0.88936   0.00000  Uiso   1.00
H1016  H     0.60334   0.42514   0.77771   0.00000  Uiso   1.00
H1017  H     0.53164   0.37437   0.75895   0.00000  Uiso   1.00
H1018  H     0.96809   0.62472   0.90713   0.00000  Uiso   1.00
N1019  N     0.73744   0.48547   0.67951   0.00000  Uiso   1.00
N1020  N     0.76255   0.51453   0.98716   0.00000  Uiso   1.00
O1021  O     0.75325   0.42871   0.87326   0.00000  Uiso   1.00
O1022  O     0.74674   0.57129   0.79341   0.00000  Uiso   1.00
O1023  O     0.74480   0.41892   0.76945   0.00000  Uiso   1.00
O1024  O     0.75520   0.58108   0.89721   0.00000  Uiso   1.00
O1025  O     0.68935   0.50488   0.88524   0.00000  Uiso   1.00
O1026  O     0.81064   0.49512   0.78143   0.00000  Uiso   1.00
O1027  O     0.68090   0.49510   0.78143   0.00000  Uiso   1.00
O1028  O     0.81910   0.50490   0.88523   0.00000  Uiso   1.00
C1029  C     0.87132   0.40956   0.75533   0.00000  Uiso   1.00
O1030  O     0.87852   0.39828   0.70225   0.00000  Uiso   1.00
O1031  O     0.83596   0.38214   0.77420   0.00000  Uiso   1.00
H1032  H     0.81892   0.35349   0.73979   0.00000  Uiso   1.00
C1033  C     0.62822   0.59055   0.91015   0.00000  Uiso   1.00
O1034  O     0.62090   0.60273   0.96315   0.00000  Uiso   1.00
O1035  O     0.66367   0.61741   0.89083   0.00000  Uiso   1.00
H1036  H     0.68082   0.64620   0.92499   0.00000  Uiso   1.00
C1037  C     0.94667   0.35012   0.76780   0.00000  Uiso   1.00
O1038  O     0.92139   0.33752   0.80212   0.00000  Uiso   1.00
O1039  O     0.95573   0.64601   0.71708   0.00000  Uiso   1.00
H1040  H     0.93852   0.61029   0.71285   0.00000  Uiso   1.00
C1041  C     0.55264   0.64869   0.89463   0.00000  Uiso   1.00
O1042  O     0.54605   0.34956   0.93850   0.00000  Uiso   1.00
O1043  O     0.57944   0.66113   0.85214   0.00000  Uiso   1.00
H1044  H     0.59044   0.36658   0.86181   0.00000  Uiso   1.00
C1045  C     0.72308   0.64731   0.75025   0.00000  Uiso   1.00
N1046  N     0.70706   0.62337   0.70261   0.00000  Uiso   1.00
C1047  C     0.77664   0.35268   0.91646   0.00000  Uiso   1.00
N1048  N     0.79247   0.37667   0.96416   0.00000  Uiso   1.00
C1049  C     0.70201   0.44413   0.98414   0.00000  Uiso   1.00
O1050  O     0.68303   0.42060   0.68304   0.00000  Uiso   1.00
O1051  O     0.68735   0.42892   0.92275   0.00000  Uiso   1.00
H1052  H     0.66226   0.39891   0.91142   0.00000  Uiso   1.00
C1053  C     0.79814   0.55578   0.68252   0.00000  Uiso   1.00
O1054  O     0.81720   0.57917   0.98358   0.00000  Uiso   1.00
O1055  O     0.81287   0.57107   0.74396   0.00000  Uiso   1.00
H1056  H     0.83893   0.60003   0.75513   0.00000  Uiso   1.00
C1057  C     0.24774   0.73352   0.81782   0.00000  Uiso   1.00
C1058  C     0.25224   0.93314   0.84883   0.00000  Uiso   1.00
C1059  C     0.01586   0.74235   0.77815   0.00000  Uiso   1.00
C1060  C     0.48391   0.92330   0.88838   0.00000  Uiso   1.00
C1061  C     0.24354   0.67751   0.80995   0.00000  Uiso   1.00
C1062  C     0.25637   0.98914   0.85669   0.00000  Uiso   1.00
C1063  C     0.16485   0.83513   0.83370   0.00000  Uiso   1.00
C1064  C     0.33508   0.83125   0.83291   0.00000  Uiso   1.00
C1065  C     0.41125   0.87323   0.86556   0.00000  Uiso   1.00
C1066  C     0.08865   0.79254   0.80138   0.00000  Uiso   1.00
C1067  C     0.38326   0.82889   0.83289   0.00000  Uiso   1.00
C1068  C     0.11658   0.83716   0.83367   0.00000  Uiso   1.00
C1069  C     0.40137   0.78458   0.79993   0.00000  Uiso   1.00
C1070  C     0.09832   0.88152   0.86618   0.00000  Uiso   1.00
C1071  C     0.44873   0.78363   0.80514   0.00000  Uiso   1.00
C1072  C     0.05095   0.88208   0.86120   0.00000  Uiso   1.00
C1073  C     0.47644   0.83116   0.83389   0.00000  Uiso   1.00
C1074  C     0.02333   0.83439   0.83295   0.00000  Uiso   1.00
C1075  C     0.45731   0.87570   0.86361   0.00000  Uiso   1.00
C1076  C     0.04253   0.78990   0.80332   0.00000  Uiso   1.00
C1077  C     0.46971   0.73774   0.78172   0.00000  Uiso   1.00
C1078  C     0.02995   0.92795   0.88415   0.00000  Uiso   1.00
Cu1079 Cu    0.25500   0.83913   0.89479   0.00000  Uiso   1.00
Cu1080 Cu    0.24499   0.82754   0.77187   0.00000  Uiso   1.00
H1081  H     0.39666   0.90733   0.88936   0.00000  Uiso   1.00
H1082  H     0.10334   0.75847   0.77771   0.00000  Uiso   1.00
H1083  H     0.03164   0.70770   0.75895   0.00000  Uiso   1.00
H1084  H     0.46809   0.95805   0.90713   0.00000  Uiso   1.00
N1085  N     0.23744   0.81881   0.67951   0.00000  Uiso   1.00
N1086  N     0.26255   0.84786   0.98716   0.00000  Uiso   1.00
O1087  O     0.25325   0.76204   0.87326   0.00000  Uiso   1.00
O1088  O     0.24674   0.90462   0.79341   0.00000  Uiso   1.00
O1089  O     0.24480   0.75226   0.76945   0.00000  Uiso   1.00
O1090  O     0.25520   0.91441   0.89721   0.00000  Uiso   1.00
O1091  O     0.18935   0.83821   0.88524   0.00000  Uiso   1.00
O1092  O     0.31064   0.82845   0.78143   0.00000  Uiso   1.00
O1093  O     0.18090   0.82843   0.78143   0.00000  Uiso   1.00
O1094  O     0.31910   0.83824   0.88523   0.00000  Uiso   1.00
C1095  C     0.37132   0.74289   0.75533   0.00000  Uiso   1.00
O1096  O     0.37852   0.73162   0.70225   0.00000  Uiso   1.00
O1097  O     0.33596   0.71547   0.77420   0.00000  Uiso   1.00
H1098  H     0.31892   0.68683   0.73979   0.00000  Uiso   1.00
C1099  C     0.12822   0.92388   0.91015   0.00000  Uiso   1.00
O1100  O     0.12090   0.93606   0.96315   0.00000  Uiso   1.00
O1101  O     0.16367   0.95075   0.89083   0.00000  Uiso   1.00
H1102  H     0.18082   0.97953   0.92499   0.00000  Uiso   1.00
C1103  C     0.44667   0.68345   0.76780   0.00000  Uiso   1.00
O1104  O     0.42139   0.67086   0.80212   0.00000  Uiso   1.00
O1105  O     0.45573   0.97934   0.71708   0.00000  Uiso   1.00
H1106  H     0.43852   0.94362   0.71285   0.00000  Uiso   1.00
C1107  C     0.05264   0.98202   0.89463   0.00000  Uiso   1.00
O1108  O     0.04605   0.68289   0.93850   0.00000  Uiso   1.00
O1109  O     0.07944   0.99446   0.85214   0.00000  Uiso   1.00
H1110  H     0.09044   0.69992   0.86181   0.00000  Uiso   1.00
C1111  C     0.22308   0.98064   0.75025   0.00000  Uiso   1.00
N1112  N     0.20706   0.95670   0.70261   0.00000  Uiso   1.00
C1113  C     0.27664   0.68602   0.91646   0.00000  Uiso   1.00
N1114  N     0.29247   0.71001   0.96416   0.00000  Uiso   1.00
C1115  C     0.20201   0.77746   0.98414   0.00000  Uiso   1.00
O1116  O     0.18303   0.75393   0.68304   0.00000  Uiso   1.00
O1117  O     0.18735   0.76225   0.92275   0.00000  Uiso   1.00
H1118  H     0.16226   0.73225   0.91142   0.00000  Uiso   1.00
C1119  C     0.29814   0.88911   0.68252   0.00000  Uiso   1.00
O1120  O     0.31720   0.91251   0.98358   0.00000  Uiso   1.00
O1121  O     0.31287   0.90440   0.74396   0.00000  Uiso   1.00
H1122  H     0.33893   0.93336   0.75513   0.00000  Uiso   1.00
C1123  C     0.74774   0.73352   0.81782   0.00000  Uiso   1.00
C1124  C     0.75224   0.93314   0.84883   0.00000  Uiso   1.00
C1125  C     0.51586   0.74235   0.77815   0.00000  Uiso   1.00
C1126  C     0.98391   0.92330   0.88838   0.00000  Uiso   1.00
C1127  C     0.74354   0.67751   0.80995   0.00000  Uiso   1.00
C1128  C     0.75637   0.98914   0.85669   0.00000  Uiso   1.00
C1129  C     0.66485   0.83513   0.83370   0.00000  Uiso   1.00
C1130  C     0.83508   0.83125   0.83291   0.00000  Uiso   1.00
C1131  C     0.91125   0.87323   0.86556   0.00000  Uiso   1.00
C1132  C     0.58865   0.79254   0.80138   0.00000  Uiso   1.00
C1133  C     0.88326   0.82889   0.83289   0.00000  Uiso   1.00
C1134  C     0.61658   0.83716   0.83367   0.00000  Uiso   1.00
C1135  C     0.90137   0.78458   0.79993   0.00000  Uiso   1.00
C1136  C     0.59832   0.88152   0.86618   0.00000  Uiso   1.00
C1137  C     0.94873   0.78363   0.80514   0.00000  Uiso   1.00
C1138  C     0.55095   0.88208   0.86120   0.00000  Uiso   1.00
C1139  C     0.97644   0.83116   0.83389   0.00000  Uiso   1.00
C1140  C     0.52333   0.83439   0.83295   0.00000  Uiso   1.00
C1141  C     0.95731   0.87570   0.86361   0.00000  Uiso   1.00
C1142  C     0.54253   0.78990   0.80332   0.00000  Uiso   1.00
C1143  C     0.96971   0.73774   0.78172   0.00000  Uiso   1.00
C1144  C     0.52995   0.92795   0.88415   0.00000  Uiso   1.00
Cu1145 Cu    0.75500   0.83913   0.89479   0.00000  Uiso   1.00
Cu1146 Cu    0.74499   0.82754   0.77187   0.00000  Uiso   1.00
H1147  H     0.89666   0.90733   0.88936   0.00000  Uiso   1.00
H1148  H     0.60334   0.75847   0.77771   0.00000  Uiso   1.00
H1149  H     0.53164   0.70770   0.75895   0.00000  Uiso   1.00
H1150  H     0.96809   0.95805   0.90713   0.00000  Uiso   1.00
N1151  N     0.73744   0.81881   0.67951   0.00000  Uiso   1.00
N1152  N     0.76255   0.84786   0.98716   0.00000  Uiso   1.00
O1153  O     0.75325   0.76204   0.87326   0.00000  Uiso   1.00
O1154  O     0.74674   0.90462   0.79341   0.00000  Uiso   1.00
O1155  O     0.74480   0.75226   0.76945   0.00000  Uiso   1.00
O1156  O     0.75520   0.91441   0.89721   0.00000  Uiso   1.00
O1157  O     0.68935   0.83821   0.88524   0.00000  Uiso   1.00
O1158  O     0.81064   0.82845   0.78143   0.00000  Uiso   1.00
O1159  O     0.68090   0.82843   0.78143   0.00000  Uiso   1.00
O1160  O     0.81910   0.83824   0.88523   0.00000  Uiso   1.00
C1161  C     0.87132   0.74289   0.75533   0.00000  Uiso   1.00
O1162  O     0.87852   0.73162   0.70225   0.00000  Uiso   1.00
O1163  O     0.83596   0.71547   0.77420   0.00000  Uiso   1.00
H1164  H     0.81892   0.68683   0.73979   0.00000  Uiso   1.00
C1165  C     0.62822   0.92388   0.91015   0.00000  Uiso   1.00
O1166  O     0.62090   0.93606   0.96315   0.00000  Uiso   1.00
O1167  O     0.66367   0.95075   0.89083   0.00000  Uiso   1.00
H1168  H     0.68082   0.97953   0.92499   0.00000  Uiso   1.00
C1169  C     0.94667   0.68345   0.76780   0.00000  Uiso   1.00
O1170  O     0.92139   0.67086   0.80212   0.00000  Uiso   1.00
O1171  O     0.95573   0.97934   0.71708   0.00000  Uiso   1.00
H1172  H     0.93852   0.94362   0.71285   0.00000  Uiso   1.00
C1173  C     0.55264   0.98202   0.89463   0.00000  Uiso   1.00
O1174  O     0.54605   0.68289   0.93850   0.00000  Uiso   1.00
O1175  O     0.57944   0.99446   0.85214   0.00000  Uiso   1.00
H1176  H     0.59044   0.69992   0.86181   0.00000  Uiso   1.00
C1177  C     0.72308   0.98064   0.75025   0.00000  Uiso   1.00
N1178  N     0.70706   0.95670   0.70261   0.00000  Uiso   1.00
C1179  C     0.77664   0.68602   0.91646   0.00000  Uiso   1.00
N1180  N     0.79247   0.71001   0.96416   0.00000  Uiso   1.00
C1181  C     0.70201   0.77746   0.98414   0.00000  Uiso   1.00
O1182  O     0.68303   0.75393   0.68304   0.00000  Uiso   1.00
O1183  O     0.68735   0.76225   0.92275   0.00000  Uiso   1.00
H1184  H     0.66226   0.73225   0.91142   0.00000  Uiso   1.00
C1185  C     0.79814   0.88911   0.68252   0.00000  Uiso   1.00
O1186  O     0.81720   0.91251   0.98358   0.00000  Uiso   1.00
O1187  O     0.81287   0.90440   0.74396   0.00000  Uiso   1.00
H1188  H     0.83893   0.93336   0.75513   0.00000  Uiso   1.00
loop_
_geom_bond_atom_site_label_1
_geom_bond_atom_site_label_2
_geom_bond_distance
_geom_bond_site_symmetry_2
_ccdc_geom_bond_type
C1     O31     1.297   .     A
C1     O33     1.312   .     A
C1     C5      1.439   .     S
C2     C6      1.439   .     S
C2     O34     1.313   .     A
C2     O32     1.297   .     A
C3     H27     1.086   .     S
C3     C20     1.394   .     A
C3     C87     1.395   1_455 S
C4     H28     1.086   .     S
C4     C19     1.393   .     A
C4     C88     1.395   .     S
C5     C270    1.367   1_545 S
C5     C319    1.454   1_545 S
C6     C137    1.367   .     S
C6     C189    1.454   .     S
C7     O37     1.309   .     A
C7     C12     1.458   .     S
C7     O35     1.310   .     A
C8     O38     1.309   .     A
C8     C11     1.457   .     S
C8     O36     1.310   .     A
C9     C11     1.389   .     A
C9     H25     1.086   .     S
C9     C19     1.387   .     A
C10    H26     1.086   .     S
C10    C12     1.391   .     A
C10    C20     1.389   .     A
C11    C13     1.414   .     A
C12    C14     1.414   .     A
C13    C15     1.422   .     A
C13    C39     1.479   .     S
C14    C16     1.421   .     A
C14    C43     1.479   .     S
C15    C21     1.428   .     A
C15    C17     1.422   .     A
C16    C18     1.422   .     A
C16    C22     1.426   .     A
C17    C19     1.409   .     A
C17    C84     1.409   .     S
C18    C20     1.409   .     A
C18    C83     1.409   1_455 S
C21    C47     1.484   .     S
C21    C69     1.395   .     S
C22    C51     1.482   .     S
C22    C70     1.395   1_455 S
Cu23   O38     1.963   .     S
Cu23   Cu24    2.736   .     S
Cu23   O34     1.974   .     S
Cu23   O35     1.964   .     S
Cu23   N30     2.056   .     S
Cu23   O31     1.971   .     S
Cu24   O33     1.974   .     S
Cu24   O37     1.963   .     S
Cu24   O36     1.964   .     S
Cu24   O32     1.971   .     S
Cu24   N29     2.056   .     S
N29    N822    1.304   1_554 S
N29    C851    1.443   1_554 S
N30    N425    1.304   .     S
N30    C459    1.445   .     S
C39    O40     1.223   .     D
C39    O41     1.394   .     S
O41    H42     1.013   .     S
C43    O44     1.223   .     D
C43    O45     1.393   .     S
O45    H46     1.013   .     S
C47    O48     1.223   .     D
C47    O313    1.399   1_545 S
O49    H50     1.014   .     S
O49    C179    1.399   .     S
C51    O53     1.398   .     S
C51    O184    1.223   .     S
O52    C315    1.223   1_545 S
O53    H186    1.013   .     S
H54    O317    1.013   1_545 S
C55    N56     1.156   .     T
C55    C137    1.454   .     S
C57    N58     1.156   .     T
C57    C270    1.454   1_545 S
C59    O61     1.381   .     S
C59    N425    1.443   .     S
C59    O456    1.220   .     S
O60    C851    1.220   1_554 S
O61    H62     1.013   .     S
C63    O65     1.383   .     S
C63    N822    1.445   1_554 S
C63    O856    1.220   1_554 S
O64    C459    1.220   .     S
O65    H66     1.014   .     S
C67    O97     1.297   .     A
C67    O99     1.312   .     A
C67    C71     1.439   .     S
C68    C72     1.439   .     S
C68    O100    1.313   .     A
C68    O98     1.297   .     A
C69    H93     1.086   .     S
C69    C86     1.394   .     A
C70    H94     1.086   .     S
C70    C85     1.393   .     A
C70    C22     1.395   1_655 S
C71    C336    1.367   1_545 S
C71    C385    1.454   1_545 S
C72    C203    1.367   .     S
C72    C255    1.454   .     S
C73    O103    1.309   .     A
C73    C78     1.458   .     S
C73    O101    1.310   .     A
C74    O104    1.309   .     A
C74    C77     1.457   .     S
C74    O102    1.310   .     A
C75    C77     1.389   .     A
C75    H91     1.086   .     S
C75    C85     1.387   .     A
C76    H92     1.086   .     S
C76    C78     1.391   .     A
C76    C86     1.389   .     A
C77    C79     1.414   .     A
C78    C80     1.414   .     A
C79    C81     1.422   .     A
C79    C105    1.479   .     S
C80    C82     1.421   .     A
C80    C109    1.479   .     S
C81    C87     1.428   .     A
C81    C83     1.422   .     A
C82    C84     1.422   .     A
C82    C88     1.426   .     A
C83    C85     1.409   .     A
C83    C18     1.409   1_655 S
C84    C86     1.409   .     A
C87    C113    1.484   .     S
C87    C3      1.395   1_655 S
C88    C117    1.482   .     S
Cu89   O104    1.963   .     S
Cu89   Cu90    2.736   .     S
Cu89   O100    1.974   .     S
Cu89   O101    1.964   .     S
Cu89   N96     2.056   .     S
Cu89   O97     1.971   .     S
Cu90   O99     1.974   .     S
Cu90   O103    1.963   .     S
Cu90   O102    1.964   .     S
Cu90   O98     1.971   .     S
Cu90   N95     2.056   .     S
N95    N888    1.304   1_554 S
N95    C917    1.443   1_554 S
N96    N491    1.304   .     S
N96    C525    1.445   .     S
C105   O106    1.223   .     D
C105   O107    1.394   .     S
O107   H108    1.013   .     S
C109   O110    1.223   .     D
C109   O111    1.393   .     S
O111   H112    1.013   .     S
C113   O114    1.223   .     D
C113   O379    1.399   1_545 S
O115   H116    1.014   .     S
O115   C245    1.399   .     S
C117   O119    1.398   .     S
C117   O250    1.223   .     S
O118   C381    1.223   1_545 S
O119   H252    1.013   .     S
H120   O383    1.013   1_545 S
C121   N122    1.156   .     T
C121   C203    1.454   .     S
C123   N124    1.156   .     T
C123   C336    1.454   1_545 S
C125   O127    1.381   .     S
C125   N491    1.443   .     S
C125   O522    1.220   .     S
O126   C917    1.220   1_554 S
O127   H128    1.013   .     S
C129   O131    1.383   .     S
C129   N888    1.445   1_554 S
C129   O922    1.220   1_554 S
O130   C525    1.220   .     S
O131   H132    1.014   .     S
C133   O163    1.297   .     A
C133   O165    1.312   .     A
C133   C137    1.439   .     S
C134   C138    1.439   .     S
C134   O166    1.313   .     A
C134   O164    1.297   .     A
C135   H159    1.086   .     S
C135   C152    1.394   .     A
C135   C219    1.395   1_455 S
C136   H160    1.086   .     S
C136   C151    1.393   .     A
C136   C220    1.395   .     S
C138   C269    1.367   .     S
C138   C321    1.454   .     S
C139   O169    1.309   .     A
C139   C144    1.458   .     S
C139   O167    1.310   .     A
C140   O170    1.309   .     A
C140   C143    1.457   .     S
C140   O168    1.310   .     A
C141   C143    1.389   .     A
C141   H157    1.086   .     S
C141   C151    1.387   .     A
C142   H158    1.086   .     S
C142   C144    1.391   .     A
C142   C152    1.389   .     A
C143   C145    1.414   .     A
C144   C146    1.414   .     A
C145   C147    1.422   .     A
C145   C171    1.479   .     S
C146   C148    1.421   .     A
C146   C175    1.479   .     S
C147   C153    1.428   .     A
C147   C149    1.422   .     A
C148   C150    1.422   .     A
C148   C154    1.426   .     A
C149   C151    1.409   .     A
C149   C216    1.409   .     S
C150   C152    1.409   .     A
C150   C215    1.409   1_455 S
C153   C179    1.484   .     S
C153   C201    1.395   .     S
C154   C183    1.482   .     S
C154   C202    1.395   1_455 S
Cu155  O170    1.963   .     S
Cu155  Cu156   2.736   .     S
Cu155  O166    1.974   .     S
Cu155  O167    1.964   .     S
Cu155  N162    2.056   .     S
Cu155  O163    1.971   .     S
Cu156  O165    1.974   .     S
Cu156  O169    1.963   .     S
Cu156  O168    1.964   .     S
Cu156  O164    1.971   .     S
Cu156  N161    2.056   .     S
N161   N954    1.304   1_554 S
N161   C983    1.443   1_554 S
N162   N557    1.304   .     S
N162   C591    1.445   .     S
C171   O172    1.223   .     D
C171   O173    1.394   .     S
O173   H174    1.013   .     S
C175   O176    1.223   .     D
C175   O177    1.393   .     S
O177   H178    1.013   .     S
C179   O180    1.223   .     D
O181   H182    1.014   .     S
O181   C311    1.399   .     S
C183   O185    1.398   .     S
C183   O316    1.223   .     S
O185   H318    1.013   .     S
C187   N188    1.156   .     T
C187   C269    1.454   .     S
C189   N190    1.156   .     T
C191   O193    1.381   .     S
C191   N557    1.443   .     S
C191   O588    1.220   .     S
O192   C983    1.220   1_554 S
O193   H194    1.013   .     S
C195   O197    1.383   .     S
C195   N954    1.445   1_554 S
C195   O988    1.220   1_554 S
O196   C591    1.220   .     S
O197   H198    1.014   .     S
C199   O229    1.297   .     A
C199   O231    1.312   .     A
C199   C203    1.439   .     S
C200   C204    1.439   .     S
C200   O232    1.313   .     A
C200   O230    1.297   .     A
C201   H225    1.086   .     S
C201   C218    1.394   .     A
C202   H226    1.086   .     S
C202   C217    1.393   .     A
C202   C154    1.395   1_655 S
C204   C335    1.367   .     S
C204   C387    1.454   .     S
C205   O235    1.309   .     A
C205   C210    1.458   .     S
C205   O233    1.310   .     A
C206   O236    1.309   .     A
C206   C209    1.457   .     S
C206   O234    1.310   .     A
C207   C209    1.389   .     A
C207   H223    1.086   .     S
C207   C217    1.387   .     A
C208   H224    1.086   .     S
C208   C210    1.391   .     A
C208   C218    1.389   .     A
C209   C211    1.414   .     A
C210   C212    1.414   .     A
C211   C213    1.422   .     A
C211   C237    1.479   .     S
C212   C214    1.421   .     A
C212   C241    1.479   .     S
C213   C219    1.428   .     A
C213   C215    1.422   .     A
C214   C216    1.422   .     A
C214   C220    1.426   .     A
C215   C217    1.409   .     A
C215   C150    1.409   1_655 S
C216   C218    1.409   .     A
C219   C245    1.484   .     S
C219   C135    1.395   1_655 S
C220   C249    1.482   .     S
Cu221  O236    1.963   .     S
Cu221  Cu222   2.736   .     S
Cu221  O232    1.974   .     S
Cu221  O233    1.964   .     S
Cu221  N228    2.056   .     S
Cu221  O229    1.971   .     S
Cu222  O231    1.974   .     S
Cu222  O235    1.963   .     S
Cu222  O234    1.964   .     S
Cu222  O230    1.971   .     S
Cu222  N227    2.056   .     S
N227   N1020   1.304   1_554 S
N227   C1049   1.443   1_554 S
N228   N623    1.304   .     S
N228   C657    1.445   .     S
C237   O238    1.223   .     D
C237   O239    1.394   .     S
O239   H240    1.013   .     S
C241   O242    1.223   .     D
C241   O243    1.393   .     S
O243   H244    1.013   .     S
C245   O246    1.223   .     D
O247   H248    1.014   .     S
O247   C377    1.399   .     S
C249   O251    1.398   .     S
C249   O382    1.223   .     S
O251   H384    1.013   .     S
C253   N254    1.156   .     T
C253   C335    1.454   .     S
C255   N256    1.156   .     T
C257   O259    1.381   .     S
C257   N623    1.443   .     S
C257   O654    1.220   .     S
O258   C1049   1.220   1_554 S
O259   H260    1.013   .     S
C261   O263    1.383   .     S
C261   N1020   1.445   1_554 S
C261   O1054   1.220   1_554 S
O262   C657    1.220   .     S
O263   H264    1.014   .     S
C265   O295    1.297   .     A
C265   O297    1.312   .     A
C265   C269    1.439   .     S
C266   C270    1.439   .     S
C266   O298    1.313   .     A
C266   O296    1.297   .     A
C267   H291    1.086   .     S
C267   C284    1.394   .     A
C267   C351    1.395   1_455 S
C268   H292    1.086   .     S
C268   C283    1.393   .     A
C268   C352    1.395   .     S
C270   C5      1.367   1_565 S
C270   C57     1.454   1_565 S
C271   O301    1.309   .     A
C271   C276    1.458   .     S
C271   O299    1.310   .     A
C272   O302    1.309   .     A
C272   C275    1.457   .     S
C272   O300    1.310   .     A
C273   C275    1.389   .     A
C273   H289    1.086   .     S
C273   C283    1.387   .     A
C274   H290    1.086   .     S
C274   C276    1.391   .     A
C274   C284    1.389   .     A
C275   C277    1.414   .     A
C276   C278    1.414   .     A
C277   C279    1.422   .     A
C277   C303    1.479   .     S
C278   C280    1.421   .     A
C278   C307    1.479   .     S
C279   C285    1.428   .     A
C279   C281    1.422   .     A
C280   C282    1.422   .     A
C280   C286    1.426   .     A
C281   C283    1.409   .     A
C281   C348    1.409   .     S
C282   C284    1.409   .     A
C282   C347    1.409   1_455 S
C285   C311    1.484   .     S
C285   C333    1.395   .     S
C286   C315    1.482   .     S
C286   C334    1.395   1_455 S
Cu287  O302    1.963   .     S
Cu287  Cu288   2.736   .     S
Cu287  O298    1.974   .     S
Cu287  O299    1.964   .     S
Cu287  N294    2.056   .     S
Cu287  O295    1.971   .     S
Cu288  O297    1.974   .     S
Cu288  O301    1.963   .     S
Cu288  O300    1.964   .     S
Cu288  O296    1.971   .     S
Cu288  N293    2.056   .     S
N293   N1086   1.304   1_554 S
N293   C1115   1.443   1_554 S
N294   N689    1.304   .     S
N294   C723    1.445   .     S
C303   O304    1.223   .     D
C303   O305    1.394   .     S
O305   H306    1.013   .     S
C307   O308    1.223   .     D
C307   O309    1.393   .     S
O309   H310    1.013   .     S
C311   O312    1.223   .     D
O313   H314    1.014   .     S
O313   C47     1.399   1_565 S
C315   O317    1.398   .     S
C315   O52     1.223   1_565 S
O317   H54     1.013   1_565 S
C319   N320    1.156   .     T
C319   C5      1.454   1_565 S
C321   N322    1.156   .     T
C323   O325    1.381   .     S
C323   N689    1.443   .     S
C323   O720    1.220   .     S
O324   C1115   1.220   1_554 S
O325   H326    1.013   .     S
C327   O329    1.383   .     S
C327   N1086   1.445   1_554 S
C327   O1120   1.220   1_554 S
O328   C723    1.220   .     S
O329   H330    1.014   .     S
C331   O361    1.297   .     A
C331   O363    1.312   .     A
C331   C335    1.439   .     S
C332   C336    1.439   .     S
C332   O364    1.313   .     A
C332   O362    1.297   .     A
C333   H357    1.086   .     S
C333   C350    1.394   .     A
C334   H358    1.086   .     S
C334   C349    1.393   .     A
C334   C286    1.395   1_655 S
C336   C71     1.367   1_565 S
C336   C123    1.454   1_565 S
C337   O367    1.309   .     A
C337   C342    1.458   .     S
C337   O365    1.310   .     A
C338   O368    1.309   .     A
C338   C341    1.457   .     S
C338   O366    1.310   .     A
C339   C341    1.389   .     A
C339   H355    1.086   .     S
C339   C349    1.387   .     A
C340   H356    1.086   .     S
C340   C342    1.391   .     A
C340   C350    1.389   .     A
C341   C343    1.414   .     A
C342   C344    1.414   .     A
C343   C345    1.422   .     A
C343   C369    1.479   .     S
C344   C346    1.421   .     A
C344   C373    1.479   .     S
C345   C351    1.428   .     A
C345   C347    1.422   .     A
C346   C348    1.422   .     A
C346   C352    1.426   .     A
C347   C349    1.409   .     A
C347   C282    1.409   1_655 S
C348   C350    1.409   .     A
C351   C377    1.484   .     S
C351   C267    1.395   1_655 S
C352   C381    1.482   .     S
Cu353  O368    1.963   .     S
Cu353  Cu354   2.736   .     S
Cu353  O364    1.974   .     S
Cu353  O365    1.964   .     S
Cu353  N360    2.056   .     S
Cu353  O361    1.971   .     S
Cu354  O363    1.974   .     S
Cu354  O367    1.963   .     S
Cu354  O366    1.964   .     S
Cu354  O362    1.971   .     S
Cu354  N359    2.056   .     S
N359   N1152   1.304   1_554 S
N359   C1181   1.443   1_554 S
N360   N755    1.304   .     S
N360   C789    1.445   .     S
C369   O370    1.223   .     D
C369   O371    1.394   .     S
O371   H372    1.013   .     S
C373   O374    1.223   .     D
C373   O375    1.393   .     S
O375   H376    1.013   .     S
C377   O378    1.223   .     D
O379   H380    1.014   .     S
O379   C113    1.399   1_565 S
C381   O383    1.398   .     S
C381   O118    1.223   1_565 S
O383   H120    1.013   1_565 S
C385   N386    1.156   .     T
C385   C71     1.454   1_565 S
C387   N388    1.156   .     T
C389   O391    1.381   .     S
C389   N755    1.443   .     S
C389   O786    1.220   .     S
O390   C1181   1.220   1_554 S
O391   H392    1.013   .     S
C393   O395    1.383   .     S
C393   N1152   1.445   1_554 S
C393   O1186   1.220   1_554 S
O394   C789    1.220   .     S
O395   H396    1.014   .     S
C397   O427    1.297   .     A
C397   O429    1.312   .     A
C397   C401    1.439   .     S
C398   C402    1.439   .     S
C398   O430    1.313   .     A
C398   O428    1.297   .     A
C399   H423    1.086   .     S
C399   C416    1.394   .     A
C399   C483    1.395   1_455 S
C400   H424    1.086   .     S
C400   C415    1.393   .     A
C400   C484    1.395   .     S
C401   C666    1.367   1_545 S
C401   C715    1.454   1_545 S
C402   C533    1.367   .     S
C402   C585    1.454   .     S
C403   O433    1.309   .     A
C403   C408    1.458   .     S
C403   O431    1.310   .     A
C404   O434    1.309   .     A
C404   C407    1.457   .     S
C404   O432    1.310   .     A
C405   C407    1.389   .     A
C405   H421    1.086   .     S
C405   C415    1.387   .     A
C406   H422    1.086   .     S
C406   C408    1.391   .     A
C406   C416    1.389   .     A
C407   C409    1.414   .     A
C408   C410    1.414   .     A
C409   C411    1.422   .     A
C409   C435    1.479   .     S
C410   C412    1.421   .     A
C410   C439    1.479   .     S
C411   C417    1.428   .     A
C411   C413    1.422   .     A
C412   C414    1.422   .     A
C412   C418    1.426   .     A
C413   C415    1.409   .     A
C413   C480    1.409   .     S
C414   C416    1.409   .     A
C414   C479    1.409   1_455 S
C417   C443    1.484   .     S
C417   C465    1.395   .     S
C418   C447    1.482   .     S
C418   C466    1.395   1_455 S
Cu419  O434    1.963   .     S
Cu419  Cu420   2.736   .     S
Cu419  O430    1.974   .     S
Cu419  O431    1.964   .     S
Cu419  N426    2.056   .     S
Cu419  O427    1.971   .     S
Cu420  O429    1.974   .     S
Cu420  O433    1.963   .     S
Cu420  O432    1.964   .     S
Cu420  O428    1.971   .     S
Cu420  N425    2.056   .     S
N426   N821    1.304   .     S
N426   C855    1.445   .     S
C435   O436    1.223   .     D
C435   O437    1.394   .     S
O437   H438    1.013   .     S
C439   O440    1.223   .     D
C439   O441    1.393   .     S
O441   H442    1.013   .     S
C443   O444    1.223   .     D
C443   O709    1.399   1_545 S
O445   H446    1.014   .     S
O445   C575    1.399   .     S
C447   O449    1.398   .     S
C447   O580    1.223   .     S
O448   C711    1.223   1_545 S
O449   H582    1.013   .     S
H450   O713    1.013   1_545 S
C451   N452    1.156   .     T
C451   C533    1.454   .     S
C453   N454    1.156   .     T
C453   C666    1.454   1_545 S
C455   O457    1.381   .     S
C455   N821    1.443   .     S
C455   O852    1.220   .     S
O457   H458    1.013   .     S
C459   O461    1.383   .     S
O460   C855    1.220   .     S
O461   H462    1.014   .     S
C463   O493    1.297   .     A
C463   O495    1.312   .     A
C463   C467    1.439   .     S
C464   C468    1.439   .     S
C464   O496    1.313   .     A
C464   O494    1.297   .     A
C465   H489    1.086   .     S
C465   C482    1.394   .     A
C466   H490    1.086   .     S
C466   C481    1.393   .     A
C466   C418    1.395   1_655 S
C467   C732    1.367   1_545 S
C467   C781    1.454   1_545 S
C468   C599    1.367   .     S
C468   C651    1.454   .     S
C469   O499    1.309   .     A
C469   C474    1.458   .     S
C469   O497    1.310   .     A
C470   O500    1.309   .     A
C470   C473    1.457   .     S
C470   O498    1.310   .     A
C471   C473    1.389   .     A
C471   H487    1.086   .     S
C471   C481    1.387   .     A
C472   H488    1.086   .     S
C472   C474    1.391   .     A
C472   C482    1.389   .     A
C473   C475    1.414   .     A
C474   C476    1.414   .     A
C475   C477    1.422   .     A
C475   C501    1.479   .     S
C476   C478    1.421   .     A
C476   C505    1.479   .     S
C477   C483    1.428   .     A
C477   C479    1.422   .     A
C478   C480    1.422   .     A
C478   C484    1.426   .     A
C479   C481    1.409   .     A
C479   C414    1.409   1_655 S
C480   C482    1.409   .     A
C483   C509    1.484   .     S
C483   C399    1.395   1_655 S
C484   C513    1.482   .     S
Cu485  O500    1.963   .     S
Cu485  Cu486   2.736   .     S
Cu485  O496    1.974   .     S
Cu485  O497    1.964   .     S
Cu485  N492    2.056   .     S
Cu485  O493    1.971   .     S
Cu486  O495    1.974   .     S
Cu486  O499    1.963   .     S
Cu486  O498    1.964   .     S
Cu486  O494    1.971   .     S
Cu486  N491    2.056   .     S
N492   N887    1.304   .     S
N492   C921    1.445   .     S
C501   O502    1.223   .     D
C501   O503    1.394   .     S
O503   H504    1.013   .     S
C505   O506    1.223   .     D
C505   O507    1.393   .     S
O507   H508    1.013   .     S
C509   O510    1.223   .     D
C509   O775    1.399   1_545 S
O511   H512    1.014   .     S
O511   C641    1.399   .     S
C513   O515    1.398   .     S
C513   O646    1.223   .     S
O514   C777    1.223   1_545 S
O515   H648    1.013   .     S
H516   O779    1.013   1_545 S
C517   N518    1.156   .     T
C517   C599    1.454   .     S
C519   N520    1.156   .     T
C519   C732    1.454   1_545 S
C521   O523    1.381   .     S
C521   N887    1.443   .     S
C521   O918    1.220   .     S
O523   H524    1.013   .     S
C525   O527    1.383   .     S
O526   C921    1.220   .     S
O527   H528    1.014   .     S
C529   O559    1.297   .     A
C529   O561    1.312   .     A
C529   C533    1.439   .     S
C530   C534    1.439   .     S
C530   O562    1.313   .     A
C530   O560    1.297   .     A
C531   H555    1.086   .     S
C531   C548    1.394   .     A
C531   C615    1.395   1_455 S
C532   H556    1.086   .     S
C532   C547    1.393   .     A
C532   C616    1.395   .     S
C534   C665    1.367   .     S
C534   C717    1.454   .     S
C535   O565    1.309   .     A
C535   C540    1.458   .     S
C535   O563    1.310   .     A
C536   O566    1.309   .     A
C536   C539    1.457   .     S
C536   O564    1.310   .     A
C537   C539    1.389   .     A
C537   H553    1.086   .     S
C537   C547    1.387   .     A
C538   H554    1.086   .     S
C538   C540    1.391   .     A
C538   C548    1.389   .     A
C539   C541    1.414   .     A
C540   C542    1.414   .     A
C541   C543    1.422   .     A
C541   C567    1.479   .     S
C542   C544    1.421   .     A
C542   C571    1.479   .     S
C543   C549    1.428   .     A
C543   C545    1.422   .     A
C544   C546    1.422   .     A
C544   C550    1.426   .     A
C545   C547    1.409   .     A
C545   C612    1.409   .     S
C546   C548    1.409   .     A
C546   C611    1.409   1_455 S
C549   C575    1.484   .     S
C549   C597    1.395   .     S
C550   C579    1.482   .     S
C550   C598    1.395   1_455 S
Cu551  O566    1.963   .     S
Cu551  Cu552   2.736   .     S
Cu551  O562    1.974   .     S
Cu551  O563    1.964   .     S
Cu551  N558    2.056   .     S
Cu551  O559    1.971   .     S
Cu552  O561    1.974   .     S
Cu552  O565    1.963   .     S
Cu552  O564    1.964   .     S
Cu552  O560    1.971   .     S
Cu552  N557    2.056   .     S
N558   N953    1.304   .     S
N558   C987    1.445   .     S
C567   O568    1.223   .     D
C567   O569    1.394   .     S
O569   H570    1.013   .     S
C571   O572    1.223   .     D
C571   O573    1.393   .     S
O573   H574    1.013   .     S
C575   O576    1.223   .     D
O577   H578    1.014   .     S
O577   C707    1.399   .     S
C579   O581    1.398   .     S
C579   O712    1.223   .     S
O581   H714    1.013   .     S
C583   N584    1.156   .     T
C583   C665    1.454   .     S
C585   N586    1.156   .     T
C587   O589    1.381   .     S
C587   N953    1.443   .     S
C587   O984    1.220   .     S
O589   H590    1.013   .     S
C591   O593    1.383   .     S
O592   C987    1.220   .     S
O593   H594    1.014   .     S
C595   O625    1.297   .     A
C595   O627    1.312   .     A
C595   C599    1.439   .     S
C596   C600    1.439   .     S
C596   O628    1.313   .     A
C596   O626    1.297   .     A
C597   H621    1.086   .     S
C597   C614    1.394   .     A
C598   H622    1.086   .     S
C598   C613    1.393   .     A
C598   C550    1.395   1_655 S
C600   C731    1.367   .     S
C600   C783    1.454   .     S
C601   O631    1.309   .     A
C601   C606    1.458   .     S
C601   O629    1.310   .     A
C602   O632    1.309   .     A
C602   C605    1.457   .     S
C602   O630    1.310   .     A
C603   C605    1.389   .     A
C603   H619    1.086   .     S
C603   C613    1.387   .     A
C604   H620    1.086   .     S
C604   C606    1.391   .     A
C604   C614    1.389   .     A
C605   C607    1.414   .     A
C606   C608    1.414   .     A
C607   C609    1.422   .     A
C607   C633    1.479   .     S
C608   C610    1.421   .     A
C608   C637    1.479   .     S
C609   C615    1.428   .     A
C609   C611    1.422   .     A
C610   C612    1.422   .     A
C610   C616    1.426   .     A
C611   C613    1.409   .     A
C611   C546    1.409   1_655 S
C612   C614    1.409   .     A
C615   C641    1.484   .     S
C615   C531    1.395   1_655 S
C616   C645    1.482   .     S
Cu617  O632    1.963   .     S
Cu617  Cu618   2.736   .     S
Cu617  O628    1.974   .     S
Cu617  O629    1.964   .     S
Cu617  N624    2.056   .     S
Cu617  O625    1.971   .     S
Cu618  O627    1.974   .     S
Cu618  O631    1.963   .     S
Cu618  O630    1.964   .     S
Cu618  O626    1.971   .     S
Cu618  N623    2.056   .     S
N624   N1019   1.304   .     S
N624   C1053   1.445   .     S
C633   O634    1.223   .     D
C633   O635    1.394   .     S
O635   H636    1.013   .     S
C637   O638    1.223   .     D
C637   O639    1.393   .     S
O639   H640    1.013   .     S
C641   O642    1.223   .     D
O643   H644    1.014   .     S
O643   C773    1.399   .     S
C645   O647    1.398   .     S
C645   O778    1.223   .     S
O647   H780    1.013   .     S
C649   N650    1.156   .     T
C649   C731    1.454   .     S
C651   N652    1.156   .     T
C653   O655    1.381   .     S
C653   N1019   1.443   .     S
C653   O1050   1.220   .     S
O655   H656    1.013   .     S
C657   O659    1.383   .     S
O658   C1053   1.220   .     S
O659   H660    1.014   .     S
C661   O691    1.297   .     A
C661   O693    1.312   .     A
C661   C665    1.439   .     S
C662   C666    1.439   .     S
C662   O694    1.313   .     A
C662   O692    1.297   .     A
C663   H687    1.086   .     S
C663   C680    1.394   .     A
C663   C747    1.395   1_455 S
C664   H688    1.086   .     S
C664   C679    1.393   .     A
C664   C748    1.395   .     S
C666   C401    1.367   1_565 S
C666   C453    1.454   1_565 S
C667   O697    1.309   .     A
C667   C672    1.458   .     S
C667   O695    1.310   .     A
C668   O698    1.309   .     A
C668   C671    1.457   .     S
C668   O696    1.310   .     A
C669   C671    1.389   .     A
C669   H685    1.086   .     S
C669   C679    1.387   .     A
C670   H686    1.086   .     S
C670   C672    1.391   .     A
C670   C680    1.389   .     A
C671   C673    1.414   .     A
C672   C674    1.414   .     A
C673   C675    1.422   .     A
C673   C699    1.479   .     S
C674   C676    1.421   .     A
C674   C703    1.479   .     S
C675   C681    1.428   .     A
C675   C677    1.422   .     A
C676   C678    1.422   .     A
C676   C682    1.426   .     A
C677   C679    1.409   .     A
C677   C744    1.409   .     S
C678   C680    1.409   .     A
C678   C743    1.409   1_455 S
C681   C707    1.484   .     S
C681   C729    1.395   .     S
C682   C711    1.482   .     S
C682   C730    1.395   1_455 S
Cu683  O698    1.963   .     S
Cu683  Cu684   2.736   .     S
Cu683  O694    1.974   .     S
Cu683  O695    1.964   .     S
Cu683  N690    2.056   .     S
Cu683  O691    1.971   .     S
Cu684  O693    1.974   .     S
Cu684  O697    1.963   .     S
Cu684  O696    1.964   .     S
Cu684  O692    1.971   .     S
Cu684  N689    2.056   .     S
N690   N1085   1.304   .     S
N690   C1119   1.445   .     S
C699   O700    1.223   .     D
C699   O701    1.394   .     S
O701   H702    1.013   .     S
C703   O704    1.223   .     D
C703   O705    1.393   .     S
O705   H706    1.013   .     S
C707   O708    1.223   .     D
O709   H710    1.014   .     S
O709   C443    1.399   1_565 S
C711   O713    1.398   .     S
C711   O448    1.223   1_565 S
O713   H450    1.013   1_565 S
C715   N716    1.156   .     T
C715   C401    1.454   1_565 S
C717   N718    1.156   .     T
C719   O721    1.381   .     S
C719   N1085   1.443   .     S
C719   O1116   1.220   .     S
O721   H722    1.013   .     S
C723   O725    1.383   .     S
O724   C1119   1.220   .     S
O725   H726    1.014   .     S
C727   O757    1.297   .     A
C727   O759    1.312   .     A
C727   C731    1.439   .     S
C728   C732    1.439   .     S
C728   O760    1.313   .     A
C728   O758    1.297   .     A
C729   H753    1.086   .     S
C729   C746    1.394   .     A
C730   H754    1.086   .     S
C730   C745    1.393   .     A
C730   C682    1.395   1_655 S
C732   C467    1.367   1_565 S
C732   C519    1.454   1_565 S
C733   O763    1.309   .     A
C733   C738    1.458   .     S
C733   O761    1.310   .     A
C734   O764    1.309   .     A
C734   C737    1.457   .     S
C734   O762    1.310   .     A
C735   C737    1.389   .     A
C735   H751    1.086   .     S
C735   C745    1.387   .     A
C736   H752    1.086   .     S
C736   C738    1.391   .     A
C736   C746    1.389   .     A
C737   C739    1.414   .     A
C738   C740    1.414   .     A
C739   C741    1.422   .     A
C739   C765    1.479   .     S
C740   C742    1.421   .     A
C740   C769    1.479   .     S
C741   C747    1.428   .     A
C741   C743    1.422   .     A
C742   C744    1.422   .     A
C742   C748    1.426   .     A
C743   C745    1.409   .     A
C743   C678    1.409   1_655 S
C744   C746    1.409   .     A
C747   C773    1.484   .     S
C747   C663    1.395   1_655 S
C748   C777    1.482   .     S
Cu749  O764    1.963   .     S
Cu749  Cu750   2.736   .     S
Cu749  O760    1.974   .     S
Cu749  O761    1.964   .     S
Cu749  N756    2.056   .     S
Cu749  O757    1.971   .     S
Cu750  O759    1.974   .     S
Cu750  O763    1.963   .     S
Cu750  O762    1.964   .     S
Cu750  O758    1.971   .     S
Cu750  N755    2.056   .     S
N756   N1151   1.304   .     S
N756   C1185   1.445   .     S
C765   O766    1.223   .     D
C765   O767    1.394   .     S
O767   H768    1.013   .     S
C769   O770    1.223   .     D
C769   O771    1.393   .     S
O771   H772    1.013   .     S
C773   O774    1.223   .     D
O775   H776    1.014   .     S
O775   C509    1.399   1_565 S
C777   O779    1.398   .     S
C777   O514    1.223   1_565 S
O779   H516    1.013   1_565 S
C781   N782    1.156   .     T
C781   C467    1.454   1_565 S
C783   N784    1.156   .     T
C785   O787    1.381   .     S
C785   N1151   1.443   .     S
C785   O1182   1.220   .     S
O787   H788    1.013   .     S
C789   O791    1.383   .     S
O790   C1185   1.220   .     S
O791   H792    1.014   .     S
C793   O823    1.297   .     A
C793   O825    1.312   .     A
C793   C797    1.439   .     S
C794   C798    1.439   .     S
C794   O826    1.313   .     A
C794   O824    1.297   .     A
C795   H819    1.086   .     S
C795   C812    1.394   .     A
C795   C879    1.395   1_455 S
C796   H820    1.086   .     S
C796   C811    1.393   .     A
C796   C880    1.395   .     S
C797   C1062   1.367   1_545 S
C797   C1111   1.454   1_545 S
C798   C929    1.367   .     S
C798   C981    1.454   .     S
C799   O829    1.309   .     A
C799   C804    1.458   .     S
C799   O827    1.310   .     A
C800   O830    1.309   .     A
C800   C803    1.457   .     S
C800   O828    1.310   .     A
C801   C803    1.389   .     A
C801   H817    1.086   .     S
C801   C811    1.387   .     A
C802   H818    1.086   .     S
C802   C804    1.391   .     A
C802   C812    1.389   .     A
C803   C805    1.414   .     A
C804   C806    1.414   .     A
C805   C807    1.422   .     A
C805   C831    1.479   .     S
C806   C808    1.421   .     A
C806   C835    1.479   .     S
C807   C813    1.428   .     A
C807   C809    1.422   .     A
C808   C810    1.422   .     A
C808   C814    1.426   .     A
C809   C811    1.409   .     A
C809   C876    1.409   .     S
C810   C812    1.409   .     A
C810   C875    1.409   1_455 S
C813   C839    1.484   .     S
C813   C861    1.395   .     S
C814   C843    1.482   .     S
C814   C862    1.395   1_455 S
Cu815  O830    1.963   .     S
Cu815  Cu816   2.736   .     S
Cu815  O826    1.974   .     S
Cu815  O827    1.964   .     S
Cu815  N822    2.056   .     S
Cu815  O823    1.971   .     S
Cu816  O825    1.974   .     S
Cu816  O829    1.963   .     S
Cu816  O828    1.964   .     S
Cu816  O824    1.971   .     S
Cu816  N821    2.056   .     S
N822   N29     1.304   1_556 S
N822   C63     1.445   1_556 S
C831   O832    1.223   .     D
C831   O833    1.394   .     S
O833   H834    1.013   .     S
C835   O836    1.223   .     D
C835   O837    1.393   .     S
O837   H838    1.013   .     S
C839   O840    1.223   .     D
C839   O1105   1.399   1_545 S
O841   H842    1.014   .     S
O841   C971    1.399   .     S
C843   O845    1.398   .     S
C843   O976    1.223   .     S
O844   C1107   1.223   1_545 S
O845   H978    1.013   .     S
H846   O1109   1.013   1_545 S
C847   N848    1.156   .     T
C847   C929    1.454   .     S
C849   N850    1.156   .     T
C849   C1062   1.454   1_545 S
C851   O853    1.381   .     S
C851   N29     1.443   1_556 S
C851   O60     1.220   1_556 S
O853   H854    1.013   .     S
C855   O857    1.383   .     S
O856   C63     1.220   1_556 S
O857   H858    1.014   .     S
C859   O889    1.297   .     A
C859   O891    1.312   .     A
C859   C863    1.439   .     S
C860   C864    1.439   .     S
C860   O892    1.313   .     A
C860   O890    1.297   .     A
C861   H885    1.086   .     S
C861   C878    1.394   .     A
C862   H886    1.086   .     S
C862   C877    1.393   .     A
C862   C814    1.395   1_655 S
C863   C1128   1.367   1_545 S
C863   C1177   1.454   1_545 S
C864   C995    1.367   .     S
C864   C1047   1.454   .     S
C865   O895    1.309   .     A
C865   C870    1.458   .     S
C865   O893    1.310   .     A
C866   O896    1.309   .     A
C866   C869    1.457   .     S
C866   O894    1.310   .     A
C867   C869    1.389   .     A
C867   H883    1.086   .     S
C867   C877    1.387   .     A
C868   H884    1.086   .     S
C868   C870    1.391   .     A
C868   C878    1.389   .     A
C869   C871    1.414   .     A
C870   C872    1.414   .     A
C871   C873    1.422   .     A
C871   C897    1.479   .     S
C872   C874    1.421   .     A
C872   C901    1.479   .     S
C873   C879    1.428   .     A
C873   C875    1.422   .     A
C874   C876    1.422   .     A
C874   C880    1.426   .     A
C875   C877    1.409   .     A
C875   C810    1.409   1_655 S
C876   C878    1.409   .     A
C879   C905    1.484   .     S
C879   C795    1.395   1_655 S
C880   C909    1.482   .     S
Cu881  O896    1.963   .     S
Cu881  Cu882   2.736   .     S
Cu881  O892    1.974   .     S
Cu881  O893    1.964   .     S
Cu881  N888    2.056   .     S
Cu881  O889    1.971   .     S
Cu882  O891    1.974   .     S
Cu882  O895    1.963   .     S
Cu882  O894    1.964   .     S
Cu882  O890    1.971   .     S
Cu882  N887    2.056   .     S
N888   N95     1.304   1_556 S
N888   C129    1.445   1_556 S
C897   O898    1.223   .     D
C897   O899    1.394   .     S
O899   H900    1.013   .     S
C901   O902    1.223   .     D
C901   O903    1.393   .     S
O903   H904    1.013   .     S
C905   O906    1.223   .     D
C905   O1171   1.399   1_545 S
O907   H908    1.014   .     S
O907   C1037   1.399   .     S
C909   O911    1.398   .     S
C909   O1042   1.223   .     S
O910   C1173   1.223   1_545 S
O911   H1044   1.013   .     S
H912   O1175   1.013   1_545 S
C913   N914    1.156   .     T
C913   C995    1.454   .     S
C915   N916    1.156   .     T
C915   C1128   1.454   1_545 S
C917   O919    1.381   .     S
C917   N95     1.443   1_556 S
C917   O126    1.220   1_556 S
O919   H920    1.013   .     S
C921   O923    1.383   .     S
O922   C129    1.220   1_556 S
O923   H924    1.014   .     S
C925   O955    1.297   .     A
C925   O957    1.312   .     A
C925   C929    1.439   .     S
C926   C930    1.439   .     S
C926   O958    1.313   .     A
C926   O956    1.297   .     A
C927   H951    1.086   .     S
C927   C944    1.394   .     A
C927   C1011   1.395   1_455 S
C928   H952    1.086   .     S
C928   C943    1.393   .     A
C928   C1012   1.395   .     S
C930   C1061   1.367   .     S
C930   C1113   1.454   .     S
C931   O961    1.309   .     A
C931   C936    1.458   .     S
C931   O959    1.310   .     A
C932   O962    1.309   .     A
C932   C935    1.457   .     S
C932   O960    1.310   .     A
C933   C935    1.389   .     A
C933   H949    1.086   .     S
C933   C943    1.387   .     A
C934   H950    1.086   .     S
C934   C936    1.391   .     A
C934   C944    1.389   .     A
C935   C937    1.414   .     A
C936   C938    1.414   .     A
C937   C939    1.422   .     A
C937   C963    1.479   .     S
C938   C940    1.421   .     A
C938   C967    1.479   .     S
C939   C945    1.428   .     A
C939   C941    1.422   .     A
C940   C942    1.422   .     A
C940   C946    1.426   .     A
C941   C943    1.409   .     A
C941   C1008   1.409   .     S
C942   C944    1.409   .     A
C942   C1007   1.409   1_455 S
C945   C971    1.484   .     S
C945   C993    1.395   .     S
C946   C975    1.482   .     S
C946   C994    1.395   1_455 S
Cu947  O962    1.963   .     S
Cu947  Cu948   2.736   .     S
Cu947  O958    1.974   .     S
Cu947  O959    1.964   .     S
Cu947  N954    2.056   .     S
Cu947  O955    1.971   .     S
Cu948  O957    1.974   .     S
Cu948  O961    1.963   .     S
Cu948  O960    1.964   .     S
Cu948  O956    1.971   .     S
Cu948  N953    2.056   .     S
N954   N161    1.304   1_556 S
N954   C195    1.445   1_556 S
C963   O964    1.223   .     D
C963   O965    1.394   .     S
O965   H966    1.013   .     S
C967   O968    1.223   .     D
C967   O969    1.393   .     S
O969   H970    1.013   .     S
C971   O972    1.223   .     D
O973   H974    1.014   .     S
O973   C1103   1.399   .     S
C975   O977    1.398   .     S
C975   O1108   1.223   .     S
O977   H1110   1.013   .     S
C979   N980    1.156   .     T
C979   C1061   1.454   .     S
C981   N982    1.156   .     T
C983   O985    1.381   .     S
C983   N161    1.443   1_556 S
C983   O192    1.220   1_556 S
O985   H986    1.013   .     S
C987   O989    1.383   .     S
O988   C195    1.220   1_556 S
O989   H990    1.014   .     S
C991   O1021   1.297   .     A
C991   O1023   1.312   .     A
C991   C995    1.439   .     S
C992   C996    1.439   .     S
C992   O1024   1.313   .     A
C992   O1022   1.297   .     A
C993   H1017   1.086   .     S
C993   C1010   1.394   .     A
C994   H1018   1.086   .     S
C994   C1009   1.393   .     A
C994   C946    1.395   1_655 S
C996   C1127   1.367   .     S
C996   C1179   1.454   .     S
C997   O1027   1.309   .     A
C997   C1002   1.458   .     S
C997   O1025   1.310   .     A
C998   O1028   1.309   .     A
C998   C1001   1.457   .     S
C998   O1026   1.310   .     A
C999   C1001   1.389   .     A
C999   H1015   1.086   .     S
C999   C1009   1.387   .     A
C1000  H1016   1.086   .     S
C1000  C1002   1.391   .     A
C1000  C1010   1.389   .     A
C1001  C1003   1.414   .     A
C1002  C1004   1.414   .     A
C1003  C1005   1.422   .     A
C1003  C1029   1.479   .     S
C1004  C1006   1.421   .     A
C1004  C1033   1.479   .     S
C1005  C1011   1.428   .     A
C1005  C1007   1.422   .     A
C1006  C1008   1.422   .     A
C1006  C1012   1.426   .     A
C1007  C1009   1.409   .     A
C1007  C942    1.409   1_655 S
C1008  C1010   1.409   .     A
C1011  C1037   1.484   .     S
C1011  C927    1.395   1_655 S
C1012  C1041   1.482   .     S
Cu1013 O1028   1.963   .     S
Cu1013 Cu1014  2.736   .     S
Cu1013 O1024   1.974   .     S
Cu1013 O1025   1.964   .     S
Cu1013 N1020   2.056   .     S
Cu1013 O1021   1.971   .     S
Cu1014 O1023   1.974   .     S
Cu1014 O1027   1.963   .     S
Cu1014 O1026   1.964   .     S
Cu1014 O1022   1.971   .     S
Cu1014 N1019   2.056   .     S
N1020  N227    1.304   1_556 S
N1020  C261    1.445   1_556 S
C1029  O1030   1.223   .     D
C1029  O1031   1.394   .     S
O1031  H1032   1.013   .     S
C1033  O1034   1.223   .     D
C1033  O1035   1.393   .     S
O1035  H1036   1.013   .     S
C1037  O1038   1.223   .     D
O1039  H1040   1.014   .     S
O1039  C1169   1.399   .     S
C1041  O1043   1.398   .     S
C1041  O1174   1.223   .     S
O1043  H1176   1.013   .     S
C1045  N1046   1.156   .     T
C1045  C1127   1.454   .     S
C1047  N1048   1.156   .     T
C1049  O1051   1.381   .     S
C1049  N227    1.443   1_556 S
C1049  O258    1.220   1_556 S
O1051  H1052   1.013   .     S
C1053  O1055   1.383   .     S
O1054  C261    1.220   1_556 S
O1055  H1056   1.014   .     S
C1057  O1087   1.297   .     A
C1057  O1089   1.312   .     A
C1057  C1061   1.439   .     S
C1058  C1062   1.439   .     S
C1058  O1090   1.313   .     A
C1058  O1088   1.297   .     A
C1059  H1083   1.086   .     S
C1059  C1076   1.394   .     A
C1059  C1143   1.395   1_455 S
C1060  H1084   1.086   .     S
C1060  C1075   1.393   .     A
C1060  C1144   1.395   .     S
C1062  C797    1.367   1_565 S
C1062  C849    1.454   1_565 S
C1063  O1093   1.309   .     A
C1063  C1068   1.458   .     S
C1063  O1091   1.310   .     A
C1064  O1094   1.309   .     A
C1064  C1067   1.457   .     S
C1064  O1092   1.310   .     A
C1065  C1067   1.389   .     A
C1065  H1081   1.086   .     S
C1065  C1075   1.387   .     A
C1066  H1082   1.086   .     S
C1066  C1068   1.391   .     A
C1066  C1076   1.389   .     A
C1067  C1069   1.414   .     A
C1068  C1070   1.414   .     A
C1069  C1071   1.422   .     A
C1069  C1095   1.479   .     S
C1070  C1072   1.421   .     A
C1070  C1099   1.479   .     S
C1071  C1077   1.428   .     A
C1071  C1073   1.422   .     A
C1072  C1074   1.422   .     A
C1072  C1078   1.426   .     A
C1073  C1075   1.409   .     A
C1073  C1140   1.409   .     S
C1074  C1076   1.409   .     A
C1074  C1139   1.409   1_455 S
C1077  C1103   1.484   .     S
C1077  C1125   1.395   .     S
C1078  C1107   1.482   .     S
C1078  C1126   1.395   1_455 S
Cu1079 O1094   1.963   .     S
Cu1079 Cu1080  2.736   .     S
Cu1079 O1090   1.974   .     S
Cu1079 O1091   1.964   .     S
Cu1079 N1086   2.056   .     S
Cu1079 O1087   1.971   .     S
Cu1080 O1089   1.974   .     S
Cu1080 O1093   1.963   .     S
Cu1080 O1092   1.964   .     S
Cu1080 O1088   1.971   .     S
Cu1080 N1085   2.056   .     S
N1086  N293    1.304   1_556 S
N1086  C327    1.445   1_556 S
C1095  O1096   1.223   .     D
C1095  O1097   1.394   .     S
O1097  H1098   1.013   .     S
C1099  O1100   1.223   .     D
C1099  O1101   1.393   .     S
O1101  H1102   1.013   .     S
C1103  O1104   1.223   .     D
O1105  H1106   1.014   .     S
O1105  C839    1.399   1_565 S
C1107  O1109   1.398   .     S
C1107  O844    1.223   1_565 S
O1109  H846    1.013   1_565 S
C1111  N1112   1.156   .     T
C1111  C797    1.454   1_565 S
C1113  N1114   1.156   .     T
C1115  O1117   1.381   .     S
C1115  N293    1.443   1_556 S
C1115  O324    1.220   1_556 S
O1117  H1118   1.013   .     S
C1119  O1121   1.383   .     S
O1120  C327    1.220   1_556 S
O1121  H1122   1.014   .     S
C1123  O1153   1.297   .     A
C1123  O1155   1.312   .     A
C1123  C1127   1.439   .     S
C1124  C1128   1.439   .     S
C1124  O1156   1.313   .     A
C1124  O1154   1.297   .     A
C1125  H1149   1.086   .     S
C1125  C1142   1.394   .     A
C1126  H1150   1.086   .     S
C1126  C1141   1.393   .     A
C1126  C1078   1.395   1_655 S
C1128  C863    1.367   1_565 S
C1128  C915    1.454   1_565 S
C1129  O1159   1.309   .     A
C1129  C1134   1.458   .     S
C1129  O1157   1.310   .     A
C1130  O1160   1.309   .     A
C1130  C1133   1.457   .     S
C1130  O1158   1.310   .     A
C1131  C1133   1.389   .     A
C1131  H1147   1.086   .     S
C1131  C1141   1.387   .     A
C1132  H1148   1.086   .     S
C1132  C1134   1.391   .     A
C1132  C1142   1.389   .     A
C1133  C1135   1.414   .     A
C1134  C1136   1.414   .     A
C1135  C1137   1.422   .     A
C1135  C1161   1.479   .     S
C1136  C1138   1.421   .     A
C1136  C1165   1.479   .     S
C1137  C1143   1.428   .     A
C1137  C1139   1.422   .     A
C1138  C1140   1.422   .     A
C1138  C1144   1.426   .     A
C1139  C1141   1.409   .     A
C1139  C1074   1.409   1_655 S
C1140  C1142   1.409   .     A
C1143  C1169   1.484   .     S
C1143  C1059   1.395   1_655 S
C1144  C1173   1.482   .     S
Cu1145 O1160   1.963   .     S
Cu1145 Cu1146  2.736   .     S
Cu1145 O1156   1.974   .     S
Cu1145 O1157   1.964   .     S
Cu1145 N1152   2.056   .     S
Cu1145 O1153   1.971   .     S
Cu1146 O1155   1.974   .     S
Cu1146 O1159   1.963   .     S
Cu1146 O1158   1.964   .     S
Cu1146 O1154   1.971   .     S
Cu1146 N1151   2.056   .     S
N1152  N359    1.304   1_556 S
N1152  C393    1.445   1_556 S
C1161  O1162   1.223   .     D
C1161  O1163   1.394   .     S
O1163  H1164   1.013   .     S
C1165  O1166   1.223   .     D
C1165  O1167   1.393   .     S
O1167  H1168   1.013   .     S
C1169  O1170   1.223   .     D
O1171  H1172   1.014   .     S
O1171  C905    1.399   1_565 S
C1173  O1175   1.398   .     S
C1173  O910    1.223   1_565 S
O1175  H912    1.013   1_565 S
C1177  N1178   1.156   .     T
C1177  C863    1.454   1_565 S
C1179  N1180   1.156   .     T
C1181  O1183   1.381   .     S
C1181  N359    1.443   1_556 S
C1181  O390    1.220   1_556 S
O1183  H1184   1.013   .     S
C1185  O1187   1.383   .     S
O1186  C393    1.220   1_556 S
O1187  H1188   1.014   .     S
