data_str_m3_o1_o2_pcu_sym.41
_audit_creation_date              2020-01-03
_audit_creation_method            'Materials Studio'
_symmetry_space_group_name_H-M    'P1'
_symmetry_Int_Tables_number       1
_symmetry_cell_setting            triclinic
loop_
_symmetry_equiv_pos_as_xyz
  x,y,z
_cell_length_a                    31.9160
_cell_length_b                    29.5518
_cell_length_c                    30.0034
_cell_angle_alpha                 89.9637
_cell_angle_beta                  90.1215
_cell_angle_gamma                 89.9860
loop_
_atom_site_label
_atom_site_type_symbol
_atom_site_fract_x
_atom_site_fract_y
_atom_site_fract_z
_atom_site_U_iso_or_equiv
_atom_site_adp_type
_atom_site_occupancy
C1     C     0.08685   0.16667   0.24998   0.00000  Uiso   1.00
C2     C     0.31185   0.18203   0.28836   0.00000  Uiso   1.00
C3     C     0.31169   0.15132   0.21165   0.00000  Uiso   1.00
C4     C     0.02164   0.18199   0.28836   0.00000  Uiso   1.00
C5     C     0.15366   0.20475   0.04679   0.00000  Uiso   1.00
C6     C     0.15374   0.12863   0.45316   0.00000  Uiso   1.00
C7     C     0.18342   0.20449   0.45275   0.00000  Uiso   1.00
C8     C     0.18340   0.12890   0.04733   0.00000  Uiso   1.00
C9     C     0.15313   0.20479   0.09279   0.00000  Uiso   1.00
C10    C     0.15327   0.12855   0.40716   0.00000  Uiso   1.00
C11    C     0.18254   0.20462   0.40674   0.00000  Uiso   1.00
C12    C     0.24648   0.16666   0.25002   0.00000  Uiso   1.00
C13    C     0.18248   0.12875   0.09332   0.00000  Uiso   1.00
C14    C     0.16737   0.16671   0.11603   0.00000  Uiso   1.00
C15    C     0.16748   0.16663   0.38397   0.00000  Uiso   1.00
C16    C     0.16882   0.16682   0.02406   0.00000  Uiso   1.00
C17    C     0.16884   0.16658   0.47595   0.00000  Uiso   1.00
C18    C     0.29054   0.16667   0.25001   0.00000  Uiso   1.00
C19    C     0.04279   0.16667   0.24999   0.00000  Uiso   1.00
C20    C     0.16674   0.16668   0.16392   0.00000  Uiso   1.00
C21    C     0.16681   0.16666   0.33608   0.00000  Uiso   1.00
C22    C     0.19173   0.02394   0.27873   0.00000  Uiso   1.00
C23    C     0.14160   0.30939   0.22127   0.00000  Uiso   1.00
C24    C     0.14160   0.02400   0.22128   0.00000  Uiso   1.00
C25    C     0.19173   0.30933   0.27873   0.00000  Uiso   1.00
C26    C     0.02148   0.15133   0.21164   0.00000  Uiso   1.00
H27    H     0.21178   0.04207   0.30170   0.00000  Uiso   1.00
H28    H     0.14185   0.09942   0.47094   0.00000  Uiso   1.00
H29    H     0.19566   0.23374   0.47021   0.00000  Uiso   1.00
H30    H     0.19568   0.09967   0.02992   0.00000  Uiso   1.00
H31    H     0.07132   0.14522   0.17357   0.00000  Uiso   1.00
H32    H     0.26198   0.18839   0.32635   0.00000  Uiso   1.00
H33    H     0.26169   0.14519   0.17360   0.00000  Uiso   1.00
H34    H     0.07160   0.18787   0.32647   0.00000  Uiso   1.00
H35    H     0.12156   0.29126   0.19829   0.00000  Uiso   1.00
H36    H     0.12155   0.04217   0.19831   0.00000  Uiso   1.00
H37    H     0.21178   0.29116   0.30170   0.00000  Uiso   1.00
H38    H     0.14110   0.23420   0.11012   0.00000  Uiso   1.00
H39    H     0.14127   0.09913   0.38979   0.00000  Uiso   1.00
H40    H     0.19406   0.23404   0.38903   0.00000  Uiso   1.00
H41    H     0.19400   0.09931   0.11107   0.00000  Uiso   1.00
H42    H     0.14176   0.23396   0.02895   0.00000  Uiso   1.00
N43    N     0.16667   0.28573   0.25000   0.00000  Uiso   1.00
N44    N     0.16667   0.04760   0.25000   0.00000  Uiso   1.00
O45    O     0.10559   0.20487   0.25000   0.00000  Uiso   1.00
O46    O     0.29202   0.19643   0.32690   0.00000  Uiso   1.00
O47    O     0.29170   0.13697   0.17310   0.00000  Uiso   1.00
O48    O     0.04164   0.19627   0.32692   0.00000  Uiso   1.00
O49    O     0.22774   0.12846   0.25001   0.00000  Uiso   1.00
O50    O     0.22774   0.20487   0.25001   0.00000  Uiso   1.00
O51    O     0.10559   0.12846   0.25000   0.00000  Uiso   1.00
O52    O     0.16666   0.20489   0.18453   0.00000  Uiso   1.00
O53    O     0.16667   0.12845   0.31547   0.00000  Uiso   1.00
O54    O     0.16667   0.20489   0.31547   0.00000  Uiso   1.00
O55    O     0.16666   0.12845   0.18453   0.00000  Uiso   1.00
O56    O     0.04132   0.13700   0.17308   0.00000  Uiso   1.00
Zn57   Zn    0.16667   0.21771   0.25000   0.00000  Uiso   1.00
Zn58   Zn    0.16667   0.11563   0.25000   0.00000  Uiso   1.00
C59    C     0.42018   0.16667   0.24998   0.00000  Uiso   1.00
C60    C     0.64518   0.18203   0.28836   0.00000  Uiso   1.00
C61    C     0.64502   0.15132   0.21165   0.00000  Uiso   1.00
C62    C     0.35497   0.18199   0.28836   0.00000  Uiso   1.00
C63    C     0.48699   0.20475   0.04679   0.00000  Uiso   1.00
C64    C     0.48707   0.12863   0.45316   0.00000  Uiso   1.00
C65    C     0.51675   0.20449   0.45275   0.00000  Uiso   1.00
C66    C     0.51674   0.12890   0.04733   0.00000  Uiso   1.00
C67    C     0.48647   0.20479   0.09279   0.00000  Uiso   1.00
C68    C     0.48660   0.12855   0.40716   0.00000  Uiso   1.00
C69    C     0.51588   0.20462   0.40674   0.00000  Uiso   1.00
C70    C     0.57982   0.16666   0.25002   0.00000  Uiso   1.00
C71    C     0.51581   0.12875   0.09332   0.00000  Uiso   1.00
C72    C     0.50071   0.16671   0.11603   0.00000  Uiso   1.00
C73    C     0.50081   0.16663   0.38397   0.00000  Uiso   1.00
C74    C     0.50215   0.16682   0.02406   0.00000  Uiso   1.00
C75    C     0.50217   0.16658   0.47595   0.00000  Uiso   1.00
C76    C     0.62387   0.16667   0.25001   0.00000  Uiso   1.00
C77    C     0.37612   0.16667   0.24999   0.00000  Uiso   1.00
C78    C     0.50007   0.16668   0.16392   0.00000  Uiso   1.00
C79    C     0.50014   0.16666   0.33608   0.00000  Uiso   1.00
C80    C     0.52506   0.02394   0.27873   0.00000  Uiso   1.00
C81    C     0.47494   0.30939   0.22127   0.00000  Uiso   1.00
C82    C     0.47493   0.02400   0.22128   0.00000  Uiso   1.00
C83    C     0.52506   0.30933   0.27873   0.00000  Uiso   1.00
C84    C     0.35482   0.15133   0.21164   0.00000  Uiso   1.00
H85    H     0.54512   0.04207   0.30170   0.00000  Uiso   1.00
H86    H     0.47518   0.09942   0.47094   0.00000  Uiso   1.00
H87    H     0.52899   0.23374   0.47021   0.00000  Uiso   1.00
H88    H     0.52902   0.09967   0.02992   0.00000  Uiso   1.00
H89    H     0.40466   0.14522   0.17357   0.00000  Uiso   1.00
H90    H     0.59531   0.18839   0.32635   0.00000  Uiso   1.00
H91    H     0.59503   0.14519   0.17360   0.00000  Uiso   1.00
H92    H     0.40494   0.18787   0.32647   0.00000  Uiso   1.00
H93    H     0.45489   0.29126   0.19829   0.00000  Uiso   1.00
H94    H     0.45488   0.04217   0.19831   0.00000  Uiso   1.00
H95    H     0.54511   0.29116   0.30170   0.00000  Uiso   1.00
H96    H     0.47443   0.23420   0.11012   0.00000  Uiso   1.00
H97    H     0.47460   0.09913   0.38979   0.00000  Uiso   1.00
H98    H     0.52740   0.23404   0.38903   0.00000  Uiso   1.00
H99    H     0.52734   0.09931   0.11107   0.00000  Uiso   1.00
H100   H     0.47509   0.23396   0.02895   0.00000  Uiso   1.00
N101   N     0.50000   0.28573   0.25000   0.00000  Uiso   1.00
N102   N     0.50000   0.04760   0.25000   0.00000  Uiso   1.00
O103   O     0.43892   0.20487   0.25000   0.00000  Uiso   1.00
O104   O     0.62535   0.19643   0.32690   0.00000  Uiso   1.00
O105   O     0.62503   0.13697   0.17310   0.00000  Uiso   1.00
O106   O     0.37498   0.19627   0.32692   0.00000  Uiso   1.00
O107   O     0.56108   0.12846   0.25001   0.00000  Uiso   1.00
O108   O     0.56108   0.20487   0.25001   0.00000  Uiso   1.00
O109   O     0.43892   0.12846   0.25000   0.00000  Uiso   1.00
O110   O     0.50000   0.20489   0.18453   0.00000  Uiso   1.00
O111   O     0.50000   0.12845   0.31547   0.00000  Uiso   1.00
O112   O     0.50000   0.20489   0.31547   0.00000  Uiso   1.00
O113   O     0.50000   0.12845   0.18453   0.00000  Uiso   1.00
O114   O     0.37465   0.13700   0.17308   0.00000  Uiso   1.00
Zn115  Zn    0.50000   0.21771   0.25000   0.00000  Uiso   1.00
Zn116  Zn    0.50000   0.11563   0.25000   0.00000  Uiso   1.00
C117   C     0.75352   0.16667   0.24998   0.00000  Uiso   1.00
C118   C     0.97851   0.18203   0.28836   0.00000  Uiso   1.00
C119   C     0.97836   0.15132   0.21165   0.00000  Uiso   1.00
C120   C     0.68831   0.18199   0.28836   0.00000  Uiso   1.00
C121   C     0.82032   0.20475   0.04679   0.00000  Uiso   1.00
C122   C     0.82041   0.12863   0.45316   0.00000  Uiso   1.00
C123   C     0.85009   0.20449   0.45275   0.00000  Uiso   1.00
C124   C     0.85007   0.12890   0.04733   0.00000  Uiso   1.00
C125   C     0.81980   0.20479   0.09279   0.00000  Uiso   1.00
C126   C     0.81993   0.12855   0.40716   0.00000  Uiso   1.00
C127   C     0.84921   0.20462   0.40674   0.00000  Uiso   1.00
C128   C     0.91315   0.16666   0.25002   0.00000  Uiso   1.00
C129   C     0.84914   0.12875   0.09332   0.00000  Uiso   1.00
C130   C     0.83404   0.16671   0.11603   0.00000  Uiso   1.00
C131   C     0.83414   0.16663   0.38397   0.00000  Uiso   1.00
C132   C     0.83549   0.16682   0.02406   0.00000  Uiso   1.00
C133   C     0.83551   0.16658   0.47595   0.00000  Uiso   1.00
C134   C     0.95721   0.16667   0.25001   0.00000  Uiso   1.00
C135   C     0.70945   0.16667   0.24999   0.00000  Uiso   1.00
C136   C     0.83341   0.16668   0.16392   0.00000  Uiso   1.00
C137   C     0.83347   0.16666   0.33608   0.00000  Uiso   1.00
C138   C     0.85840   0.02394   0.27873   0.00000  Uiso   1.00
C139   C     0.80827   0.30939   0.22127   0.00000  Uiso   1.00
C140   C     0.80827   0.02400   0.22128   0.00000  Uiso   1.00
C141   C     0.85840   0.30933   0.27873   0.00000  Uiso   1.00
C142   C     0.68815   0.15133   0.21164   0.00000  Uiso   1.00
H143   H     0.87845   0.04207   0.30170   0.00000  Uiso   1.00
H144   H     0.80852   0.09942   0.47094   0.00000  Uiso   1.00
H145   H     0.86232   0.23374   0.47021   0.00000  Uiso   1.00
H146   H     0.86235   0.09967   0.02992   0.00000  Uiso   1.00
H147   H     0.73799   0.14522   0.17357   0.00000  Uiso   1.00
H148   H     0.92864   0.18839   0.32635   0.00000  Uiso   1.00
H149   H     0.92836   0.14519   0.17360   0.00000  Uiso   1.00
H150   H     0.73827   0.18787   0.32647   0.00000  Uiso   1.00
H151   H     0.78823   0.29126   0.19829   0.00000  Uiso   1.00
H152   H     0.78821   0.04217   0.19831   0.00000  Uiso   1.00
H153   H     0.87845   0.29116   0.30170   0.00000  Uiso   1.00
H154   H     0.80776   0.23420   0.11012   0.00000  Uiso   1.00
H155   H     0.80794   0.09913   0.38979   0.00000  Uiso   1.00
H156   H     0.86073   0.23404   0.38903   0.00000  Uiso   1.00
H157   H     0.86067   0.09931   0.11107   0.00000  Uiso   1.00
H158   H     0.80843   0.23396   0.02895   0.00000  Uiso   1.00
N159   N     0.83333   0.28573   0.25000   0.00000  Uiso   1.00
N160   N     0.83333   0.04760   0.25000   0.00000  Uiso   1.00
O161   O     0.77226   0.20487   0.25000   0.00000  Uiso   1.00
O162   O     0.95868   0.19643   0.32690   0.00000  Uiso   1.00
O163   O     0.95836   0.13697   0.17310   0.00000  Uiso   1.00
O164   O     0.70831   0.19627   0.32692   0.00000  Uiso   1.00
O165   O     0.89441   0.12846   0.25001   0.00000  Uiso   1.00
O166   O     0.89441   0.20487   0.25001   0.00000  Uiso   1.00
O167   O     0.77226   0.12846   0.25000   0.00000  Uiso   1.00
O168   O     0.83333   0.20489   0.18453   0.00000  Uiso   1.00
O169   O     0.83334   0.12845   0.31547   0.00000  Uiso   1.00
O170   O     0.83334   0.20489   0.31547   0.00000  Uiso   1.00
O171   O     0.83333   0.12845   0.18453   0.00000  Uiso   1.00
O172   O     0.70799   0.13700   0.17308   0.00000  Uiso   1.00
Zn173  Zn    0.83333   0.21771   0.25000   0.00000  Uiso   1.00
Zn174  Zn    0.83333   0.11563   0.25000   0.00000  Uiso   1.00
C175   C     0.08685   0.50000   0.24998   0.00000  Uiso   1.00
C176   C     0.31185   0.51536   0.28836   0.00000  Uiso   1.00
C177   C     0.31169   0.48465   0.21165   0.00000  Uiso   1.00
C178   C     0.02164   0.51532   0.28836   0.00000  Uiso   1.00
C179   C     0.15366   0.53808   0.04679   0.00000  Uiso   1.00
C180   C     0.15374   0.46196   0.45316   0.00000  Uiso   1.00
C181   C     0.18342   0.53782   0.45275   0.00000  Uiso   1.00
C182   C     0.18340   0.46224   0.04733   0.00000  Uiso   1.00
C183   C     0.15313   0.53813   0.09279   0.00000  Uiso   1.00
C184   C     0.15327   0.46189   0.40716   0.00000  Uiso   1.00
C185   C     0.18254   0.53795   0.40674   0.00000  Uiso   1.00
C186   C     0.24648   0.50000   0.25002   0.00000  Uiso   1.00
C187   C     0.18248   0.46208   0.09332   0.00000  Uiso   1.00
C188   C     0.16737   0.50004   0.11603   0.00000  Uiso   1.00
C189   C     0.16748   0.49997   0.38397   0.00000  Uiso   1.00
C190   C     0.16882   0.50015   0.02406   0.00000  Uiso   1.00
C191   C     0.16884   0.49991   0.47595   0.00000  Uiso   1.00
C192   C     0.29054   0.50000   0.25001   0.00000  Uiso   1.00
C193   C     0.04279   0.50000   0.24999   0.00000  Uiso   1.00
C194   C     0.16674   0.50001   0.16392   0.00000  Uiso   1.00
C195   C     0.16681   0.49999   0.33608   0.00000  Uiso   1.00
C196   C     0.19173   0.35728   0.27873   0.00000  Uiso   1.00
C197   C     0.14160   0.64272   0.22127   0.00000  Uiso   1.00
C198   C     0.14160   0.35733   0.22128   0.00000  Uiso   1.00
C199   C     0.19173   0.64266   0.27873   0.00000  Uiso   1.00
C200   C     0.02148   0.48466   0.21164   0.00000  Uiso   1.00
H201   H     0.21178   0.37540   0.30170   0.00000  Uiso   1.00
H202   H     0.14185   0.43276   0.47094   0.00000  Uiso   1.00
H203   H     0.19566   0.56707   0.47021   0.00000  Uiso   1.00
H204   H     0.19568   0.43300   0.02992   0.00000  Uiso   1.00
H205   H     0.07132   0.47855   0.17357   0.00000  Uiso   1.00
H206   H     0.26198   0.52172   0.32635   0.00000  Uiso   1.00
H207   H     0.26169   0.47852   0.17360   0.00000  Uiso   1.00
H208   H     0.07160   0.52120   0.32647   0.00000  Uiso   1.00
H209   H     0.12156   0.62459   0.19829   0.00000  Uiso   1.00
H210   H     0.12155   0.37550   0.19831   0.00000  Uiso   1.00
H211   H     0.21178   0.62449   0.30170   0.00000  Uiso   1.00
H212   H     0.14110   0.56753   0.11012   0.00000  Uiso   1.00
H213   H     0.14127   0.43246   0.38979   0.00000  Uiso   1.00
H214   H     0.19406   0.56738   0.38903   0.00000  Uiso   1.00
H215   H     0.19400   0.43264   0.11107   0.00000  Uiso   1.00
H216   H     0.14176   0.56729   0.02895   0.00000  Uiso   1.00
N217   N     0.16667   0.61907   0.25000   0.00000  Uiso   1.00
N218   N     0.16667   0.38093   0.25000   0.00000  Uiso   1.00
O219   O     0.10559   0.53821   0.25000   0.00000  Uiso   1.00
O220   O     0.29202   0.52976   0.32690   0.00000  Uiso   1.00
O221   O     0.29170   0.47030   0.17310   0.00000  Uiso   1.00
O222   O     0.04164   0.52960   0.32692   0.00000  Uiso   1.00
O223   O     0.22774   0.46179   0.25001   0.00000  Uiso   1.00
O224   O     0.22774   0.53821   0.25001   0.00000  Uiso   1.00
O225   O     0.10559   0.46179   0.25000   0.00000  Uiso   1.00
O226   O     0.16666   0.53822   0.18453   0.00000  Uiso   1.00
O227   O     0.16667   0.46178   0.31547   0.00000  Uiso   1.00
O228   O     0.16667   0.53822   0.31547   0.00000  Uiso   1.00
O229   O     0.16666   0.46178   0.18453   0.00000  Uiso   1.00
O230   O     0.04132   0.47033   0.17308   0.00000  Uiso   1.00
Zn231  Zn    0.16667   0.55104   0.25000   0.00000  Uiso   1.00
Zn232  Zn    0.16667   0.44896   0.25000   0.00000  Uiso   1.00
C233   C     0.42018   0.50000   0.24998   0.00000  Uiso   1.00
C234   C     0.64518   0.51536   0.28836   0.00000  Uiso   1.00
C235   C     0.64502   0.48465   0.21165   0.00000  Uiso   1.00
C236   C     0.35497   0.51532   0.28836   0.00000  Uiso   1.00
C237   C     0.48699   0.53808   0.04679   0.00000  Uiso   1.00
C238   C     0.48707   0.46196   0.45316   0.00000  Uiso   1.00
C239   C     0.51675   0.53782   0.45275   0.00000  Uiso   1.00
C240   C     0.51674   0.46224   0.04733   0.00000  Uiso   1.00
C241   C     0.48647   0.53813   0.09279   0.00000  Uiso   1.00
C242   C     0.48660   0.46189   0.40716   0.00000  Uiso   1.00
C243   C     0.51588   0.53795   0.40674   0.00000  Uiso   1.00
C244   C     0.57982   0.50000   0.25002   0.00000  Uiso   1.00
C245   C     0.51581   0.46208   0.09332   0.00000  Uiso   1.00
C246   C     0.50071   0.50004   0.11603   0.00000  Uiso   1.00
C247   C     0.50081   0.49997   0.38397   0.00000  Uiso   1.00
C248   C     0.50215   0.50015   0.02406   0.00000  Uiso   1.00
C249   C     0.50217   0.49991   0.47595   0.00000  Uiso   1.00
C250   C     0.62387   0.50000   0.25001   0.00000  Uiso   1.00
C251   C     0.37612   0.50000   0.24999   0.00000  Uiso   1.00
C252   C     0.50007   0.50001   0.16392   0.00000  Uiso   1.00
C253   C     0.50014   0.49999   0.33608   0.00000  Uiso   1.00
C254   C     0.52506   0.35728   0.27873   0.00000  Uiso   1.00
C255   C     0.47494   0.64272   0.22127   0.00000  Uiso   1.00
C256   C     0.47493   0.35733   0.22128   0.00000  Uiso   1.00
C257   C     0.52506   0.64266   0.27873   0.00000  Uiso   1.00
C258   C     0.35482   0.48466   0.21164   0.00000  Uiso   1.00
H259   H     0.54512   0.37540   0.30170   0.00000  Uiso   1.00
H260   H     0.47518   0.43276   0.47094   0.00000  Uiso   1.00
H261   H     0.52899   0.56707   0.47021   0.00000  Uiso   1.00
H262   H     0.52902   0.43300   0.02992   0.00000  Uiso   1.00
H263   H     0.40466   0.47855   0.17357   0.00000  Uiso   1.00
H264   H     0.59531   0.52172   0.32635   0.00000  Uiso   1.00
H265   H     0.59503   0.47852   0.17360   0.00000  Uiso   1.00
H266   H     0.40494   0.52120   0.32647   0.00000  Uiso   1.00
H267   H     0.45489   0.62459   0.19829   0.00000  Uiso   1.00
H268   H     0.45488   0.37550   0.19831   0.00000  Uiso   1.00
H269   H     0.54511   0.62449   0.30170   0.00000  Uiso   1.00
H270   H     0.47443   0.56753   0.11012   0.00000  Uiso   1.00
H271   H     0.47460   0.43246   0.38979   0.00000  Uiso   1.00
H272   H     0.52740   0.56738   0.38903   0.00000  Uiso   1.00
H273   H     0.52734   0.43264   0.11107   0.00000  Uiso   1.00
H274   H     0.47509   0.56729   0.02895   0.00000  Uiso   1.00
N275   N     0.50000   0.61907   0.25000   0.00000  Uiso   1.00
N276   N     0.50000   0.38093   0.25000   0.00000  Uiso   1.00
O277   O     0.43892   0.53821   0.25000   0.00000  Uiso   1.00
O278   O     0.62535   0.52976   0.32690   0.00000  Uiso   1.00
O279   O     0.62503   0.47030   0.17310   0.00000  Uiso   1.00
O280   O     0.37498   0.52960   0.32692   0.00000  Uiso   1.00
O281   O     0.56108   0.46179   0.25001   0.00000  Uiso   1.00
O282   O     0.56108   0.53821   0.25001   0.00000  Uiso   1.00
O283   O     0.43892   0.46179   0.25000   0.00000  Uiso   1.00
O284   O     0.50000   0.53822   0.18453   0.00000  Uiso   1.00
O285   O     0.50000   0.46178   0.31547   0.00000  Uiso   1.00
O286   O     0.50000   0.53822   0.31547   0.00000  Uiso   1.00
O287   O     0.50000   0.46178   0.18453   0.00000  Uiso   1.00
O288   O     0.37465   0.47033   0.17308   0.00000  Uiso   1.00
Zn289  Zn    0.50000   0.55104   0.25000   0.00000  Uiso   1.00
Zn290  Zn    0.50000   0.44896   0.25000   0.00000  Uiso   1.00
C291   C     0.75352   0.50000   0.24998   0.00000  Uiso   1.00
C292   C     0.97851   0.51536   0.28836   0.00000  Uiso   1.00
C293   C     0.97836   0.48465   0.21165   0.00000  Uiso   1.00
C294   C     0.68831   0.51532   0.28836   0.00000  Uiso   1.00
C295   C     0.82032   0.53808   0.04679   0.00000  Uiso   1.00
C296   C     0.82041   0.46196   0.45316   0.00000  Uiso   1.00
C297   C     0.85009   0.53782   0.45275   0.00000  Uiso   1.00
C298   C     0.85007   0.46224   0.04733   0.00000  Uiso   1.00
C299   C     0.81980   0.53813   0.09279   0.00000  Uiso   1.00
C300   C     0.81993   0.46189   0.40716   0.00000  Uiso   1.00
C301   C     0.84921   0.53795   0.40674   0.00000  Uiso   1.00
C302   C     0.91315   0.50000   0.25002   0.00000  Uiso   1.00
C303   C     0.84914   0.46208   0.09332   0.00000  Uiso   1.00
C304   C     0.83404   0.50004   0.11603   0.00000  Uiso   1.00
C305   C     0.83414   0.49997   0.38397   0.00000  Uiso   1.00
C306   C     0.83549   0.50015   0.02406   0.00000  Uiso   1.00
C307   C     0.83551   0.49991   0.47595   0.00000  Uiso   1.00
C308   C     0.95721   0.50000   0.25001   0.00000  Uiso   1.00
C309   C     0.70945   0.50000   0.24999   0.00000  Uiso   1.00
C310   C     0.83341   0.50001   0.16392   0.00000  Uiso   1.00
C311   C     0.83347   0.49999   0.33608   0.00000  Uiso   1.00
C312   C     0.85840   0.35728   0.27873   0.00000  Uiso   1.00
C313   C     0.80827   0.64272   0.22127   0.00000  Uiso   1.00
C314   C     0.80827   0.35733   0.22128   0.00000  Uiso   1.00
C315   C     0.85840   0.64266   0.27873   0.00000  Uiso   1.00
C316   C     0.68815   0.48466   0.21164   0.00000  Uiso   1.00
H317   H     0.87845   0.37540   0.30170   0.00000  Uiso   1.00
H318   H     0.80852   0.43276   0.47094   0.00000  Uiso   1.00
H319   H     0.86232   0.56707   0.47021   0.00000  Uiso   1.00
H320   H     0.86235   0.43300   0.02992   0.00000  Uiso   1.00
H321   H     0.73799   0.47855   0.17357   0.00000  Uiso   1.00
H322   H     0.92864   0.52172   0.32635   0.00000  Uiso   1.00
H323   H     0.92836   0.47852   0.17360   0.00000  Uiso   1.00
H324   H     0.73827   0.52120   0.32647   0.00000  Uiso   1.00
H325   H     0.78823   0.62459   0.19829   0.00000  Uiso   1.00
H326   H     0.78821   0.37550   0.19831   0.00000  Uiso   1.00
H327   H     0.87845   0.62449   0.30170   0.00000  Uiso   1.00
H328   H     0.80776   0.56753   0.11012   0.00000  Uiso   1.00
H329   H     0.80794   0.43246   0.38979   0.00000  Uiso   1.00
H330   H     0.86073   0.56738   0.38903   0.00000  Uiso   1.00
H331   H     0.86067   0.43264   0.11107   0.00000  Uiso   1.00
H332   H     0.80843   0.56729   0.02895   0.00000  Uiso   1.00
N333   N     0.83333   0.61907   0.25000   0.00000  Uiso   1.00
N334   N     0.83333   0.38093   0.25000   0.00000  Uiso   1.00
O335   O     0.77226   0.53821   0.25000   0.00000  Uiso   1.00
O336   O     0.95868   0.52976   0.32690   0.00000  Uiso   1.00
O337   O     0.95836   0.47030   0.17310   0.00000  Uiso   1.00
O338   O     0.70831   0.52960   0.32692   0.00000  Uiso   1.00
O339   O     0.89441   0.46179   0.25001   0.00000  Uiso   1.00
O340   O     0.89441   0.53821   0.25001   0.00000  Uiso   1.00
O341   O     0.77226   0.46179   0.25000   0.00000  Uiso   1.00
O342   O     0.83333   0.53822   0.18453   0.00000  Uiso   1.00
O343   O     0.83334   0.46178   0.31547   0.00000  Uiso   1.00
O344   O     0.83334   0.53822   0.31547   0.00000  Uiso   1.00
O345   O     0.83333   0.46178   0.18453   0.00000  Uiso   1.00
O346   O     0.70799   0.47033   0.17308   0.00000  Uiso   1.00
Zn347  Zn    0.83333   0.55104   0.25000   0.00000  Uiso   1.00
Zn348  Zn    0.83333   0.44896   0.25000   0.00000  Uiso   1.00
C349   C     0.08685   0.83334   0.24998   0.00000  Uiso   1.00
C350   C     0.31185   0.84870   0.28836   0.00000  Uiso   1.00
C351   C     0.31169   0.81799   0.21165   0.00000  Uiso   1.00
C352   C     0.02164   0.84865   0.28836   0.00000  Uiso   1.00
C353   C     0.15366   0.87142   0.04679   0.00000  Uiso   1.00
C354   C     0.15374   0.79529   0.45316   0.00000  Uiso   1.00
C355   C     0.18342   0.87116   0.45275   0.00000  Uiso   1.00
C356   C     0.18340   0.79557   0.04733   0.00000  Uiso   1.00
C357   C     0.15313   0.87146   0.09279   0.00000  Uiso   1.00
C358   C     0.15327   0.79522   0.40716   0.00000  Uiso   1.00
C359   C     0.18254   0.87128   0.40674   0.00000  Uiso   1.00
C360   C     0.24648   0.83333   0.25002   0.00000  Uiso   1.00
C361   C     0.18248   0.79541   0.09332   0.00000  Uiso   1.00
C362   C     0.16737   0.83338   0.11603   0.00000  Uiso   1.00
C363   C     0.16748   0.83330   0.38397   0.00000  Uiso   1.00
C364   C     0.16882   0.83349   0.02406   0.00000  Uiso   1.00
C365   C     0.16884   0.83325   0.47595   0.00000  Uiso   1.00
C366   C     0.29054   0.83333   0.25001   0.00000  Uiso   1.00
C367   C     0.04279   0.83333   0.24999   0.00000  Uiso   1.00
C368   C     0.16674   0.83335   0.16392   0.00000  Uiso   1.00
C369   C     0.16681   0.83332   0.33608   0.00000  Uiso   1.00
C370   C     0.19173   0.69061   0.27873   0.00000  Uiso   1.00
C371   C     0.14160   0.97605   0.22127   0.00000  Uiso   1.00
C372   C     0.14160   0.69067   0.22128   0.00000  Uiso   1.00
C373   C     0.19173   0.97600   0.27873   0.00000  Uiso   1.00
C374   C     0.02148   0.81800   0.21164   0.00000  Uiso   1.00
H375   H     0.21178   0.70874   0.30170   0.00000  Uiso   1.00
H376   H     0.14185   0.76609   0.47094   0.00000  Uiso   1.00
H377   H     0.19566   0.90040   0.47021   0.00000  Uiso   1.00
H378   H     0.19568   0.76634   0.02992   0.00000  Uiso   1.00
H379   H     0.07132   0.81189   0.17357   0.00000  Uiso   1.00
H380   H     0.26198   0.85505   0.32635   0.00000  Uiso   1.00
H381   H     0.26169   0.81186   0.17360   0.00000  Uiso   1.00
H382   H     0.07160   0.85453   0.32647   0.00000  Uiso   1.00
H383   H     0.12156   0.95793   0.19829   0.00000  Uiso   1.00
H384   H     0.12155   0.70884   0.19831   0.00000  Uiso   1.00
H385   H     0.21178   0.95782   0.30170   0.00000  Uiso   1.00
H386   H     0.14110   0.90086   0.11012   0.00000  Uiso   1.00
H387   H     0.14127   0.76580   0.38979   0.00000  Uiso   1.00
H388   H     0.19406   0.90071   0.38903   0.00000  Uiso   1.00
H389   H     0.19400   0.76598   0.11107   0.00000  Uiso   1.00
H390   H     0.14176   0.90062   0.02895   0.00000  Uiso   1.00
N391   N     0.16667   0.95240   0.25000   0.00000  Uiso   1.00
N392   N     0.16667   0.71427   0.25000   0.00000  Uiso   1.00
O393   O     0.10559   0.87154   0.25000   0.00000  Uiso   1.00
O394   O     0.29202   0.86309   0.32690   0.00000  Uiso   1.00
O395   O     0.29170   0.80364   0.17310   0.00000  Uiso   1.00
O396   O     0.04164   0.86294   0.32692   0.00000  Uiso   1.00
O397   O     0.22774   0.79513   0.25001   0.00000  Uiso   1.00
O398   O     0.22774   0.87154   0.25001   0.00000  Uiso   1.00
O399   O     0.10559   0.79513   0.25000   0.00000  Uiso   1.00
O400   O     0.16666   0.87155   0.18453   0.00000  Uiso   1.00
O401   O     0.16667   0.79511   0.31547   0.00000  Uiso   1.00
O402   O     0.16667   0.87155   0.31547   0.00000  Uiso   1.00
O403   O     0.16666   0.79511   0.18453   0.00000  Uiso   1.00
O404   O     0.04132   0.80366   0.17308   0.00000  Uiso   1.00
Zn405  Zn    0.16667   0.88437   0.25000   0.00000  Uiso   1.00
Zn406  Zn    0.16667   0.78229   0.25000   0.00000  Uiso   1.00
C407   C     0.42018   0.83334   0.24998   0.00000  Uiso   1.00
C408   C     0.64518   0.84870   0.28836   0.00000  Uiso   1.00
C409   C     0.64502   0.81799   0.21165   0.00000  Uiso   1.00
C410   C     0.35497   0.84865   0.28836   0.00000  Uiso   1.00
C411   C     0.48699   0.87142   0.04679   0.00000  Uiso   1.00
C412   C     0.48707   0.79529   0.45316   0.00000  Uiso   1.00
C413   C     0.51675   0.87116   0.45275   0.00000  Uiso   1.00
C414   C     0.51674   0.79557   0.04733   0.00000  Uiso   1.00
C415   C     0.48647   0.87146   0.09279   0.00000  Uiso   1.00
C416   C     0.48660   0.79522   0.40716   0.00000  Uiso   1.00
C417   C     0.51588   0.87128   0.40674   0.00000  Uiso   1.00
C418   C     0.57982   0.83333   0.25002   0.00000  Uiso   1.00
C419   C     0.51581   0.79541   0.09332   0.00000  Uiso   1.00
C420   C     0.50071   0.83338   0.11603   0.00000  Uiso   1.00
C421   C     0.50081   0.83330   0.38397   0.00000  Uiso   1.00
C422   C     0.50215   0.83349   0.02406   0.00000  Uiso   1.00
C423   C     0.50217   0.83325   0.47595   0.00000  Uiso   1.00
C424   C     0.62387   0.83333   0.25001   0.00000  Uiso   1.00
C425   C     0.37612   0.83333   0.24999   0.00000  Uiso   1.00
C426   C     0.50007   0.83335   0.16392   0.00000  Uiso   1.00
C427   C     0.50014   0.83332   0.33608   0.00000  Uiso   1.00
C428   C     0.52506   0.69061   0.27873   0.00000  Uiso   1.00
C429   C     0.47494   0.97605   0.22127   0.00000  Uiso   1.00
C430   C     0.47493   0.69067   0.22128   0.00000  Uiso   1.00
C431   C     0.52506   0.97600   0.27873   0.00000  Uiso   1.00
C432   C     0.35482   0.81800   0.21164   0.00000  Uiso   1.00
H433   H     0.54512   0.70874   0.30170   0.00000  Uiso   1.00
H434   H     0.47518   0.76609   0.47094   0.00000  Uiso   1.00
H435   H     0.52899   0.90040   0.47021   0.00000  Uiso   1.00
H436   H     0.52902   0.76634   0.02992   0.00000  Uiso   1.00
H437   H     0.40466   0.81189   0.17357   0.00000  Uiso   1.00
H438   H     0.59531   0.85505   0.32635   0.00000  Uiso   1.00
H439   H     0.59503   0.81186   0.17360   0.00000  Uiso   1.00
H440   H     0.40494   0.85453   0.32647   0.00000  Uiso   1.00
H441   H     0.45489   0.95793   0.19829   0.00000  Uiso   1.00
H442   H     0.45488   0.70884   0.19831   0.00000  Uiso   1.00
H443   H     0.54511   0.95782   0.30170   0.00000  Uiso   1.00
H444   H     0.47443   0.90086   0.11012   0.00000  Uiso   1.00
H445   H     0.47460   0.76580   0.38979   0.00000  Uiso   1.00
H446   H     0.52740   0.90071   0.38903   0.00000  Uiso   1.00
H447   H     0.52734   0.76598   0.11107   0.00000  Uiso   1.00
H448   H     0.47509   0.90062   0.02895   0.00000  Uiso   1.00
N449   N     0.50000   0.95240   0.25000   0.00000  Uiso   1.00
N450   N     0.50000   0.71427   0.25000   0.00000  Uiso   1.00
O451   O     0.43892   0.87154   0.25000   0.00000  Uiso   1.00
O452   O     0.62535   0.86309   0.32690   0.00000  Uiso   1.00
O453   O     0.62503   0.80364   0.17310   0.00000  Uiso   1.00
O454   O     0.37498   0.86294   0.32692   0.00000  Uiso   1.00
O455   O     0.56108   0.79513   0.25001   0.00000  Uiso   1.00
O456   O     0.56108   0.87154   0.25001   0.00000  Uiso   1.00
O457   O     0.43892   0.79513   0.25000   0.00000  Uiso   1.00
O458   O     0.50000   0.87155   0.18453   0.00000  Uiso   1.00
O459   O     0.50000   0.79511   0.31547   0.00000  Uiso   1.00
O460   O     0.50000   0.87155   0.31547   0.00000  Uiso   1.00
O461   O     0.50000   0.79511   0.18453   0.00000  Uiso   1.00
O462   O     0.37465   0.80366   0.17308   0.00000  Uiso   1.00
Zn463  Zn    0.50000   0.88437   0.25000   0.00000  Uiso   1.00
Zn464  Zn    0.50000   0.78229   0.25000   0.00000  Uiso   1.00
C465   C     0.75352   0.83334   0.24998   0.00000  Uiso   1.00
C466   C     0.97851   0.84870   0.28836   0.00000  Uiso   1.00
C467   C     0.97836   0.81799   0.21165   0.00000  Uiso   1.00
C468   C     0.68831   0.84865   0.28836   0.00000  Uiso   1.00
C469   C     0.82032   0.87142   0.04679   0.00000  Uiso   1.00
C470   C     0.82041   0.79529   0.45316   0.00000  Uiso   1.00
C471   C     0.85009   0.87116   0.45275   0.00000  Uiso   1.00
C472   C     0.85007   0.79557   0.04733   0.00000  Uiso   1.00
C473   C     0.81980   0.87146   0.09279   0.00000  Uiso   1.00
C474   C     0.81993   0.79522   0.40716   0.00000  Uiso   1.00
C475   C     0.84921   0.87128   0.40674   0.00000  Uiso   1.00
C476   C     0.91315   0.83333   0.25002   0.00000  Uiso   1.00
C477   C     0.84914   0.79541   0.09332   0.00000  Uiso   1.00
C478   C     0.83404   0.83338   0.11603   0.00000  Uiso   1.00
C479   C     0.83414   0.83330   0.38397   0.00000  Uiso   1.00
C480   C     0.83549   0.83349   0.02406   0.00000  Uiso   1.00
C481   C     0.83551   0.83325   0.47595   0.00000  Uiso   1.00
C482   C     0.95721   0.83333   0.25001   0.00000  Uiso   1.00
C483   C     0.70945   0.83333   0.24999   0.00000  Uiso   1.00
C484   C     0.83341   0.83335   0.16392   0.00000  Uiso   1.00
C485   C     0.83347   0.83332   0.33608   0.00000  Uiso   1.00
C486   C     0.85840   0.69061   0.27873   0.00000  Uiso   1.00
C487   C     0.80827   0.97605   0.22127   0.00000  Uiso   1.00
C488   C     0.80827   0.69067   0.22128   0.00000  Uiso   1.00
C489   C     0.85840   0.97600   0.27873   0.00000  Uiso   1.00
C490   C     0.68815   0.81800   0.21164   0.00000  Uiso   1.00
H491   H     0.87845   0.70874   0.30170   0.00000  Uiso   1.00
H492   H     0.80852   0.76609   0.47094   0.00000  Uiso   1.00
H493   H     0.86232   0.90040   0.47021   0.00000  Uiso   1.00
H494   H     0.86235   0.76634   0.02992   0.00000  Uiso   1.00
H495   H     0.73799   0.81189   0.17357   0.00000  Uiso   1.00
H496   H     0.92864   0.85505   0.32635   0.00000  Uiso   1.00
H497   H     0.92836   0.81186   0.17360   0.00000  Uiso   1.00
H498   H     0.73827   0.85453   0.32647   0.00000  Uiso   1.00
H499   H     0.78823   0.95793   0.19829   0.00000  Uiso   1.00
H500   H     0.78821   0.70884   0.19831   0.00000  Uiso   1.00
H501   H     0.87845   0.95782   0.30170   0.00000  Uiso   1.00
H502   H     0.80776   0.90086   0.11012   0.00000  Uiso   1.00
H503   H     0.80794   0.76580   0.38979   0.00000  Uiso   1.00
H504   H     0.86073   0.90071   0.38903   0.00000  Uiso   1.00
H505   H     0.86067   0.76598   0.11107   0.00000  Uiso   1.00
H506   H     0.80843   0.90062   0.02895   0.00000  Uiso   1.00
N507   N     0.83333   0.95240   0.25000   0.00000  Uiso   1.00
N508   N     0.83333   0.71427   0.25000   0.00000  Uiso   1.00
O509   O     0.77226   0.87154   0.25000   0.00000  Uiso   1.00
O510   O     0.95868   0.86309   0.32690   0.00000  Uiso   1.00
O511   O     0.95836   0.80364   0.17310   0.00000  Uiso   1.00
O512   O     0.70831   0.86294   0.32692   0.00000  Uiso   1.00
O513   O     0.89441   0.79513   0.25001   0.00000  Uiso   1.00
O514   O     0.89441   0.87154   0.25001   0.00000  Uiso   1.00
O515   O     0.77226   0.79513   0.25000   0.00000  Uiso   1.00
O516   O     0.83333   0.87155   0.18453   0.00000  Uiso   1.00
O517   O     0.83334   0.79511   0.31547   0.00000  Uiso   1.00
O518   O     0.83334   0.87155   0.31547   0.00000  Uiso   1.00
O519   O     0.83333   0.79511   0.18453   0.00000  Uiso   1.00
O520   O     0.70799   0.80366   0.17308   0.00000  Uiso   1.00
Zn521  Zn    0.83333   0.88437   0.25000   0.00000  Uiso   1.00
Zn522  Zn    0.83333   0.78229   0.25000   0.00000  Uiso   1.00
C523   C     0.08685   0.16667   0.74998   0.00000  Uiso   1.00
C524   C     0.31185   0.18203   0.78836   0.00000  Uiso   1.00
C525   C     0.31169   0.15132   0.71165   0.00000  Uiso   1.00
C526   C     0.02164   0.18199   0.78836   0.00000  Uiso   1.00
C527   C     0.15366   0.20475   0.54679   0.00000  Uiso   1.00
C528   C     0.15374   0.12863   0.95316   0.00000  Uiso   1.00
C529   C     0.18342   0.20449   0.95275   0.00000  Uiso   1.00
C530   C     0.18340   0.12890   0.54733   0.00000  Uiso   1.00
C531   C     0.15313   0.20479   0.59279   0.00000  Uiso   1.00
C532   C     0.15327   0.12855   0.90716   0.00000  Uiso   1.00
C533   C     0.18254   0.20462   0.90674   0.00000  Uiso   1.00
C534   C     0.24648   0.16666   0.75002   0.00000  Uiso   1.00
C535   C     0.18248   0.12875   0.59332   0.00000  Uiso   1.00
C536   C     0.16737   0.16671   0.61603   0.00000  Uiso   1.00
C537   C     0.16748   0.16663   0.88397   0.00000  Uiso   1.00
C538   C     0.16882   0.16682   0.52406   0.00000  Uiso   1.00
C539   C     0.16884   0.16658   0.97595   0.00000  Uiso   1.00
C540   C     0.29054   0.16667   0.75001   0.00000  Uiso   1.00
C541   C     0.04279   0.16667   0.74999   0.00000  Uiso   1.00
C542   C     0.16674   0.16668   0.66392   0.00000  Uiso   1.00
C543   C     0.16681   0.16666   0.83608   0.00000  Uiso   1.00
C544   C     0.19173   0.02394   0.77873   0.00000  Uiso   1.00
C545   C     0.14160   0.30939   0.72127   0.00000  Uiso   1.00
C546   C     0.14160   0.02400   0.72128   0.00000  Uiso   1.00
C547   C     0.19173   0.30933   0.77873   0.00000  Uiso   1.00
C548   C     0.02148   0.15133   0.71164   0.00000  Uiso   1.00
H549   H     0.21178   0.04207   0.80170   0.00000  Uiso   1.00
H550   H     0.14185   0.09942   0.97094   0.00000  Uiso   1.00
H551   H     0.19566   0.23374   0.97021   0.00000  Uiso   1.00
H552   H     0.19568   0.09967   0.52992   0.00000  Uiso   1.00
H553   H     0.07132   0.14522   0.67357   0.00000  Uiso   1.00
H554   H     0.26198   0.18839   0.82635   0.00000  Uiso   1.00
H555   H     0.26169   0.14519   0.67360   0.00000  Uiso   1.00
H556   H     0.07160   0.18787   0.82647   0.00000  Uiso   1.00
H557   H     0.12156   0.29126   0.69829   0.00000  Uiso   1.00
H558   H     0.12155   0.04217   0.69831   0.00000  Uiso   1.00
H559   H     0.21178   0.29116   0.80170   0.00000  Uiso   1.00
H560   H     0.14110   0.23420   0.61012   0.00000  Uiso   1.00
H561   H     0.14127   0.09913   0.88979   0.00000  Uiso   1.00
H562   H     0.19406   0.23404   0.88903   0.00000  Uiso   1.00
H563   H     0.19400   0.09931   0.61107   0.00000  Uiso   1.00
H564   H     0.14176   0.23396   0.52895   0.00000  Uiso   1.00
N565   N     0.16667   0.28573   0.75000   0.00000  Uiso   1.00
N566   N     0.16667   0.04760   0.75000   0.00000  Uiso   1.00
O567   O     0.10559   0.20487   0.75000   0.00000  Uiso   1.00
O568   O     0.29202   0.19643   0.82690   0.00000  Uiso   1.00
O569   O     0.29170   0.13697   0.67310   0.00000  Uiso   1.00
O570   O     0.04164   0.19627   0.82692   0.00000  Uiso   1.00
O571   O     0.22774   0.12846   0.75001   0.00000  Uiso   1.00
O572   O     0.22774   0.20487   0.75001   0.00000  Uiso   1.00
O573   O     0.10559   0.12846   0.75000   0.00000  Uiso   1.00
O574   O     0.16666   0.20489   0.68453   0.00000  Uiso   1.00
O575   O     0.16667   0.12845   0.81547   0.00000  Uiso   1.00
O576   O     0.16667   0.20489   0.81547   0.00000  Uiso   1.00
O577   O     0.16666   0.12845   0.68453   0.00000  Uiso   1.00
O578   O     0.04132   0.13700   0.67308   0.00000  Uiso   1.00
Zn579  Zn    0.16667   0.21771   0.75000   0.00000  Uiso   1.00
Zn580  Zn    0.16667   0.11563   0.75000   0.00000  Uiso   1.00
C581   C     0.42018   0.16667   0.74998   0.00000  Uiso   1.00
C582   C     0.64518   0.18203   0.78836   0.00000  Uiso   1.00
C583   C     0.64502   0.15132   0.71165   0.00000  Uiso   1.00
C584   C     0.35497   0.18199   0.78836   0.00000  Uiso   1.00
C585   C     0.48699   0.20475   0.54679   0.00000  Uiso   1.00
C586   C     0.48707   0.12863   0.95316   0.00000  Uiso   1.00
C587   C     0.51675   0.20449   0.95275   0.00000  Uiso   1.00
C588   C     0.51674   0.12890   0.54733   0.00000  Uiso   1.00
C589   C     0.48647   0.20479   0.59279   0.00000  Uiso   1.00
C590   C     0.48660   0.12855   0.90716   0.00000  Uiso   1.00
C591   C     0.51588   0.20462   0.90674   0.00000  Uiso   1.00
C592   C     0.57982   0.16666   0.75002   0.00000  Uiso   1.00
C593   C     0.51581   0.12875   0.59332   0.00000  Uiso   1.00
C594   C     0.50071   0.16671   0.61603   0.00000  Uiso   1.00
C595   C     0.50081   0.16663   0.88397   0.00000  Uiso   1.00
C596   C     0.50215   0.16682   0.52406   0.00000  Uiso   1.00
C597   C     0.50217   0.16658   0.97595   0.00000  Uiso   1.00
C598   C     0.62387   0.16667   0.75001   0.00000  Uiso   1.00
C599   C     0.37612   0.16667   0.74999   0.00000  Uiso   1.00
C600   C     0.50007   0.16668   0.66392   0.00000  Uiso   1.00
C601   C     0.50014   0.16666   0.83608   0.00000  Uiso   1.00
C602   C     0.52506   0.02394   0.77873   0.00000  Uiso   1.00
C603   C     0.47494   0.30939   0.72127   0.00000  Uiso   1.00
C604   C     0.47493   0.02400   0.72128   0.00000  Uiso   1.00
C605   C     0.52506   0.30933   0.77873   0.00000  Uiso   1.00
C606   C     0.35482   0.15133   0.71164   0.00000  Uiso   1.00
H607   H     0.54512   0.04207   0.80170   0.00000  Uiso   1.00
H608   H     0.47518   0.09942   0.97094   0.00000  Uiso   1.00
H609   H     0.52899   0.23374   0.97021   0.00000  Uiso   1.00
H610   H     0.52902   0.09967   0.52992   0.00000  Uiso   1.00
H611   H     0.40466   0.14522   0.67357   0.00000  Uiso   1.00
H612   H     0.59531   0.18839   0.82635   0.00000  Uiso   1.00
H613   H     0.59503   0.14519   0.67360   0.00000  Uiso   1.00
H614   H     0.40494   0.18787   0.82647   0.00000  Uiso   1.00
H615   H     0.45489   0.29126   0.69829   0.00000  Uiso   1.00
H616   H     0.45488   0.04217   0.69831   0.00000  Uiso   1.00
H617   H     0.54511   0.29116   0.80170   0.00000  Uiso   1.00
H618   H     0.47443   0.23420   0.61012   0.00000  Uiso   1.00
H619   H     0.47460   0.09913   0.88979   0.00000  Uiso   1.00
H620   H     0.52740   0.23404   0.88903   0.00000  Uiso   1.00
H621   H     0.52734   0.09931   0.61107   0.00000  Uiso   1.00
H622   H     0.47509   0.23396   0.52895   0.00000  Uiso   1.00
N623   N     0.50000   0.28573   0.75000   0.00000  Uiso   1.00
N624   N     0.50000   0.04760   0.75000   0.00000  Uiso   1.00
O625   O     0.43892   0.20487   0.75000   0.00000  Uiso   1.00
O626   O     0.62535   0.19643   0.82690   0.00000  Uiso   1.00
O627   O     0.62503   0.13697   0.67310   0.00000  Uiso   1.00
O628   O     0.37498   0.19627   0.82692   0.00000  Uiso   1.00
O629   O     0.56108   0.12846   0.75001   0.00000  Uiso   1.00
O630   O     0.56108   0.20487   0.75001   0.00000  Uiso   1.00
O631   O     0.43892   0.12846   0.75000   0.00000  Uiso   1.00
O632   O     0.50000   0.20489   0.68453   0.00000  Uiso   1.00
O633   O     0.50000   0.12845   0.81547   0.00000  Uiso   1.00
O634   O     0.50000   0.20489   0.81547   0.00000  Uiso   1.00
O635   O     0.50000   0.12845   0.68453   0.00000  Uiso   1.00
O636   O     0.37465   0.13700   0.67308   0.00000  Uiso   1.00
Zn637  Zn    0.50000   0.21771   0.75000   0.00000  Uiso   1.00
Zn638  Zn    0.50000   0.11563   0.75000   0.00000  Uiso   1.00
C639   C     0.75352   0.16667   0.74998   0.00000  Uiso   1.00
C640   C     0.97851   0.18203   0.78836   0.00000  Uiso   1.00
C641   C     0.97836   0.15132   0.71165   0.00000  Uiso   1.00
C642   C     0.68831   0.18199   0.78836   0.00000  Uiso   1.00
C643   C     0.82032   0.20475   0.54679   0.00000  Uiso   1.00
C644   C     0.82041   0.12863   0.95316   0.00000  Uiso   1.00
C645   C     0.85009   0.20449   0.95275   0.00000  Uiso   1.00
C646   C     0.85007   0.12890   0.54733   0.00000  Uiso   1.00
C647   C     0.81980   0.20479   0.59279   0.00000  Uiso   1.00
C648   C     0.81993   0.12855   0.90716   0.00000  Uiso   1.00
C649   C     0.84921   0.20462   0.90674   0.00000  Uiso   1.00
C650   C     0.91315   0.16666   0.75002   0.00000  Uiso   1.00
C651   C     0.84914   0.12875   0.59332   0.00000  Uiso   1.00
C652   C     0.83404   0.16671   0.61603   0.00000  Uiso   1.00
C653   C     0.83414   0.16663   0.88397   0.00000  Uiso   1.00
C654   C     0.83549   0.16682   0.52406   0.00000  Uiso   1.00
C655   C     0.83551   0.16658   0.97595   0.00000  Uiso   1.00
C656   C     0.95721   0.16667   0.75001   0.00000  Uiso   1.00
C657   C     0.70945   0.16667   0.74999   0.00000  Uiso   1.00
C658   C     0.83341   0.16668   0.66392   0.00000  Uiso   1.00
C659   C     0.83347   0.16666   0.83608   0.00000  Uiso   1.00
C660   C     0.85840   0.02394   0.77873   0.00000  Uiso   1.00
C661   C     0.80827   0.30939   0.72127   0.00000  Uiso   1.00
C662   C     0.80827   0.02400   0.72128   0.00000  Uiso   1.00
C663   C     0.85840   0.30933   0.77873   0.00000  Uiso   1.00
C664   C     0.68815   0.15133   0.71164   0.00000  Uiso   1.00
H665   H     0.87845   0.04207   0.80170   0.00000  Uiso   1.00
H666   H     0.80852   0.09942   0.97094   0.00000  Uiso   1.00
H667   H     0.86232   0.23374   0.97021   0.00000  Uiso   1.00
H668   H     0.86235   0.09967   0.52992   0.00000  Uiso   1.00
H669   H     0.73799   0.14522   0.67357   0.00000  Uiso   1.00
H670   H     0.92864   0.18839   0.82635   0.00000  Uiso   1.00
H671   H     0.92836   0.14519   0.67360   0.00000  Uiso   1.00
H672   H     0.73827   0.18787   0.82647   0.00000  Uiso   1.00
H673   H     0.78823   0.29126   0.69829   0.00000  Uiso   1.00
H674   H     0.78821   0.04217   0.69831   0.00000  Uiso   1.00
H675   H     0.87845   0.29116   0.80170   0.00000  Uiso   1.00
H676   H     0.80776   0.23420   0.61012   0.00000  Uiso   1.00
H677   H     0.80794   0.09913   0.88979   0.00000  Uiso   1.00
H678   H     0.86073   0.23404   0.88903   0.00000  Uiso   1.00
H679   H     0.86067   0.09931   0.61107   0.00000  Uiso   1.00
H680   H     0.80843   0.23396   0.52895   0.00000  Uiso   1.00
N681   N     0.83333   0.28573   0.75000   0.00000  Uiso   1.00
N682   N     0.83333   0.04760   0.75000   0.00000  Uiso   1.00
O683   O     0.77226   0.20487   0.75000   0.00000  Uiso   1.00
O684   O     0.95868   0.19643   0.82690   0.00000  Uiso   1.00
O685   O     0.95836   0.13697   0.67310   0.00000  Uiso   1.00
O686   O     0.70831   0.19627   0.82692   0.00000  Uiso   1.00
O687   O     0.89441   0.12846   0.75001   0.00000  Uiso   1.00
O688   O     0.89441   0.20487   0.75001   0.00000  Uiso   1.00
O689   O     0.77226   0.12846   0.75000   0.00000  Uiso   1.00
O690   O     0.83333   0.20489   0.68453   0.00000  Uiso   1.00
O691   O     0.83334   0.12845   0.81547   0.00000  Uiso   1.00
O692   O     0.83334   0.20489   0.81547   0.00000  Uiso   1.00
O693   O     0.83333   0.12845   0.68453   0.00000  Uiso   1.00
O694   O     0.70799   0.13700   0.67308   0.00000  Uiso   1.00
Zn695  Zn    0.83333   0.21771   0.75000   0.00000  Uiso   1.00
Zn696  Zn    0.83333   0.11563   0.75000   0.00000  Uiso   1.00
C697   C     0.08685   0.50000   0.74998   0.00000  Uiso   1.00
C698   C     0.31185   0.51536   0.78836   0.00000  Uiso   1.00
C699   C     0.31169   0.48465   0.71165   0.00000  Uiso   1.00
C700   C     0.02164   0.51532   0.78836   0.00000  Uiso   1.00
C701   C     0.15366   0.53808   0.54679   0.00000  Uiso   1.00
C702   C     0.15374   0.46196   0.95316   0.00000  Uiso   1.00
C703   C     0.18342   0.53782   0.95275   0.00000  Uiso   1.00
C704   C     0.18340   0.46224   0.54733   0.00000  Uiso   1.00
C705   C     0.15313   0.53813   0.59279   0.00000  Uiso   1.00
C706   C     0.15327   0.46189   0.90716   0.00000  Uiso   1.00
C707   C     0.18254   0.53795   0.90674   0.00000  Uiso   1.00
C708   C     0.24648   0.50000   0.75002   0.00000  Uiso   1.00
C709   C     0.18248   0.46208   0.59332   0.00000  Uiso   1.00
C710   C     0.16737   0.50004   0.61603   0.00000  Uiso   1.00
C711   C     0.16748   0.49997   0.88397   0.00000  Uiso   1.00
C712   C     0.16882   0.50015   0.52406   0.00000  Uiso   1.00
C713   C     0.16884   0.49991   0.97595   0.00000  Uiso   1.00
C714   C     0.29054   0.50000   0.75001   0.00000  Uiso   1.00
C715   C     0.04279   0.50000   0.74999   0.00000  Uiso   1.00
C716   C     0.16674   0.50001   0.66392   0.00000  Uiso   1.00
C717   C     0.16681   0.49999   0.83608   0.00000  Uiso   1.00
C718   C     0.19173   0.35728   0.77873   0.00000  Uiso   1.00
C719   C     0.14160   0.64272   0.72127   0.00000  Uiso   1.00
C720   C     0.14160   0.35733   0.72128   0.00000  Uiso   1.00
C721   C     0.19173   0.64266   0.77873   0.00000  Uiso   1.00
C722   C     0.02148   0.48466   0.71164   0.00000  Uiso   1.00
H723   H     0.21178   0.37540   0.80170   0.00000  Uiso   1.00
H724   H     0.14185   0.43276   0.97094   0.00000  Uiso   1.00
H725   H     0.19566   0.56707   0.97021   0.00000  Uiso   1.00
H726   H     0.19568   0.43300   0.52992   0.00000  Uiso   1.00
H727   H     0.07132   0.47855   0.67357   0.00000  Uiso   1.00
H728   H     0.26198   0.52172   0.82635   0.00000  Uiso   1.00
H729   H     0.26169   0.47852   0.67360   0.00000  Uiso   1.00
H730   H     0.07160   0.52120   0.82647   0.00000  Uiso   1.00
H731   H     0.12156   0.62459   0.69829   0.00000  Uiso   1.00
H732   H     0.12155   0.37550   0.69831   0.00000  Uiso   1.00
H733   H     0.21178   0.62449   0.80170   0.00000  Uiso   1.00
H734   H     0.14110   0.56753   0.61012   0.00000  Uiso   1.00
H735   H     0.14127   0.43246   0.88979   0.00000  Uiso   1.00
H736   H     0.19406   0.56738   0.88903   0.00000  Uiso   1.00
H737   H     0.19400   0.43264   0.61107   0.00000  Uiso   1.00
H738   H     0.14176   0.56729   0.52895   0.00000  Uiso   1.00
N739   N     0.16667   0.61907   0.75000   0.00000  Uiso   1.00
N740   N     0.16667   0.38093   0.75000   0.00000  Uiso   1.00
O741   O     0.10559   0.53821   0.75000   0.00000  Uiso   1.00
O742   O     0.29202   0.52976   0.82690   0.00000  Uiso   1.00
O743   O     0.29170   0.47030   0.67310   0.00000  Uiso   1.00
O744   O     0.04164   0.52960   0.82692   0.00000  Uiso   1.00
O745   O     0.22774   0.46179   0.75001   0.00000  Uiso   1.00
O746   O     0.22774   0.53821   0.75001   0.00000  Uiso   1.00
O747   O     0.10559   0.46179   0.75000   0.00000  Uiso   1.00
O748   O     0.16666   0.53822   0.68453   0.00000  Uiso   1.00
O749   O     0.16667   0.46178   0.81547   0.00000  Uiso   1.00
O750   O     0.16667   0.53822   0.81547   0.00000  Uiso   1.00
O751   O     0.16666   0.46178   0.68453   0.00000  Uiso   1.00
O752   O     0.04132   0.47033   0.67308   0.00000  Uiso   1.00
Zn753  Zn    0.16667   0.55104   0.75000   0.00000  Uiso   1.00
Zn754  Zn    0.16667   0.44896   0.75000   0.00000  Uiso   1.00
C755   C     0.42018   0.50000   0.74998   0.00000  Uiso   1.00
C756   C     0.64518   0.51536   0.78836   0.00000  Uiso   1.00
C757   C     0.64502   0.48465   0.71165   0.00000  Uiso   1.00
C758   C     0.35497   0.51532   0.78836   0.00000  Uiso   1.00
C759   C     0.48699   0.53808   0.54679   0.00000  Uiso   1.00
C760   C     0.48707   0.46196   0.95316   0.00000  Uiso   1.00
C761   C     0.51675   0.53782   0.95275   0.00000  Uiso   1.00
C762   C     0.51674   0.46224   0.54733   0.00000  Uiso   1.00
C763   C     0.48647   0.53813   0.59279   0.00000  Uiso   1.00
C764   C     0.48660   0.46189   0.90716   0.00000  Uiso   1.00
C765   C     0.51588   0.53795   0.90674   0.00000  Uiso   1.00
C766   C     0.57982   0.50000   0.75002   0.00000  Uiso   1.00
C767   C     0.51581   0.46208   0.59332   0.00000  Uiso   1.00
C768   C     0.50071   0.50004   0.61603   0.00000  Uiso   1.00
C769   C     0.50081   0.49997   0.88397   0.00000  Uiso   1.00
C770   C     0.50215   0.50015   0.52406   0.00000  Uiso   1.00
C771   C     0.50217   0.49991   0.97595   0.00000  Uiso   1.00
C772   C     0.62387   0.50000   0.75001   0.00000  Uiso   1.00
C773   C     0.37612   0.50000   0.74999   0.00000  Uiso   1.00
C774   C     0.50007   0.50001   0.66392   0.00000  Uiso   1.00
C775   C     0.50014   0.49999   0.83608   0.00000  Uiso   1.00
C776   C     0.52506   0.35728   0.77873   0.00000  Uiso   1.00
C777   C     0.47494   0.64272   0.72127   0.00000  Uiso   1.00
C778   C     0.47493   0.35733   0.72128   0.00000  Uiso   1.00
C779   C     0.52506   0.64266   0.77873   0.00000  Uiso   1.00
C780   C     0.35482   0.48466   0.71164   0.00000  Uiso   1.00
H781   H     0.54512   0.37540   0.80170   0.00000  Uiso   1.00
H782   H     0.47518   0.43276   0.97094   0.00000  Uiso   1.00
H783   H     0.52899   0.56707   0.97021   0.00000  Uiso   1.00
H784   H     0.52902   0.43300   0.52992   0.00000  Uiso   1.00
H785   H     0.40466   0.47855   0.67357   0.00000  Uiso   1.00
H786   H     0.59531   0.52172   0.82635   0.00000  Uiso   1.00
H787   H     0.59503   0.47852   0.67360   0.00000  Uiso   1.00
H788   H     0.40494   0.52120   0.82647   0.00000  Uiso   1.00
H789   H     0.45489   0.62459   0.69829   0.00000  Uiso   1.00
H790   H     0.45488   0.37550   0.69831   0.00000  Uiso   1.00
H791   H     0.54511   0.62449   0.80170   0.00000  Uiso   1.00
H792   H     0.47443   0.56753   0.61012   0.00000  Uiso   1.00
H793   H     0.47460   0.43246   0.88979   0.00000  Uiso   1.00
H794   H     0.52740   0.56738   0.88903   0.00000  Uiso   1.00
H795   H     0.52734   0.43264   0.61107   0.00000  Uiso   1.00
H796   H     0.47509   0.56729   0.52895   0.00000  Uiso   1.00
N797   N     0.50000   0.61907   0.75000   0.00000  Uiso   1.00
N798   N     0.50000   0.38093   0.75000   0.00000  Uiso   1.00
O799   O     0.43892   0.53821   0.75000   0.00000  Uiso   1.00
O800   O     0.62535   0.52976   0.82690   0.00000  Uiso   1.00
O801   O     0.62503   0.47030   0.67310   0.00000  Uiso   1.00
O802   O     0.37498   0.52960   0.82692   0.00000  Uiso   1.00
O803   O     0.56108   0.46179   0.75001   0.00000  Uiso   1.00
O804   O     0.56108   0.53821   0.75001   0.00000  Uiso   1.00
O805   O     0.43892   0.46179   0.75000   0.00000  Uiso   1.00
O806   O     0.50000   0.53822   0.68453   0.00000  Uiso   1.00
O807   O     0.50000   0.46178   0.81547   0.00000  Uiso   1.00
O808   O     0.50000   0.53822   0.81547   0.00000  Uiso   1.00
O809   O     0.50000   0.46178   0.68453   0.00000  Uiso   1.00
O810   O     0.37465   0.47033   0.67308   0.00000  Uiso   1.00
Zn811  Zn    0.50000   0.55104   0.75000   0.00000  Uiso   1.00
Zn812  Zn    0.50000   0.44896   0.75000   0.00000  Uiso   1.00
C813   C     0.75352   0.50000   0.74998   0.00000  Uiso   1.00
C814   C     0.97851   0.51536   0.78836   0.00000  Uiso   1.00
C815   C     0.97836   0.48465   0.71165   0.00000  Uiso   1.00
C816   C     0.68831   0.51532   0.78836   0.00000  Uiso   1.00
C817   C     0.82032   0.53808   0.54679   0.00000  Uiso   1.00
C818   C     0.82041   0.46196   0.95316   0.00000  Uiso   1.00
C819   C     0.85009   0.53782   0.95275   0.00000  Uiso   1.00
C820   C     0.85007   0.46224   0.54733   0.00000  Uiso   1.00
C821   C     0.81980   0.53813   0.59279   0.00000  Uiso   1.00
C822   C     0.81993   0.46189   0.90716   0.00000  Uiso   1.00
C823   C     0.84921   0.53795   0.90674   0.00000  Uiso   1.00
C824   C     0.91315   0.50000   0.75002   0.00000  Uiso   1.00
C825   C     0.84914   0.46208   0.59332   0.00000  Uiso   1.00
C826   C     0.83404   0.50004   0.61603   0.00000  Uiso   1.00
C827   C     0.83414   0.49997   0.88397   0.00000  Uiso   1.00
C828   C     0.83549   0.50015   0.52406   0.00000  Uiso   1.00
C829   C     0.83551   0.49991   0.97595   0.00000  Uiso   1.00
C830   C     0.95721   0.50000   0.75001   0.00000  Uiso   1.00
C831   C     0.70945   0.50000   0.74999   0.00000  Uiso   1.00
C832   C     0.83341   0.50001   0.66392   0.00000  Uiso   1.00
C833   C     0.83347   0.49999   0.83608   0.00000  Uiso   1.00
C834   C     0.85840   0.35728   0.77873   0.00000  Uiso   1.00
C835   C     0.80827   0.64272   0.72127   0.00000  Uiso   1.00
C836   C     0.80827   0.35733   0.72128   0.00000  Uiso   1.00
C837   C     0.85840   0.64266   0.77873   0.00000  Uiso   1.00
C838   C     0.68815   0.48466   0.71164   0.00000  Uiso   1.00
H839   H     0.87845   0.37540   0.80170   0.00000  Uiso   1.00
H840   H     0.80852   0.43276   0.97094   0.00000  Uiso   1.00
H841   H     0.86232   0.56707   0.97021   0.00000  Uiso   1.00
H842   H     0.86235   0.43300   0.52992   0.00000  Uiso   1.00
H843   H     0.73799   0.47855   0.67357   0.00000  Uiso   1.00
H844   H     0.92864   0.52172   0.82635   0.00000  Uiso   1.00
H845   H     0.92836   0.47852   0.67360   0.00000  Uiso   1.00
H846   H     0.73827   0.52120   0.82647   0.00000  Uiso   1.00
H847   H     0.78823   0.62459   0.69829   0.00000  Uiso   1.00
H848   H     0.78821   0.37550   0.69831   0.00000  Uiso   1.00
H849   H     0.87845   0.62449   0.80170   0.00000  Uiso   1.00
H850   H     0.80776   0.56753   0.61012   0.00000  Uiso   1.00
H851   H     0.80794   0.43246   0.88979   0.00000  Uiso   1.00
H852   H     0.86073   0.56738   0.88903   0.00000  Uiso   1.00
H853   H     0.86067   0.43264   0.61107   0.00000  Uiso   1.00
H854   H     0.80843   0.56729   0.52895   0.00000  Uiso   1.00
N855   N     0.83333   0.61907   0.75000   0.00000  Uiso   1.00
N856   N     0.83333   0.38093   0.75000   0.00000  Uiso   1.00
O857   O     0.77226   0.53821   0.75000   0.00000  Uiso   1.00
O858   O     0.95868   0.52976   0.82690   0.00000  Uiso   1.00
O859   O     0.95836   0.47030   0.67310   0.00000  Uiso   1.00
O860   O     0.70831   0.52960   0.82692   0.00000  Uiso   1.00
O861   O     0.89441   0.46179   0.75001   0.00000  Uiso   1.00
O862   O     0.89441   0.53821   0.75001   0.00000  Uiso   1.00
O863   O     0.77226   0.46179   0.75000   0.00000  Uiso   1.00
O864   O     0.83333   0.53822   0.68453   0.00000  Uiso   1.00
O865   O     0.83334   0.46178   0.81547   0.00000  Uiso   1.00
O866   O     0.83334   0.53822   0.81547   0.00000  Uiso   1.00
O867   O     0.83333   0.46178   0.68453   0.00000  Uiso   1.00
O868   O     0.70799   0.47033   0.67308   0.00000  Uiso   1.00
Zn869  Zn    0.83333   0.55104   0.75000   0.00000  Uiso   1.00
Zn870  Zn    0.83333   0.44896   0.75000   0.00000  Uiso   1.00
C871   C     0.08685   0.83334   0.74998   0.00000  Uiso   1.00
C872   C     0.31185   0.84870   0.78836   0.00000  Uiso   1.00
C873   C     0.31169   0.81799   0.71165   0.00000  Uiso   1.00
C874   C     0.02164   0.84865   0.78836   0.00000  Uiso   1.00
C875   C     0.15366   0.87142   0.54679   0.00000  Uiso   1.00
C876   C     0.15374   0.79529   0.95316   0.00000  Uiso   1.00
C877   C     0.18342   0.87116   0.95275   0.00000  Uiso   1.00
C878   C     0.18340   0.79557   0.54733   0.00000  Uiso   1.00
C879   C     0.15313   0.87146   0.59279   0.00000  Uiso   1.00
C880   C     0.15327   0.79522   0.90716   0.00000  Uiso   1.00
C881   C     0.18254   0.87128   0.90674   0.00000  Uiso   1.00
C882   C     0.24648   0.83333   0.75002   0.00000  Uiso   1.00
C883   C     0.18248   0.79541   0.59332   0.00000  Uiso   1.00
C884   C     0.16737   0.83338   0.61603   0.00000  Uiso   1.00
C885   C     0.16748   0.83330   0.88397   0.00000  Uiso   1.00
C886   C     0.16882   0.83349   0.52406   0.00000  Uiso   1.00
C887   C     0.16884   0.83325   0.97595   0.00000  Uiso   1.00
C888   C     0.29054   0.83333   0.75001   0.00000  Uiso   1.00
C889   C     0.04279   0.83333   0.74999   0.00000  Uiso   1.00
C890   C     0.16674   0.83335   0.66392   0.00000  Uiso   1.00
C891   C     0.16681   0.83332   0.83608   0.00000  Uiso   1.00
C892   C     0.19173   0.69061   0.77873   0.00000  Uiso   1.00
C893   C     0.14160   0.97605   0.72127   0.00000  Uiso   1.00
C894   C     0.14160   0.69067   0.72128   0.00000  Uiso   1.00
C895   C     0.19173   0.97600   0.77873   0.00000  Uiso   1.00
C896   C     0.02148   0.81800   0.71164   0.00000  Uiso   1.00
H897   H     0.21178   0.70874   0.80170   0.00000  Uiso   1.00
H898   H     0.14185   0.76609   0.97094   0.00000  Uiso   1.00
H899   H     0.19566   0.90040   0.97021   0.00000  Uiso   1.00
H900   H     0.19568   0.76634   0.52992   0.00000  Uiso   1.00
H901   H     0.07132   0.81189   0.67357   0.00000  Uiso   1.00
H902   H     0.26198   0.85505   0.82635   0.00000  Uiso   1.00
H903   H     0.26169   0.81186   0.67360   0.00000  Uiso   1.00
H904   H     0.07160   0.85453   0.82647   0.00000  Uiso   1.00
H905   H     0.12156   0.95793   0.69829   0.00000  Uiso   1.00
H906   H     0.12155   0.70884   0.69831   0.00000  Uiso   1.00
H907   H     0.21178   0.95782   0.80170   0.00000  Uiso   1.00
H908   H     0.14110   0.90086   0.61012   0.00000  Uiso   1.00
H909   H     0.14127   0.76580   0.88979   0.00000  Uiso   1.00
H910   H     0.19406   0.90071   0.88903   0.00000  Uiso   1.00
H911   H     0.19400   0.76598   0.61107   0.00000  Uiso   1.00
H912   H     0.14176   0.90062   0.52895   0.00000  Uiso   1.00
N913   N     0.16667   0.95240   0.75000   0.00000  Uiso   1.00
N914   N     0.16667   0.71427   0.75000   0.00000  Uiso   1.00
O915   O     0.10559   0.87154   0.75000   0.00000  Uiso   1.00
O916   O     0.29202   0.86309   0.82690   0.00000  Uiso   1.00
O917   O     0.29170   0.80364   0.67310   0.00000  Uiso   1.00
O918   O     0.04164   0.86294   0.82692   0.00000  Uiso   1.00
O919   O     0.22774   0.79513   0.75001   0.00000  Uiso   1.00
O920   O     0.22774   0.87154   0.75001   0.00000  Uiso   1.00
O921   O     0.10559   0.79513   0.75000   0.00000  Uiso   1.00
O922   O     0.16666   0.87155   0.68453   0.00000  Uiso   1.00
O923   O     0.16667   0.79511   0.81547   0.00000  Uiso   1.00
O924   O     0.16667   0.87155   0.81547   0.00000  Uiso   1.00
O925   O     0.16666   0.79511   0.68453   0.00000  Uiso   1.00
O926   O     0.04132   0.80366   0.67308   0.00000  Uiso   1.00
Zn927  Zn    0.16667   0.88437   0.75000   0.00000  Uiso   1.00
Zn928  Zn    0.16667   0.78229   0.75000   0.00000  Uiso   1.00
C929   C     0.42018   0.83334   0.74998   0.00000  Uiso   1.00
C930   C     0.64518   0.84870   0.78836   0.00000  Uiso   1.00
C931   C     0.64502   0.81799   0.71165   0.00000  Uiso   1.00
C932   C     0.35497   0.84865   0.78836   0.00000  Uiso   1.00
C933   C     0.48699   0.87142   0.54679   0.00000  Uiso   1.00
C934   C     0.48707   0.79529   0.95316   0.00000  Uiso   1.00
C935   C     0.51675   0.87116   0.95275   0.00000  Uiso   1.00
C936   C     0.51674   0.79557   0.54733   0.00000  Uiso   1.00
C937   C     0.48647   0.87146   0.59279   0.00000  Uiso   1.00
C938   C     0.48660   0.79522   0.90716   0.00000  Uiso   1.00
C939   C     0.51588   0.87128   0.90674   0.00000  Uiso   1.00
C940   C     0.57982   0.83333   0.75002   0.00000  Uiso   1.00
C941   C     0.51581   0.79541   0.59332   0.00000  Uiso   1.00
C942   C     0.50071   0.83338   0.61603   0.00000  Uiso   1.00
C943   C     0.50081   0.83330   0.88397   0.00000  Uiso   1.00
C944   C     0.50215   0.83349   0.52406   0.00000  Uiso   1.00
C945   C     0.50217   0.83325   0.97595   0.00000  Uiso   1.00
C946   C     0.62387   0.83333   0.75001   0.00000  Uiso   1.00
C947   C     0.37612   0.83333   0.74999   0.00000  Uiso   1.00
C948   C     0.50007   0.83335   0.66392   0.00000  Uiso   1.00
C949   C     0.50014   0.83332   0.83608   0.00000  Uiso   1.00
C950   C     0.52506   0.69061   0.77873   0.00000  Uiso   1.00
C951   C     0.47494   0.97605   0.72127   0.00000  Uiso   1.00
C952   C     0.47493   0.69067   0.72128   0.00000  Uiso   1.00
C953   C     0.52506   0.97600   0.77873   0.00000  Uiso   1.00
C954   C     0.35482   0.81800   0.71164   0.00000  Uiso   1.00
H955   H     0.54512   0.70874   0.80170   0.00000  Uiso   1.00
H956   H     0.47518   0.76609   0.97094   0.00000  Uiso   1.00
H957   H     0.52899   0.90040   0.97021   0.00000  Uiso   1.00
H958   H     0.52902   0.76634   0.52992   0.00000  Uiso   1.00
H959   H     0.40466   0.81189   0.67357   0.00000  Uiso   1.00
H960   H     0.59531   0.85505   0.82635   0.00000  Uiso   1.00
H961   H     0.59503   0.81186   0.67360   0.00000  Uiso   1.00
H962   H     0.40494   0.85453   0.82647   0.00000  Uiso   1.00
H963   H     0.45489   0.95793   0.69829   0.00000  Uiso   1.00
H964   H     0.45488   0.70884   0.69831   0.00000  Uiso   1.00
H965   H     0.54511   0.95782   0.80170   0.00000  Uiso   1.00
H966   H     0.47443   0.90086   0.61012   0.00000  Uiso   1.00
H967   H     0.47460   0.76580   0.88979   0.00000  Uiso   1.00
H968   H     0.52740   0.90071   0.88903   0.00000  Uiso   1.00
H969   H     0.52734   0.76598   0.61107   0.00000  Uiso   1.00
H970   H     0.47509   0.90062   0.52895   0.00000  Uiso   1.00
N971   N     0.50000   0.95240   0.75000   0.00000  Uiso   1.00
N972   N     0.50000   0.71427   0.75000   0.00000  Uiso   1.00
O973   O     0.43892   0.87154   0.75000   0.00000  Uiso   1.00
O974   O     0.62535   0.86309   0.82690   0.00000  Uiso   1.00
O975   O     0.62503   0.80364   0.67310   0.00000  Uiso   1.00
O976   O     0.37498   0.86294   0.82692   0.00000  Uiso   1.00
O977   O     0.56108   0.79513   0.75001   0.00000  Uiso   1.00
O978   O     0.56108   0.87154   0.75001   0.00000  Uiso   1.00
O979   O     0.43892   0.79513   0.75000   0.00000  Uiso   1.00
O980   O     0.50000   0.87155   0.68453   0.00000  Uiso   1.00
O981   O     0.50000   0.79511   0.81547   0.00000  Uiso   1.00
O982   O     0.50000   0.87155   0.81547   0.00000  Uiso   1.00
O983   O     0.50000   0.79511   0.68453   0.00000  Uiso   1.00
O984   O     0.37465   0.80366   0.67308   0.00000  Uiso   1.00
Zn985  Zn    0.50000   0.88437   0.75000   0.00000  Uiso   1.00
Zn986  Zn    0.50000   0.78229   0.75000   0.00000  Uiso   1.00
C987   C     0.75352   0.83334   0.74998   0.00000  Uiso   1.00
C988   C     0.97851   0.84870   0.78836   0.00000  Uiso   1.00
C989   C     0.97836   0.81799   0.71165   0.00000  Uiso   1.00
C990   C     0.68831   0.84865   0.78836   0.00000  Uiso   1.00
C991   C     0.82032   0.87142   0.54679   0.00000  Uiso   1.00
C992   C     0.82041   0.79529   0.95316   0.00000  Uiso   1.00
C993   C     0.85009   0.87116   0.95275   0.00000  Uiso   1.00
C994   C     0.85007   0.79557   0.54733   0.00000  Uiso   1.00
C995   C     0.81980   0.87146   0.59279   0.00000  Uiso   1.00
C996   C     0.81993   0.79522   0.90716   0.00000  Uiso   1.00
C997   C     0.84921   0.87128   0.90674   0.00000  Uiso   1.00
C998   C     0.91315   0.83333   0.75002   0.00000  Uiso   1.00
C999   C     0.84914   0.79541   0.59332   0.00000  Uiso   1.00
C1000  C     0.83404   0.83338   0.61603   0.00000  Uiso   1.00
C1001  C     0.83414   0.83330   0.88397   0.00000  Uiso   1.00
C1002  C     0.83549   0.83349   0.52406   0.00000  Uiso   1.00
C1003  C     0.83551   0.83325   0.97595   0.00000  Uiso   1.00
C1004  C     0.95721   0.83333   0.75001   0.00000  Uiso   1.00
C1005  C     0.70945   0.83333   0.74999   0.00000  Uiso   1.00
C1006  C     0.83341   0.83335   0.66392   0.00000  Uiso   1.00
C1007  C     0.83347   0.83332   0.83608   0.00000  Uiso   1.00
C1008  C     0.85840   0.69061   0.77873   0.00000  Uiso   1.00
C1009  C     0.80827   0.97605   0.72127   0.00000  Uiso   1.00
C1010  C     0.80827   0.69067   0.72128   0.00000  Uiso   1.00
C1011  C     0.85840   0.97600   0.77873   0.00000  Uiso   1.00
C1012  C     0.68815   0.81800   0.71164   0.00000  Uiso   1.00
H1013  H     0.87845   0.70874   0.80170   0.00000  Uiso   1.00
H1014  H     0.80852   0.76609   0.97094   0.00000  Uiso   1.00
H1015  H     0.86232   0.90040   0.97021   0.00000  Uiso   1.00
H1016  H     0.86235   0.76634   0.52992   0.00000  Uiso   1.00
H1017  H     0.73799   0.81189   0.67357   0.00000  Uiso   1.00
H1018  H     0.92864   0.85505   0.82635   0.00000  Uiso   1.00
H1019  H     0.92836   0.81186   0.67360   0.00000  Uiso   1.00
H1020  H     0.73827   0.85453   0.82647   0.00000  Uiso   1.00
H1021  H     0.78823   0.95793   0.69829   0.00000  Uiso   1.00
H1022  H     0.78821   0.70884   0.69831   0.00000  Uiso   1.00
H1023  H     0.87845   0.95782   0.80170   0.00000  Uiso   1.00
H1024  H     0.80776   0.90086   0.61012   0.00000  Uiso   1.00
H1025  H     0.80794   0.76580   0.88979   0.00000  Uiso   1.00
H1026  H     0.86073   0.90071   0.88903   0.00000  Uiso   1.00
H1027  H     0.86067   0.76598   0.61107   0.00000  Uiso   1.00
H1028  H     0.80843   0.90062   0.52895   0.00000  Uiso   1.00
N1029  N     0.83333   0.95240   0.75000   0.00000  Uiso   1.00
N1030  N     0.83333   0.71427   0.75000   0.00000  Uiso   1.00
O1031  O     0.77226   0.87154   0.75000   0.00000  Uiso   1.00
O1032  O     0.95868   0.86309   0.82690   0.00000  Uiso   1.00
O1033  O     0.95836   0.80364   0.67310   0.00000  Uiso   1.00
O1034  O     0.70831   0.86294   0.82692   0.00000  Uiso   1.00
O1035  O     0.89441   0.79513   0.75001   0.00000  Uiso   1.00
O1036  O     0.89441   0.87154   0.75001   0.00000  Uiso   1.00
O1037  O     0.77226   0.79513   0.75000   0.00000  Uiso   1.00
O1038  O     0.83333   0.87155   0.68453   0.00000  Uiso   1.00
O1039  O     0.83334   0.79511   0.81547   0.00000  Uiso   1.00
O1040  O     0.83334   0.87155   0.81547   0.00000  Uiso   1.00
O1041  O     0.83333   0.79511   0.68453   0.00000  Uiso   1.00
O1042  O     0.70799   0.80366   0.67308   0.00000  Uiso   1.00
Zn1043 Zn    0.83333   0.88437   0.75000   0.00000  Uiso   1.00
Zn1044 Zn    0.83333   0.78229   0.75000   0.00000  Uiso   1.00
loop_
_geom_bond_atom_site_label_1
_geom_bond_atom_site_label_2
_geom_bond_distance
_geom_bond_site_symmetry_2
_ccdc_geom_bond_type
C1     O51     1.278   .     A
C1     O45     1.278   .     A
C1     C19     1.406   .     S
C2     C18     1.411   .     A
C2     O46     1.386   .     S
C2     C62     1.377   .     S
C3     O47     1.386   .     S
C3     C18     1.411   .     A
C3     C84     1.377   .     S
C4     O48     1.386   .     S
C4     C19     1.410   .     A
C4     C118    1.377   1_455 S
C5     C9      1.380   .     A
C5     H42     1.083   .     S
C5     C16     1.399   .     A
C6     C10     1.380   .     A
C6     C17     1.399   .     A
C6     H28     1.083   .     S
C7     H29     1.083   .     S
C7     C11     1.381   .     A
C7     C17     1.399   .     A
C8     C13     1.380   .     A
C8     H30     1.083   .     S
C8     C16     1.399   .     A
C9     C14     1.399   .     A
C9     H38     1.084   .     S
C10    C15     1.399   .     A
C10    H39     1.084   .     S
C11    C15     1.399   .     A
C11    H40     1.084   .     S
C12    O50     1.278   .     A
C12    O49     1.278   .     A
C12    C18     1.406   .     S
C13    H41     1.084   .     S
C13    C14     1.399   .     A
C14    C20     1.437   .     S
C15    C21     1.437   .     S
C16    C539    1.443   1_554 S
C17    C538    1.443   .     S
C19    C26     1.410   .     A
C20    O55     1.288   .     A
C20    O52     1.288   .     A
C21    O53     1.288   .     A
C21    O54     1.288   .     A
C22    H27     1.082   .     S
C22    N44     1.367   .     A
C22    C373    1.417   1_545 S
C23    H35     1.082   .     S
C23    N43     1.367   .     A
C23    C198    1.417   .     S
C24    H36     1.082   .     S
C24    N44     1.367   .     A
C24    C371    1.417   1_545 S
C25    N43     1.366   .     A
C25    H37     1.082   .     S
C25    C196    1.417   .     S
C26    O56     1.386   .     S
C26    C119    1.377   1_455 S
H31    O56     0.988   .     S
H32    O46     0.988   .     S
H33    O47     0.988   .     S
H34    O48     0.988   .     S
N43    Zn57    2.010   .     S
N44    Zn58    2.010   .     S
O45    Zn57    1.986   .     S
O49    Zn58    1.986   .     S
O50    Zn57    1.986   .     S
O51    Zn58    1.986   .     S
O52    Zn57    2.001   .     S
O53    Zn58    2.001   .     S
O54    Zn57    2.000   .     S
O55    Zn58    2.000   .     S
C59    O109    1.278   .     A
C59    O103    1.278   .     A
C59    C77     1.406   .     S
C60    C76     1.411   .     A
C60    O104    1.386   .     S
C60    C120    1.377   .     S
C61    O105    1.386   .     S
C61    C76     1.411   .     A
C61    C142    1.377   .     S
C62    O106    1.386   .     S
C62    C77     1.410   .     A
C63    C67     1.380   .     A
C63    H100    1.083   .     S
C63    C74     1.399   .     A
C64    C68     1.380   .     A
C64    C75     1.399   .     A
C64    H86     1.083   .     S
C65    H87     1.083   .     S
C65    C69     1.381   .     A
C65    C75     1.399   .     A
C66    C71     1.380   .     A
C66    H88     1.083   .     S
C66    C74     1.399   .     A
C67    C72     1.399   .     A
C67    H96     1.084   .     S
C68    C73     1.399   .     A
C68    H97     1.084   .     S
C69    C73     1.399   .     A
C69    H98     1.084   .     S
C70    O108    1.278   .     A
C70    O107    1.278   .     A
C70    C76     1.406   .     S
C71    H99     1.084   .     S
C71    C72     1.399   .     A
C72    C78     1.437   .     S
C73    C79     1.437   .     S
C74    C597    1.443   1_554 S
C75    C596    1.443   .     S
C77    C84     1.410   .     A
C78    O113    1.288   .     A
C78    O110    1.288   .     A
C79    O111    1.288   .     A
C79    O112    1.288   .     A
C80    H85     1.082   .     S
C80    N102    1.367   .     A
C80    C431    1.417   1_545 S
C81    H93     1.082   .     S
C81    N101    1.367   .     A
C81    C256    1.417   .     S
C82    H94     1.082   .     S
C82    N102    1.367   .     A
C82    C429    1.417   1_545 S
C83    N101    1.366   .     A
C83    H95     1.082   .     S
C83    C254    1.417   .     S
C84    O114    1.386   .     S
H89    O114    0.988   .     S
H90    O104    0.988   .     S
H91    O105    0.988   .     S
H92    O106    0.988   .     S
N101   Zn115   2.010   .     S
N102   Zn116   2.010   .     S
O103   Zn115   1.986   .     S
O107   Zn116   1.986   .     S
O108   Zn115   1.986   .     S
O109   Zn116   1.986   .     S
O110   Zn115   2.001   .     S
O111   Zn116   2.001   .     S
O112   Zn115   2.000   .     S
O113   Zn116   2.000   .     S
C117   O167    1.278   .     A
C117   O161    1.278   .     A
C117   C135    1.406   .     S
C118   C134    1.411   .     A
C118   O162    1.386   .     S
C118   C4      1.377   1_655 S
C119   O163    1.386   .     S
C119   C134    1.411   .     A
C119   C26     1.377   1_655 S
C120   O164    1.386   .     S
C120   C135    1.410   .     A
C121   C125    1.380   .     A
C121   H158    1.083   .     S
C121   C132    1.399   .     A
C122   C126    1.380   .     A
C122   C133    1.399   .     A
C122   H144    1.083   .     S
C123   H145    1.083   .     S
C123   C127    1.381   .     A
C123   C133    1.399   .     A
C124   C129    1.380   .     A
C124   H146    1.083   .     S
C124   C132    1.399   .     A
C125   C130    1.399   .     A
C125   H154    1.084   .     S
C126   C131    1.399   .     A
C126   H155    1.084   .     S
C127   C131    1.399   .     A
C127   H156    1.084   .     S
C128   O166    1.278   .     A
C128   O165    1.278   .     A
C128   C134    1.406   .     S
C129   H157    1.084   .     S
C129   C130    1.399   .     A
C130   C136    1.437   .     S
C131   C137    1.437   .     S
C132   C655    1.443   1_554 S
C133   C654    1.443   .     S
C135   C142    1.410   .     A
C136   O171    1.288   .     A
C136   O168    1.288   .     A
C137   O169    1.288   .     A
C137   O170    1.288   .     A
C138   H143    1.082   .     S
C138   N160    1.367   .     A
C138   C489    1.417   1_545 S
C139   H151    1.082   .     S
C139   N159    1.367   .     A
C139   C314    1.417   .     S
C140   H152    1.082   .     S
C140   N160    1.367   .     A
C140   C487    1.417   1_545 S
C141   N159    1.366   .     A
C141   H153    1.082   .     S
C141   C312    1.417   .     S
C142   O172    1.386   .     S
H147   O172    0.988   .     S
H148   O162    0.988   .     S
H149   O163    0.988   .     S
H150   O164    0.988   .     S
N159   Zn173   2.010   .     S
N160   Zn174   2.010   .     S
O161   Zn173   1.986   .     S
O165   Zn174   1.986   .     S
O166   Zn173   1.986   .     S
O167   Zn174   1.986   .     S
O168   Zn173   2.001   .     S
O169   Zn174   2.001   .     S
O170   Zn173   2.000   .     S
O171   Zn174   2.000   .     S
C175   O225    1.278   .     A
C175   O219    1.278   .     A
C175   C193    1.406   .     S
C176   C192    1.411   .     A
C176   O220    1.386   .     S
C176   C236    1.377   .     S
C177   O221    1.386   .     S
C177   C192    1.411   .     A
C177   C258    1.377   .     S
C178   O222    1.386   .     S
C178   C193    1.410   .     A
C178   C292    1.377   1_455 S
C179   C183    1.380   .     A
C179   H216    1.083   .     S
C179   C190    1.399   .     A
C180   C184    1.380   .     A
C180   C191    1.399   .     A
C180   H202    1.083   .     S
C181   H203    1.083   .     S
C181   C185    1.381   .     A
C181   C191    1.399   .     A
C182   C187    1.380   .     A
C182   H204    1.083   .     S
C182   C190    1.399   .     A
C183   C188    1.399   .     A
C183   H212    1.084   .     S
C184   C189    1.399   .     A
C184   H213    1.084   .     S
C185   C189    1.399   .     A
C185   H214    1.084   .     S
C186   O224    1.278   .     A
C186   O223    1.278   .     A
C186   C192    1.406   .     S
C187   H215    1.084   .     S
C187   C188    1.399   .     A
C188   C194    1.437   .     S
C189   C195    1.437   .     S
C190   C713    1.443   1_554 S
C191   C712    1.443   .     S
C193   C200    1.410   .     A
C194   O229    1.288   .     A
C194   O226    1.288   .     A
C195   O227    1.288   .     A
C195   O228    1.288   .     A
C196   H201    1.082   .     S
C196   N218    1.367   .     A
C197   H209    1.082   .     S
C197   N217    1.367   .     A
C197   C372    1.417   .     S
C198   H210    1.082   .     S
C198   N218    1.367   .     A
C199   N217    1.366   .     A
C199   H211    1.082   .     S
C199   C370    1.417   .     S
C200   O230    1.386   .     S
C200   C293    1.377   1_455 S
H205   O230    0.988   .     S
H206   O220    0.988   .     S
H207   O221    0.988   .     S
H208   O222    0.988   .     S
N217   Zn231   2.010   .     S
N218   Zn232   2.010   .     S
O219   Zn231   1.986   .     S
O223   Zn232   1.986   .     S
O224   Zn231   1.986   .     S
O225   Zn232   1.986   .     S
O226   Zn231   2.001   .     S
O227   Zn232   2.001   .     S
O228   Zn231   2.000   .     S
O229   Zn232   2.000   .     S
C233   O283    1.278   .     A
C233   O277    1.278   .     A
C233   C251    1.406   .     S
C234   C250    1.411   .     A
C234   O278    1.386   .     S
C234   C294    1.377   .     S
C235   O279    1.386   .     S
C235   C250    1.411   .     A
C235   C316    1.377   .     S
C236   O280    1.386   .     S
C236   C251    1.410   .     A
C237   C241    1.380   .     A
C237   H274    1.083   .     S
C237   C248    1.399   .     A
C238   C242    1.380   .     A
C238   C249    1.399   .     A
C238   H260    1.083   .     S
C239   H261    1.083   .     S
C239   C243    1.381   .     A
C239   C249    1.399   .     A
C240   C245    1.380   .     A
C240   H262    1.083   .     S
C240   C248    1.399   .     A
C241   C246    1.399   .     A
C241   H270    1.084   .     S
C242   C247    1.399   .     A
C242   H271    1.084   .     S
C243   C247    1.399   .     A
C243   H272    1.084   .     S
C244   O282    1.278   .     A
C244   O281    1.278   .     A
C244   C250    1.406   .     S
C245   H273    1.084   .     S
C245   C246    1.399   .     A
C246   C252    1.437   .     S
C247   C253    1.437   .     S
C248   C771    1.443   1_554 S
C249   C770    1.443   .     S
C251   C258    1.410   .     A
C252   O287    1.288   .     A
C252   O284    1.288   .     A
C253   O285    1.288   .     A
C253   O286    1.288   .     A
C254   H259    1.082   .     S
C254   N276    1.367   .     A
C255   H267    1.082   .     S
C255   N275    1.367   .     A
C255   C430    1.417   .     S
C256   H268    1.082   .     S
C256   N276    1.367   .     A
C257   N275    1.366   .     A
C257   H269    1.082   .     S
C257   C428    1.417   .     S
C258   O288    1.386   .     S
H263   O288    0.988   .     S
H264   O278    0.988   .     S
H265   O279    0.988   .     S
H266   O280    0.988   .     S
N275   Zn289   2.010   .     S
N276   Zn290   2.010   .     S
O277   Zn289   1.986   .     S
O281   Zn290   1.986   .     S
O282   Zn289   1.986   .     S
O283   Zn290   1.986   .     S
O284   Zn289   2.001   .     S
O285   Zn290   2.001   .     S
O286   Zn289   2.000   .     S
O287   Zn290   2.000   .     S
C291   O341    1.278   .     A
C291   O335    1.278   .     A
C291   C309    1.406   .     S
C292   C308    1.411   .     A
C292   O336    1.386   .     S
C292   C178    1.377   1_655 S
C293   O337    1.386   .     S
C293   C308    1.411   .     A
C293   C200    1.377   1_655 S
C294   O338    1.386   .     S
C294   C309    1.410   .     A
C295   C299    1.380   .     A
C295   H332    1.083   .     S
C295   C306    1.399   .     A
C296   C300    1.380   .     A
C296   C307    1.399   .     A
C296   H318    1.083   .     S
C297   H319    1.083   .     S
C297   C301    1.381   .     A
C297   C307    1.399   .     A
C298   C303    1.380   .     A
C298   H320    1.083   .     S
C298   C306    1.399   .     A
C299   C304    1.399   .     A
C299   H328    1.084   .     S
C300   C305    1.399   .     A
C300   H329    1.084   .     S
C301   C305    1.399   .     A
C301   H330    1.084   .     S
C302   O340    1.278   .     A
C302   O339    1.278   .     A
C302   C308    1.406   .     S
C303   H331    1.084   .     S
C303   C304    1.399   .     A
C304   C310    1.437   .     S
C305   C311    1.437   .     S
C306   C829    1.443   1_554 S
C307   C828    1.443   .     S
C309   C316    1.410   .     A
C310   O345    1.288   .     A
C310   O342    1.288   .     A
C311   O343    1.288   .     A
C311   O344    1.288   .     A
C312   H317    1.082   .     S
C312   N334    1.367   .     A
C313   H325    1.082   .     S
C313   N333    1.367   .     A
C313   C488    1.417   .     S
C314   H326    1.082   .     S
C314   N334    1.367   .     A
C315   N333    1.366   .     A
C315   H327    1.082   .     S
C315   C486    1.417   .     S
C316   O346    1.386   .     S
H321   O346    0.988   .     S
H322   O336    0.988   .     S
H323   O337    0.988   .     S
H324   O338    0.988   .     S
N333   Zn347   2.010   .     S
N334   Zn348   2.010   .     S
O335   Zn347   1.986   .     S
O339   Zn348   1.986   .     S
O340   Zn347   1.986   .     S
O341   Zn348   1.986   .     S
O342   Zn347   2.001   .     S
O343   Zn348   2.001   .     S
O344   Zn347   2.000   .     S
O345   Zn348   2.000   .     S
C349   O399    1.278   .     A
C349   O393    1.278   .     A
C349   C367    1.406   .     S
C350   C366    1.411   .     A
C350   O394    1.386   .     S
C350   C410    1.377   .     S
C351   O395    1.386   .     S
C351   C366    1.411   .     A
C351   C432    1.377   .     S
C352   O396    1.386   .     S
C352   C367    1.410   .     A
C352   C466    1.377   1_455 S
C353   C357    1.380   .     A
C353   H390    1.083   .     S
C353   C364    1.399   .     A
C354   C358    1.380   .     A
C354   C365    1.399   .     A
C354   H376    1.083   .     S
C355   H377    1.083   .     S
C355   C359    1.381   .     A
C355   C365    1.399   .     A
C356   C361    1.380   .     A
C356   H378    1.083   .     S
C356   C364    1.399   .     A
C357   C362    1.399   .     A
C357   H386    1.084   .     S
C358   C363    1.399   .     A
C358   H387    1.084   .     S
C359   C363    1.399   .     A
C359   H388    1.084   .     S
C360   O398    1.278   .     A
C360   O397    1.278   .     A
C360   C366    1.406   .     S
C361   H389    1.084   .     S
C361   C362    1.399   .     A
C362   C368    1.437   .     S
C363   C369    1.437   .     S
C364   C887    1.443   1_554 S
C365   C886    1.443   .     S
C367   C374    1.410   .     A
C368   O403    1.288   .     A
C368   O400    1.288   .     A
C369   O401    1.288   .     A
C369   O402    1.288   .     A
C370   H375    1.082   .     S
C370   N392    1.367   .     A
C371   H383    1.082   .     S
C371   N391    1.367   .     A
C371   C24     1.417   1_565 S
C372   H384    1.082   .     S
C372   N392    1.367   .     A
C373   N391    1.366   .     A
C373   H385    1.082   .     S
C373   C22     1.417   1_565 S
C374   O404    1.386   .     S
C374   C467    1.377   1_455 S
H379   O404    0.988   .     S
H380   O394    0.988   .     S
H381   O395    0.988   .     S
H382   O396    0.988   .     S
N391   Zn405   2.010   .     S
N392   Zn406   2.010   .     S
O393   Zn405   1.986   .     S
O397   Zn406   1.986   .     S
O398   Zn405   1.986   .     S
O399   Zn406   1.986   .     S
O400   Zn405   2.001   .     S
O401   Zn406   2.001   .     S
O402   Zn405   2.000   .     S
O403   Zn406   2.000   .     S
C407   O457    1.278   .     A
C407   O451    1.278   .     A
C407   C425    1.406   .     S
C408   C424    1.411   .     A
C408   O452    1.386   .     S
C408   C468    1.377   .     S
C409   O453    1.386   .     S
C409   C424    1.411   .     A
C409   C490    1.377   .     S
C410   O454    1.386   .     S
C410   C425    1.410   .     A
C411   C415    1.380   .     A
C411   H448    1.083   .     S
C411   C422    1.399   .     A
C412   C416    1.380   .     A
C412   C423    1.399   .     A
C412   H434    1.083   .     S
C413   H435    1.083   .     S
C413   C417    1.381   .     A
C413   C423    1.399   .     A
C414   C419    1.380   .     A
C414   H436    1.083   .     S
C414   C422    1.399   .     A
C415   C420    1.399   .     A
C415   H444    1.084   .     S
C416   C421    1.399   .     A
C416   H445    1.084   .     S
C417   C421    1.399   .     A
C417   H446    1.084   .     S
C418   O456    1.278   .     A
C418   O455    1.278   .     A
C418   C424    1.406   .     S
C419   H447    1.084   .     S
C419   C420    1.399   .     A
C420   C426    1.437   .     S
C421   C427    1.437   .     S
C422   C945    1.443   1_554 S
C423   C944    1.443   .     S
C425   C432    1.410   .     A
C426   O461    1.288   .     A
C426   O458    1.288   .     A
C427   O459    1.288   .     A
C427   O460    1.288   .     A
C428   H433    1.082   .     S
C428   N450    1.367   .     A
C429   H441    1.082   .     S
C429   N449    1.367   .     A
C429   C82     1.417   1_565 S
C430   H442    1.082   .     S
C430   N450    1.367   .     A
C431   N449    1.366   .     A
C431   H443    1.082   .     S
C431   C80     1.417   1_565 S
C432   O462    1.386   .     S
H437   O462    0.988   .     S
H438   O452    0.988   .     S
H439   O453    0.988   .     S
H440   O454    0.988   .     S
N449   Zn463   2.010   .     S
N450   Zn464   2.010   .     S
O451   Zn463   1.986   .     S
O455   Zn464   1.986   .     S
O456   Zn463   1.986   .     S
O457   Zn464   1.986   .     S
O458   Zn463   2.001   .     S
O459   Zn464   2.001   .     S
O460   Zn463   2.000   .     S
O461   Zn464   2.000   .     S
C465   O515    1.278   .     A
C465   O509    1.278   .     A
C465   C483    1.406   .     S
C466   C482    1.411   .     A
C466   O510    1.386   .     S
C466   C352    1.377   1_655 S
C467   O511    1.386   .     S
C467   C482    1.411   .     A
C467   C374    1.377   1_655 S
C468   O512    1.386   .     S
C468   C483    1.410   .     A
C469   C473    1.380   .     A
C469   H506    1.083   .     S
C469   C480    1.399   .     A
C470   C474    1.380   .     A
C470   C481    1.399   .     A
C470   H492    1.083   .     S
C471   H493    1.083   .     S
C471   C475    1.381   .     A
C471   C481    1.399   .     A
C472   C477    1.380   .     A
C472   H494    1.083   .     S
C472   C480    1.399   .     A
C473   C478    1.399   .     A
C473   H502    1.084   .     S
C474   C479    1.399   .     A
C474   H503    1.084   .     S
C475   C479    1.399   .     A
C475   H504    1.084   .     S
C476   O514    1.278   .     A
C476   O513    1.278   .     A
C476   C482    1.406   .     S
C477   H505    1.084   .     S
C477   C478    1.399   .     A
C478   C484    1.437   .     S
C479   C485    1.437   .     S
C480   C1003   1.443   1_554 S
C481   C1002   1.443   .     S
C483   C490    1.410   .     A
C484   O519    1.288   .     A
C484   O516    1.288   .     A
C485   O517    1.288   .     A
C485   O518    1.288   .     A
C486   H491    1.082   .     S
C486   N508    1.367   .     A
C487   H499    1.082   .     S
C487   N507    1.367   .     A
C487   C140    1.417   1_565 S
C488   H500    1.082   .     S
C488   N508    1.367   .     A
C489   N507    1.366   .     A
C489   H501    1.082   .     S
C489   C138    1.417   1_565 S
C490   O520    1.386   .     S
H495   O520    0.988   .     S
H496   O510    0.988   .     S
H497   O511    0.988   .     S
H498   O512    0.988   .     S
N507   Zn521   2.010   .     S
N508   Zn522   2.010   .     S
O509   Zn521   1.986   .     S
O513   Zn522   1.986   .     S
O514   Zn521   1.986   .     S
O515   Zn522   1.986   .     S
O516   Zn521   2.001   .     S
O517   Zn522   2.001   .     S
O518   Zn521   2.000   .     S
O519   Zn522   2.000   .     S
C523   O573    1.278   .     A
C523   O567    1.278   .     A
C523   C541    1.406   .     S
C524   C540    1.411   .     A
C524   O568    1.386   .     S
C524   C584    1.377   .     S
C525   O569    1.386   .     S
C525   C540    1.411   .     A
C525   C606    1.377   .     S
C526   O570    1.386   .     S
C526   C541    1.410   .     A
C526   C640    1.377   1_455 S
C527   C531    1.380   .     A
C527   H564    1.083   .     S
C527   C538    1.399   .     A
C528   C532    1.380   .     A
C528   C539    1.399   .     A
C528   H550    1.083   .     S
C529   H551    1.083   .     S
C529   C533    1.381   .     A
C529   C539    1.399   .     A
C530   C535    1.380   .     A
C530   H552    1.083   .     S
C530   C538    1.399   .     A
C531   C536    1.399   .     A
C531   H560    1.084   .     S
C532   C537    1.399   .     A
C532   H561    1.084   .     S
C533   C537    1.399   .     A
C533   H562    1.084   .     S
C534   O572    1.278   .     A
C534   O571    1.278   .     A
C534   C540    1.406   .     S
C535   H563    1.084   .     S
C535   C536    1.399   .     A
C536   C542    1.437   .     S
C537   C543    1.437   .     S
C539   C16     1.443   1_556 S
C541   C548    1.410   .     A
C542   O577    1.288   .     A
C542   O574    1.288   .     A
C543   O575    1.288   .     A
C543   O576    1.288   .     A
C544   H549    1.082   .     S
C544   N566    1.367   .     A
C544   C895    1.417   1_545 S
C545   H557    1.082   .     S
C545   N565    1.367   .     A
C545   C720    1.417   .     S
C546   H558    1.082   .     S
C546   N566    1.367   .     A
C546   C893    1.417   1_545 S
C547   N565    1.366   .     A
C547   H559    1.082   .     S
C547   C718    1.417   .     S
C548   O578    1.386   .     S
C548   C641    1.377   1_455 S
H553   O578    0.988   .     S
H554   O568    0.988   .     S
H555   O569    0.988   .     S
H556   O570    0.988   .     S
N565   Zn579   2.010   .     S
N566   Zn580   2.010   .     S
O567   Zn579   1.986   .     S
O571   Zn580   1.986   .     S
O572   Zn579   1.986   .     S
O573   Zn580   1.986   .     S
O574   Zn579   2.001   .     S
O575   Zn580   2.001   .     S
O576   Zn579   2.000   .     S
O577   Zn580   2.000   .     S
C581   O631    1.278   .     A
C581   O625    1.278   .     A
C581   C599    1.406   .     S
C582   C598    1.411   .     A
C582   O626    1.386   .     S
C582   C642    1.377   .     S
C583   O627    1.386   .     S
C583   C598    1.411   .     A
C583   C664    1.377   .     S
C584   O628    1.386   .     S
C584   C599    1.410   .     A
C585   C589    1.380   .     A
C585   H622    1.083   .     S
C585   C596    1.399   .     A
C586   C590    1.380   .     A
C586   C597    1.399   .     A
C586   H608    1.083   .     S
C587   H609    1.083   .     S
C587   C591    1.381   .     A
C587   C597    1.399   .     A
C588   C593    1.380   .     A
C588   H610    1.083   .     S
C588   C596    1.399   .     A
C589   C594    1.399   .     A
C589   H618    1.084   .     S
C590   C595    1.399   .     A
C590   H619    1.084   .     S
C591   C595    1.399   .     A
C591   H620    1.084   .     S
C592   O630    1.278   .     A
C592   O629    1.278   .     A
C592   C598    1.406   .     S
C593   H621    1.084   .     S
C593   C594    1.399   .     A
C594   C600    1.437   .     S
C595   C601    1.437   .     S
C597   C74     1.443   1_556 S
C599   C606    1.410   .     A
C600   O635    1.288   .     A
C600   O632    1.288   .     A
C601   O633    1.288   .     A
C601   O634    1.288   .     A
C602   H607    1.082   .     S
C602   N624    1.367   .     A
C602   C953    1.417   1_545 S
C603   H615    1.082   .     S
C603   N623    1.367   .     A
C603   C778    1.417   .     S
C604   H616    1.082   .     S
C604   N624    1.367   .     A
C604   C951    1.417   1_545 S
C605   N623    1.366   .     A
C605   H617    1.082   .     S
C605   C776    1.417   .     S
C606   O636    1.386   .     S
H611   O636    0.988   .     S
H612   O626    0.988   .     S
H613   O627    0.988   .     S
H614   O628    0.988   .     S
N623   Zn637   2.010   .     S
N624   Zn638   2.010   .     S
O625   Zn637   1.986   .     S
O629   Zn638   1.986   .     S
O630   Zn637   1.986   .     S
O631   Zn638   1.986   .     S
O632   Zn637   2.001   .     S
O633   Zn638   2.001   .     S
O634   Zn637   2.000   .     S
O635   Zn638   2.000   .     S
C639   O689    1.278   .     A
C639   O683    1.278   .     A
C639   C657    1.406   .     S
C640   C656    1.411   .     A
C640   O684    1.386   .     S
C640   C526    1.377   1_655 S
C641   O685    1.386   .     S
C641   C656    1.411   .     A
C641   C548    1.377   1_655 S
C642   O686    1.386   .     S
C642   C657    1.410   .     A
C643   C647    1.380   .     A
C643   H680    1.083   .     S
C643   C654    1.399   .     A
C644   C648    1.380   .     A
C644   C655    1.399   .     A
C644   H666    1.083   .     S
C645   H667    1.083   .     S
C645   C649    1.381   .     A
C645   C655    1.399   .     A
C646   C651    1.380   .     A
C646   H668    1.083   .     S
C646   C654    1.399   .     A
C647   C652    1.399   .     A
C647   H676    1.084   .     S
C648   C653    1.399   .     A
C648   H677    1.084   .     S
C649   C653    1.399   .     A
C649   H678    1.084   .     S
C650   O688    1.278   .     A
C650   O687    1.278   .     A
C650   C656    1.406   .     S
C651   H679    1.084   .     S
C651   C652    1.399   .     A
C652   C658    1.437   .     S
C653   C659    1.437   .     S
C655   C132    1.443   1_556 S
C657   C664    1.410   .     A
C658   O693    1.288   .     A
C658   O690    1.288   .     A
C659   O691    1.288   .     A
C659   O692    1.288   .     A
C660   H665    1.082   .     S
C660   N682    1.367   .     A
C660   C1011   1.417   1_545 S
C661   H673    1.082   .     S
C661   N681    1.367   .     A
C661   C836    1.417   .     S
C662   H674    1.082   .     S
C662   N682    1.367   .     A
C662   C1009   1.417   1_545 S
C663   N681    1.366   .     A
C663   H675    1.082   .     S
C663   C834    1.417   .     S
C664   O694    1.386   .     S
H669   O694    0.988   .     S
H670   O684    0.988   .     S
H671   O685    0.988   .     S
H672   O686    0.988   .     S
N681   Zn695   2.010   .     S
N682   Zn696   2.010   .     S
O683   Zn695   1.986   .     S
O687   Zn696   1.986   .     S
O688   Zn695   1.986   .     S
O689   Zn696   1.986   .     S
O690   Zn695   2.001   .     S
O691   Zn696   2.001   .     S
O692   Zn695   2.000   .     S
O693   Zn696   2.000   .     S
C697   O747    1.278   .     A
C697   O741    1.278   .     A
C697   C715    1.406   .     S
C698   C714    1.411   .     A
C698   O742    1.386   .     S
C698   C758    1.377   .     S
C699   O743    1.386   .     S
C699   C714    1.411   .     A
C699   C780    1.377   .     S
C700   O744    1.386   .     S
C700   C715    1.410   .     A
C700   C814    1.377   1_455 S
C701   C705    1.380   .     A
C701   H738    1.083   .     S
C701   C712    1.399   .     A
C702   C706    1.380   .     A
C702   C713    1.399   .     A
C702   H724    1.083   .     S
C703   H725    1.083   .     S
C703   C707    1.381   .     A
C703   C713    1.399   .     A
C704   C709    1.380   .     A
C704   H726    1.083   .     S
C704   C712    1.399   .     A
C705   C710    1.399   .     A
C705   H734    1.084   .     S
C706   C711    1.399   .     A
C706   H735    1.084   .     S
C707   C711    1.399   .     A
C707   H736    1.084   .     S
C708   O746    1.278   .     A
C708   O745    1.278   .     A
C708   C714    1.406   .     S
C709   H737    1.084   .     S
C709   C710    1.399   .     A
C710   C716    1.437   .     S
C711   C717    1.437   .     S
C713   C190    1.443   1_556 S
C715   C722    1.410   .     A
C716   O751    1.288   .     A
C716   O748    1.288   .     A
C717   O749    1.288   .     A
C717   O750    1.288   .     A
C718   H723    1.082   .     S
C718   N740    1.367   .     A
C719   H731    1.082   .     S
C719   N739    1.367   .     A
C719   C894    1.417   .     S
C720   H732    1.082   .     S
C720   N740    1.367   .     A
C721   N739    1.366   .     A
C721   H733    1.082   .     S
C721   C892    1.417   .     S
C722   O752    1.386   .     S
C722   C815    1.377   1_455 S
H727   O752    0.988   .     S
H728   O742    0.988   .     S
H729   O743    0.988   .     S
H730   O744    0.988   .     S
N739   Zn753   2.010   .     S
N740   Zn754   2.010   .     S
O741   Zn753   1.986   .     S
O745   Zn754   1.986   .     S
O746   Zn753   1.986   .     S
O747   Zn754   1.986   .     S
O748   Zn753   2.001   .     S
O749   Zn754   2.001   .     S
O750   Zn753   2.000   .     S
O751   Zn754   2.000   .     S
C755   O805    1.278   .     A
C755   O799    1.278   .     A
C755   C773    1.406   .     S
C756   C772    1.411   .     A
C756   O800    1.386   .     S
C756   C816    1.377   .     S
C757   O801    1.386   .     S
C757   C772    1.411   .     A
C757   C838    1.377   .     S
C758   O802    1.386   .     S
C758   C773    1.410   .     A
C759   C763    1.380   .     A
C759   H796    1.083   .     S
C759   C770    1.399   .     A
C760   C764    1.380   .     A
C760   C771    1.399   .     A
C760   H782    1.083   .     S
C761   H783    1.083   .     S
C761   C765    1.381   .     A
C761   C771    1.399   .     A
C762   C767    1.380   .     A
C762   H784    1.083   .     S
C762   C770    1.399   .     A
C763   C768    1.399   .     A
C763   H792    1.084   .     S
C764   C769    1.399   .     A
C764   H793    1.084   .     S
C765   C769    1.399   .     A
C765   H794    1.084   .     S
C766   O804    1.278   .     A
C766   O803    1.278   .     A
C766   C772    1.406   .     S
C767   H795    1.084   .     S
C767   C768    1.399   .     A
C768   C774    1.437   .     S
C769   C775    1.437   .     S
C771   C248    1.443   1_556 S
C773   C780    1.410   .     A
C774   O809    1.288   .     A
C774   O806    1.288   .     A
C775   O807    1.288   .     A
C775   O808    1.288   .     A
C776   H781    1.082   .     S
C776   N798    1.367   .     A
C777   H789    1.082   .     S
C777   N797    1.367   .     A
C777   C952    1.417   .     S
C778   H790    1.082   .     S
C778   N798    1.367   .     A
C779   N797    1.366   .     A
C779   H791    1.082   .     S
C779   C950    1.417   .     S
C780   O810    1.386   .     S
H785   O810    0.988   .     S
H786   O800    0.988   .     S
H787   O801    0.988   .     S
H788   O802    0.988   .     S
N797   Zn811   2.010   .     S
N798   Zn812   2.010   .     S
O799   Zn811   1.986   .     S
O803   Zn812   1.986   .     S
O804   Zn811   1.986   .     S
O805   Zn812   1.986   .     S
O806   Zn811   2.001   .     S
O807   Zn812   2.001   .     S
O808   Zn811   2.000   .     S
O809   Zn812   2.000   .     S
C813   O863    1.278   .     A
C813   O857    1.278   .     A
C813   C831    1.406   .     S
C814   C830    1.411   .     A
C814   O858    1.386   .     S
C814   C700    1.377   1_655 S
C815   O859    1.386   .     S
C815   C830    1.411   .     A
C815   C722    1.377   1_655 S
C816   O860    1.386   .     S
C816   C831    1.410   .     A
C817   C821    1.380   .     A
C817   H854    1.083   .     S
C817   C828    1.399   .     A
C818   C822    1.380   .     A
C818   C829    1.399   .     A
C818   H840    1.083   .     S
C819   H841    1.083   .     S
C819   C823    1.381   .     A
C819   C829    1.399   .     A
C820   C825    1.380   .     A
C820   H842    1.083   .     S
C820   C828    1.399   .     A
C821   C826    1.399   .     A
C821   H850    1.084   .     S
C822   C827    1.399   .     A
C822   H851    1.084   .     S
C823   C827    1.399   .     A
C823   H852    1.084   .     S
C824   O862    1.278   .     A
C824   O861    1.278   .     A
C824   C830    1.406   .     S
C825   H853    1.084   .     S
C825   C826    1.399   .     A
C826   C832    1.437   .     S
C827   C833    1.437   .     S
C829   C306    1.443   1_556 S
C831   C838    1.410   .     A
C832   O867    1.288   .     A
C832   O864    1.288   .     A
C833   O865    1.288   .     A
C833   O866    1.288   .     A
C834   H839    1.082   .     S
C834   N856    1.367   .     A
C835   H847    1.082   .     S
C835   N855    1.367   .     A
C835   C1010   1.417   .     S
C836   H848    1.082   .     S
C836   N856    1.367   .     A
C837   N855    1.366   .     A
C837   H849    1.082   .     S
C837   C1008   1.417   .     S
C838   O868    1.386   .     S
H843   O868    0.988   .     S
H844   O858    0.988   .     S
H845   O859    0.988   .     S
H846   O860    0.988   .     S
N855   Zn869   2.010   .     S
N856   Zn870   2.010   .     S
O857   Zn869   1.986   .     S
O861   Zn870   1.986   .     S
O862   Zn869   1.986   .     S
O863   Zn870   1.986   .     S
O864   Zn869   2.001   .     S
O865   Zn870   2.001   .     S
O866   Zn869   2.000   .     S
O867   Zn870   2.000   .     S
C871   O921    1.278   .     A
C871   O915    1.278   .     A
C871   C889    1.406   .     S
C872   C888    1.411   .     A
C872   O916    1.386   .     S
C872   C932    1.377   .     S
C873   O917    1.386   .     S
C873   C888    1.411   .     A
C873   C954    1.377   .     S
C874   O918    1.386   .     S
C874   C889    1.410   .     A
C874   C988    1.377   1_455 S
C875   C879    1.380   .     A
C875   H912    1.083   .     S
C875   C886    1.399   .     A
C876   C880    1.380   .     A
C876   C887    1.399   .     A
C876   H898    1.083   .     S
C877   H899    1.083   .     S
C877   C881    1.381   .     A
C877   C887    1.399   .     A
C878   C883    1.380   .     A
C878   H900    1.083   .     S
C878   C886    1.399   .     A
C879   C884    1.399   .     A
C879   H908    1.084   .     S
C880   C885    1.399   .     A
C880   H909    1.084   .     S
C881   C885    1.399   .     A
C881   H910    1.084   .     S
C882   O920    1.278   .     A
C882   O919    1.278   .     A
C882   C888    1.406   .     S
C883   H911    1.084   .     S
C883   C884    1.399   .     A
C884   C890    1.437   .     S
C885   C891    1.437   .     S
C887   C364    1.443   1_556 S
C889   C896    1.410   .     A
C890   O925    1.288   .     A
C890   O922    1.288   .     A
C891   O923    1.288   .     A
C891   O924    1.288   .     A
C892   H897    1.082   .     S
C892   N914    1.367   .     A
C893   H905    1.082   .     S
C893   N913    1.367   .     A
C893   C546    1.417   1_565 S
C894   H906    1.082   .     S
C894   N914    1.367   .     A
C895   N913    1.366   .     A
C895   H907    1.082   .     S
C895   C544    1.417   1_565 S
C896   O926    1.386   .     S
C896   C989    1.377   1_455 S
H901   O926    0.988   .     S
H902   O916    0.988   .     S
H903   O917    0.988   .     S
H904   O918    0.988   .     S
N913   Zn927   2.010   .     S
N914   Zn928   2.010   .     S
O915   Zn927   1.986   .     S
O919   Zn928   1.986   .     S
O920   Zn927   1.986   .     S
O921   Zn928   1.986   .     S
O922   Zn927   2.001   .     S
O923   Zn928   2.001   .     S
O924   Zn927   2.000   .     S
O925   Zn928   2.000   .     S
C929   O979    1.278   .     A
C929   O973    1.278   .     A
C929   C947    1.406   .     S
C930   C946    1.411   .     A
C930   O974    1.386   .     S
C930   C990    1.377   .     S
C931   O975    1.386   .     S
C931   C946    1.411   .     A
C931   C1012   1.377   .     S
C932   O976    1.386   .     S
C932   C947    1.410   .     A
C933   C937    1.380   .     A
C933   H970    1.083   .     S
C933   C944    1.399   .     A
C934   C938    1.380   .     A
C934   C945    1.399   .     A
C934   H956    1.083   .     S
C935   H957    1.083   .     S
C935   C939    1.381   .     A
C935   C945    1.399   .     A
C936   C941    1.380   .     A
C936   H958    1.083   .     S
C936   C944    1.399   .     A
C937   C942    1.399   .     A
C937   H966    1.084   .     S
C938   C943    1.399   .     A
C938   H967    1.084   .     S
C939   C943    1.399   .     A
C939   H968    1.084   .     S
C940   O978    1.278   .     A
C940   O977    1.278   .     A
C940   C946    1.406   .     S
C941   H969    1.084   .     S
C941   C942    1.399   .     A
C942   C948    1.437   .     S
C943   C949    1.437   .     S
C945   C422    1.443   1_556 S
C947   C954    1.410   .     A
C948   O983    1.288   .     A
C948   O980    1.288   .     A
C949   O981    1.288   .     A
C949   O982    1.288   .     A
C950   H955    1.082   .     S
C950   N972    1.367   .     A
C951   H963    1.082   .     S
C951   N971    1.367   .     A
C951   C604    1.417   1_565 S
C952   H964    1.082   .     S
C952   N972    1.367   .     A
C953   N971    1.366   .     A
C953   H965    1.082   .     S
C953   C602    1.417   1_565 S
C954   O984    1.386   .     S
H959   O984    0.988   .     S
H960   O974    0.988   .     S
H961   O975    0.988   .     S
H962   O976    0.988   .     S
N971   Zn985   2.010   .     S
N972   Zn986   2.010   .     S
O973   Zn985   1.986   .     S
O977   Zn986   1.986   .     S
O978   Zn985   1.986   .     S
O979   Zn986   1.986   .     S
O980   Zn985   2.001   .     S
O981   Zn986   2.001   .     S
O982   Zn985   2.000   .     S
O983   Zn986   2.000   .     S
C987   O1037   1.278   .     A
C987   O1031   1.278   .     A
C987   C1005   1.406   .     S
C988   C1004   1.411   .     A
C988   O1032   1.386   .     S
C988   C874    1.377   1_655 S
C989   O1033   1.386   .     S
C989   C1004   1.411   .     A
C989   C896    1.377   1_655 S
C990   O1034   1.386   .     S
C990   C1005   1.410   .     A
C991   C995    1.380   .     A
C991   H1028   1.083   .     S
C991   C1002   1.399   .     A
C992   C996    1.380   .     A
C992   C1003   1.399   .     A
C992   H1014   1.083   .     S
C993   H1015   1.083   .     S
C993   C997    1.381   .     A
C993   C1003   1.399   .     A
C994   C999    1.380   .     A
C994   H1016   1.083   .     S
C994   C1002   1.399   .     A
C995   C1000   1.399   .     A
C995   H1024   1.084   .     S
C996   C1001   1.399   .     A
C996   H1025   1.084   .     S
C997   C1001   1.399   .     A
C997   H1026   1.084   .     S
C998   O1036   1.278   .     A
C998   O1035   1.278   .     A
C998   C1004   1.406   .     S
C999   H1027   1.084   .     S
C999   C1000   1.399   .     A
C1000  C1006   1.437   .     S
C1001  C1007   1.437   .     S
C1003  C480    1.443   1_556 S
C1005  C1012   1.410   .     A
C1006  O1041   1.288   .     A
C1006  O1038   1.288   .     A
C1007  O1039   1.288   .     A
C1007  O1040   1.288   .     A
C1008  H1013   1.082   .     S
C1008  N1030   1.367   .     A
C1009  H1021   1.082   .     S
C1009  N1029   1.367   .     A
C1009  C662    1.417   1_565 S
C1010  H1022   1.082   .     S
C1010  N1030   1.367   .     A
C1011  N1029   1.366   .     A
C1011  H1023   1.082   .     S
C1011  C660    1.417   1_565 S
C1012  O1042   1.386   .     S
H1017  O1042   0.988   .     S
H1018  O1032   0.988   .     S
H1019  O1033   0.988   .     S
H1020  O1034   0.988   .     S
N1029  Zn1043  2.010   .     S
N1030  Zn1044  2.010   .     S
O1031  Zn1043  1.986   .     S
O1035  Zn1044  1.986   .     S
O1036  Zn1043  1.986   .     S
O1037  Zn1044  1.986   .     S
O1038  Zn1043  2.001   .     S
O1039  Zn1044  2.001   .     S
O1040  Zn1043  2.000   .     S
O1041  Zn1044  2.000   .     S
