data_str_m3_o1_o16_pcu_sym.147
_audit_creation_date              2020-01-03
_audit_creation_method            'Materials Studio'
_symmetry_space_group_name_H-M    'P1'
_symmetry_Int_Tables_number       1
_symmetry_cell_setting            triclinic
loop_
_symmetry_equiv_pos_as_xyz
  x,y,z
_cell_length_a                    29.6658
_cell_length_b                    31.9463
_cell_length_c                    26.3481
_cell_angle_alpha                 90.1971
_cell_angle_beta                  71.5512
_cell_angle_gamma                 90.4105
loop_
_atom_site_label
_atom_site_type_symbol
_atom_site_fract_x
_atom_site_fract_y
_atom_site_fract_z
_atom_site_U_iso_or_equiv
_atom_site_adp_type
_atom_site_occupancy
C1     C     0.16687   0.24652   0.24956   0.00000  Uiso   1.00
C2     C     0.14778   0.14382   0.48841   0.00000  Uiso   1.00
C3     C     0.16133   0.13936   0.43246   0.00000  Uiso   1.00
C4     C     0.18409   0.15108   0.01191   0.00000  Uiso   1.00
C5     C     0.23201   0.15620   0.47927   0.00000  Uiso   1.00
C6     C     0.24472   0.14250   0.42631   0.00000  Uiso   1.00
C7     C     0.20964   0.13159   0.40431   0.00000  Uiso   1.00
C8     C     0.17399   0.15389   0.06678   0.00000  Uiso   1.00
C9     C     0.25414   0.17846   0.05661   0.00000  Uiso   1.00
C10    C     0.12655   0.14405   0.40635   0.00000  Uiso   1.00
C11    C     0.20030   0.31293   0.20844   0.00000  Uiso   1.00
C12    C     0.14113   0.15914   0.35038   0.00000  Uiso   1.00
C13    C     0.20000   0.02245   0.21096   0.00000  Uiso   1.00
C14    C     0.16619   0.04272   0.25248   0.00000  Uiso   1.00
C15    C     0.13278   0.02095   0.29422   0.00000  Uiso   1.00
C16    C     0.13255   0.31074   0.29204   0.00000  Uiso   1.00
C17    C     0.16665   0.29072   0.24959   0.00000  Uiso   1.00
C18    C     0.31924   0.14475   0.21253   0.00000  Uiso   1.00
C19    C     0.03343   0.14397   0.21264   0.00000  Uiso   1.00
C20    C     0.01367   0.18896   0.28738   0.00000  Uiso   1.00
C21    C     0.29912   0.18885   0.28746   0.00000  Uiso   1.00
C22    C     0.16641   0.08681   0.25066   0.00000  Uiso   1.00
C23    C     0.19277   0.16765   0.14811   0.00000  Uiso   1.00
C24    C     0.26608   0.17303   0.00127   0.00000  Uiso   1.00
C25    C     0.20807   0.16689   0.08971   0.00000  Uiso   1.00
C26    C     0.07800   0.13838   0.43640   0.00000  Uiso   1.00
C27    C     0.06475   0.13850   0.49196   0.00000  Uiso   1.00
C28    C     0.09865   0.14340   0.01780   0.00000  Uiso   1.00
H29    H     0.30901   0.12702   0.18279   0.00000  Uiso   1.00
H30    H     0.02344   0.20680   0.31733   0.00000  Uiso   1.00
H31    H     0.27284   0.20661   0.31753   0.00000  Uiso   1.00
H32    H     0.28154   0.13947   0.40191   0.00000  Uiso   1.00
H33    H     0.13966   0.14438   0.09266   0.00000  Uiso   1.00
H34    H     0.08495   0.14677   0.06063   0.00000  Uiso   1.00
H35    H     0.02759   0.13582   0.01545   0.00000  Uiso   1.00
H36    H     0.22093   0.11828   0.36451   0.00000  Uiso   1.00
N37    N     0.04760   0.16668   0.25002   0.00000  Uiso   1.00
N38    N     0.28573   0.16665   0.25001   0.00000  Uiso   1.00
O39    O     0.12846   0.22775   0.25001   0.00000  Uiso   1.00
O40    O     0.20490   0.22774   0.25001   0.00000  Uiso   1.00
O41    O     0.10947   0.16666   0.32681   0.00000  Uiso   1.00
O42    O     0.18591   0.16665   0.32681   0.00000  Uiso   1.00
O43    O     0.12843   0.10559   0.25000   0.00000  Uiso   1.00
O44    O     0.20488   0.10558   0.25000   0.00000  Uiso   1.00
O45    O     0.14742   0.16668   0.17319   0.00000  Uiso   1.00
O46    O     0.22387   0.16667   0.17319   0.00000  Uiso   1.00
Zn47   Zn    0.11562   0.16667   0.25000   0.00000  Uiso   1.00
Zn48   Zn    0.21771   0.16666   0.25000   0.00000  Uiso   1.00
O49    O     0.28807   0.19583   0.07613   0.00000  Uiso   1.00
H50    H     0.27188   0.21240   0.10840   0.00000  Uiso   1.00
H51    H     0.22529   0.04016   0.17936   0.00000  Uiso   1.00
O52    O     0.10139   0.04093   0.33759   0.00000  Uiso   1.00
H53    H     0.11446   0.06873   0.34209   0.00000  Uiso   1.00
O54    O     0.10111   0.28664   0.33144   0.00000  Uiso   1.00
H55    H     0.07847   0.30481   0.35784   0.00000  Uiso   1.00
O56    O     0.06412   0.11949   0.17425   0.00000  Uiso   1.00
H57    H     0.09124   0.11269   0.18626   0.00000  Uiso   1.00
O58    O     0.30992   0.18769   0.47006   0.00000  Uiso   1.00
H59    H     0.30839   0.19487   0.43412   0.00000  Uiso   1.00
O60    O     0.04266   0.13263   0.41341   0.00000  Uiso   1.00
H61    H     0.05613   0.11752   0.37921   0.00000  Uiso   1.00
O62    O     0.23293   0.29434   0.16483   0.00000  Uiso   1.00
H63    H     0.22282   0.26530   0.16087   0.00000  Uiso   1.00
C64    C     0.50020   0.24652   0.24956   0.00000  Uiso   1.00
C65    C     0.48112   0.14382   0.48841   0.00000  Uiso   1.00
C66    C     0.49466   0.13936   0.43246   0.00000  Uiso   1.00
C67    C     0.51742   0.15108   0.01191   0.00000  Uiso   1.00
C68    C     0.56534   0.15620   0.47927   0.00000  Uiso   1.00
C69    C     0.57805   0.14250   0.42631   0.00000  Uiso   1.00
C70    C     0.54297   0.13159   0.40431   0.00000  Uiso   1.00
C71    C     0.50733   0.15389   0.06678   0.00000  Uiso   1.00
C72    C     0.58747   0.17846   0.05661   0.00000  Uiso   1.00
C73    C     0.45988   0.14405   0.40635   0.00000  Uiso   1.00
C74    C     0.53363   0.31293   0.20844   0.00000  Uiso   1.00
C75    C     0.47447   0.15914   0.35038   0.00000  Uiso   1.00
C76    C     0.53333   0.02245   0.21096   0.00000  Uiso   1.00
C77    C     0.49952   0.04272   0.25248   0.00000  Uiso   1.00
C78    C     0.46611   0.02095   0.29422   0.00000  Uiso   1.00
C79    C     0.46588   0.31074   0.29204   0.00000  Uiso   1.00
C80    C     0.49998   0.29072   0.24959   0.00000  Uiso   1.00
C81    C     0.65258   0.14475   0.21253   0.00000  Uiso   1.00
C82    C     0.36677   0.14397   0.21264   0.00000  Uiso   1.00
C83    C     0.34700   0.18896   0.28738   0.00000  Uiso   1.00
C84    C     0.63246   0.18885   0.28746   0.00000  Uiso   1.00
C85    C     0.49975   0.08681   0.25066   0.00000  Uiso   1.00
C86    C     0.52610   0.16765   0.14811   0.00000  Uiso   1.00
C87    C     0.59941   0.17303   0.00127   0.00000  Uiso   1.00
C88    C     0.54141   0.16689   0.08971   0.00000  Uiso   1.00
C89    C     0.41134   0.13838   0.43640   0.00000  Uiso   1.00
C90    C     0.39808   0.13850   0.49196   0.00000  Uiso   1.00
C91    C     0.43198   0.14340   0.01780   0.00000  Uiso   1.00
H92    H     0.64234   0.12702   0.18279   0.00000  Uiso   1.00
H93    H     0.35677   0.20680   0.31733   0.00000  Uiso   1.00
H94    H     0.60617   0.20661   0.31753   0.00000  Uiso   1.00
H95    H     0.61487   0.13947   0.40191   0.00000  Uiso   1.00
H96    H     0.47300   0.14438   0.09266   0.00000  Uiso   1.00
H97    H     0.41829   0.14677   0.06063   0.00000  Uiso   1.00
H98    H     0.36092   0.13582   0.01545   0.00000  Uiso   1.00
H99    H     0.55426   0.11828   0.36451   0.00000  Uiso   1.00
N100   N     0.38093   0.16668   0.25002   0.00000  Uiso   1.00
N101   N     0.61906   0.16665   0.25001   0.00000  Uiso   1.00
O102   O     0.46179   0.22775   0.25001   0.00000  Uiso   1.00
O103   O     0.53823   0.22774   0.25001   0.00000  Uiso   1.00
O104   O     0.44280   0.16666   0.32681   0.00000  Uiso   1.00
O105   O     0.51924   0.16665   0.32681   0.00000  Uiso   1.00
O106   O     0.46177   0.10559   0.25000   0.00000  Uiso   1.00
O107   O     0.53821   0.10558   0.25000   0.00000  Uiso   1.00
O108   O     0.48076   0.16668   0.17319   0.00000  Uiso   1.00
O109   O     0.55720   0.16667   0.17319   0.00000  Uiso   1.00
Zn110  Zn    0.44896   0.16667   0.25000   0.00000  Uiso   1.00
Zn111  Zn    0.55104   0.16666   0.25000   0.00000  Uiso   1.00
O112   O     0.62141   0.19583   0.07613   0.00000  Uiso   1.00
H113   H     0.60521   0.21240   0.10840   0.00000  Uiso   1.00
H114   H     0.55863   0.04016   0.17936   0.00000  Uiso   1.00
O115   O     0.43472   0.04093   0.33759   0.00000  Uiso   1.00
H116   H     0.44779   0.06873   0.34209   0.00000  Uiso   1.00
O117   O     0.43445   0.28664   0.33144   0.00000  Uiso   1.00
H118   H     0.41180   0.30481   0.35784   0.00000  Uiso   1.00
O119   O     0.39745   0.11949   0.17425   0.00000  Uiso   1.00
H120   H     0.42458   0.11269   0.18626   0.00000  Uiso   1.00
O121   O     0.64326   0.18769   0.47006   0.00000  Uiso   1.00
H122   H     0.64172   0.19487   0.43412   0.00000  Uiso   1.00
O123   O     0.37600   0.13263   0.41341   0.00000  Uiso   1.00
H124   H     0.38946   0.11752   0.37921   0.00000  Uiso   1.00
O125   O     0.56626   0.29434   0.16483   0.00000  Uiso   1.00
H126   H     0.55616   0.26530   0.16087   0.00000  Uiso   1.00
C127   C     0.83354   0.24652   0.24956   0.00000  Uiso   1.00
C128   C     0.81445   0.14382   0.48841   0.00000  Uiso   1.00
C129   C     0.82799   0.13936   0.43246   0.00000  Uiso   1.00
C130   C     0.85076   0.15108   0.01191   0.00000  Uiso   1.00
C131   C     0.89867   0.15620   0.47927   0.00000  Uiso   1.00
C132   C     0.91139   0.14250   0.42631   0.00000  Uiso   1.00
C133   C     0.87630   0.13159   0.40431   0.00000  Uiso   1.00
C134   C     0.84066   0.15389   0.06678   0.00000  Uiso   1.00
C135   C     0.92080   0.17846   0.05661   0.00000  Uiso   1.00
C136   C     0.79321   0.14405   0.40635   0.00000  Uiso   1.00
C137   C     0.86696   0.31293   0.20844   0.00000  Uiso   1.00
C138   C     0.80780   0.15914   0.35038   0.00000  Uiso   1.00
C139   C     0.86666   0.02245   0.21096   0.00000  Uiso   1.00
C140   C     0.83286   0.04272   0.25248   0.00000  Uiso   1.00
C141   C     0.79945   0.02095   0.29422   0.00000  Uiso   1.00
C142   C     0.79922   0.31074   0.29204   0.00000  Uiso   1.00
C143   C     0.83332   0.29072   0.24959   0.00000  Uiso   1.00
C144   C     0.98591   0.14475   0.21253   0.00000  Uiso   1.00
C145   C     0.70010   0.14397   0.21264   0.00000  Uiso   1.00
C146   C     0.68034   0.18896   0.28738   0.00000  Uiso   1.00
C147   C     0.96579   0.18885   0.28746   0.00000  Uiso   1.00
C148   C     0.83308   0.08681   0.25066   0.00000  Uiso   1.00
C149   C     0.85944   0.16765   0.14811   0.00000  Uiso   1.00
C150   C     0.93274   0.17303   0.00127   0.00000  Uiso   1.00
C151   C     0.87474   0.16689   0.08971   0.00000  Uiso   1.00
C152   C     0.74467   0.13838   0.43640   0.00000  Uiso   1.00
C153   C     0.73141   0.13850   0.49196   0.00000  Uiso   1.00
C154   C     0.76532   0.14340   0.01780   0.00000  Uiso   1.00
H155   H     0.97567   0.12702   0.18279   0.00000  Uiso   1.00
H156   H     0.69010   0.20680   0.31733   0.00000  Uiso   1.00
H157   H     0.93951   0.20661   0.31753   0.00000  Uiso   1.00
H158   H     0.94820   0.13947   0.40191   0.00000  Uiso   1.00
H159   H     0.80633   0.14438   0.09266   0.00000  Uiso   1.00
H160   H     0.75162   0.14677   0.06063   0.00000  Uiso   1.00
H161   H     0.69426   0.13582   0.01545   0.00000  Uiso   1.00
H162   H     0.88759   0.11828   0.36451   0.00000  Uiso   1.00
N163   N     0.71426   0.16668   0.25002   0.00000  Uiso   1.00
N164   N     0.95239   0.16665   0.25001   0.00000  Uiso   1.00
O165   O     0.79512   0.22775   0.25001   0.00000  Uiso   1.00
O166   O     0.87157   0.22774   0.25001   0.00000  Uiso   1.00
O167   O     0.77613   0.16666   0.32681   0.00000  Uiso   1.00
O168   O     0.85258   0.16665   0.32681   0.00000  Uiso   1.00
O169   O     0.79510   0.10559   0.25000   0.00000  Uiso   1.00
O170   O     0.87154   0.10558   0.25000   0.00000  Uiso   1.00
O171   O     0.81409   0.16668   0.17319   0.00000  Uiso   1.00
O172   O     0.89053   0.16667   0.17319   0.00000  Uiso   1.00
Zn173  Zn    0.78229   0.16667   0.25000   0.00000  Uiso   1.00
Zn174  Zn    0.88438   0.16666   0.25000   0.00000  Uiso   1.00
O175   O     0.95474   0.19583   0.07613   0.00000  Uiso   1.00
H176   H     0.93855   0.21240   0.10840   0.00000  Uiso   1.00
H177   H     0.89196   0.04016   0.17936   0.00000  Uiso   1.00
O178   O     0.76805   0.04093   0.33759   0.00000  Uiso   1.00
H179   H     0.78113   0.06873   0.34209   0.00000  Uiso   1.00
O180   O     0.76778   0.28664   0.33144   0.00000  Uiso   1.00
H181   H     0.74513   0.30481   0.35784   0.00000  Uiso   1.00
O182   O     0.73078   0.11949   0.17425   0.00000  Uiso   1.00
H183   H     0.75791   0.11269   0.18626   0.00000  Uiso   1.00
O184   O     0.97659   0.18769   0.47006   0.00000  Uiso   1.00
H185   H     0.97505   0.19487   0.43412   0.00000  Uiso   1.00
O186   O     0.70933   0.13263   0.41341   0.00000  Uiso   1.00
H187   H     0.72279   0.11752   0.37921   0.00000  Uiso   1.00
O188   O     0.89960   0.29434   0.16483   0.00000  Uiso   1.00
H189   H     0.88949   0.26530   0.16087   0.00000  Uiso   1.00
C190   C     0.16687   0.57986   0.24956   0.00000  Uiso   1.00
C191   C     0.14778   0.47715   0.48841   0.00000  Uiso   1.00
C192   C     0.16133   0.47270   0.43246   0.00000  Uiso   1.00
C193   C     0.18409   0.48441   0.01191   0.00000  Uiso   1.00
C194   C     0.23201   0.48953   0.47927   0.00000  Uiso   1.00
C195   C     0.24472   0.47583   0.42631   0.00000  Uiso   1.00
C196   C     0.20964   0.46492   0.40431   0.00000  Uiso   1.00
C197   C     0.17399   0.48723   0.06678   0.00000  Uiso   1.00
C198   C     0.25414   0.51179   0.05661   0.00000  Uiso   1.00
C199   C     0.12655   0.47738   0.40635   0.00000  Uiso   1.00
C200   C     0.20030   0.64626   0.20844   0.00000  Uiso   1.00
C201   C     0.14113   0.49247   0.35038   0.00000  Uiso   1.00
C202   C     0.20000   0.35579   0.21096   0.00000  Uiso   1.00
C203   C     0.16619   0.37605   0.25248   0.00000  Uiso   1.00
C204   C     0.13278   0.35428   0.29422   0.00000  Uiso   1.00
C205   C     0.13255   0.64407   0.29204   0.00000  Uiso   1.00
C206   C     0.16665   0.62406   0.24959   0.00000  Uiso   1.00
C207   C     0.31924   0.47808   0.21253   0.00000  Uiso   1.00
C208   C     0.03343   0.47731   0.21264   0.00000  Uiso   1.00
C209   C     0.01367   0.52230   0.28738   0.00000  Uiso   1.00
C210   C     0.29912   0.52218   0.28746   0.00000  Uiso   1.00
C211   C     0.16641   0.42015   0.25066   0.00000  Uiso   1.00
C212   C     0.19277   0.50098   0.14811   0.00000  Uiso   1.00
C213   C     0.26608   0.50637   0.00127   0.00000  Uiso   1.00
C214   C     0.20807   0.50023   0.08971   0.00000  Uiso   1.00
C215   C     0.07800   0.47171   0.43640   0.00000  Uiso   1.00
C216   C     0.06475   0.47184   0.49196   0.00000  Uiso   1.00
C217   C     0.09865   0.47673   0.01780   0.00000  Uiso   1.00
H218   H     0.30901   0.46036   0.18279   0.00000  Uiso   1.00
H219   H     0.02344   0.54013   0.31733   0.00000  Uiso   1.00
H220   H     0.27284   0.53995   0.31753   0.00000  Uiso   1.00
H221   H     0.28154   0.47280   0.40191   0.00000  Uiso   1.00
H222   H     0.13966   0.47771   0.09266   0.00000  Uiso   1.00
H223   H     0.08495   0.48010   0.06063   0.00000  Uiso   1.00
H224   H     0.02759   0.46915   0.01545   0.00000  Uiso   1.00
H225   H     0.22093   0.45161   0.36451   0.00000  Uiso   1.00
N226   N     0.04760   0.50001   0.25002   0.00000  Uiso   1.00
N227   N     0.28573   0.49998   0.25001   0.00000  Uiso   1.00
O228   O     0.12846   0.56108   0.25001   0.00000  Uiso   1.00
O229   O     0.20490   0.56107   0.25001   0.00000  Uiso   1.00
O230   O     0.10947   0.50000   0.32681   0.00000  Uiso   1.00
O231   O     0.18591   0.49999   0.32681   0.00000  Uiso   1.00
O232   O     0.12843   0.43893   0.25000   0.00000  Uiso   1.00
O233   O     0.20488   0.43892   0.25000   0.00000  Uiso   1.00
O234   O     0.14742   0.50001   0.17319   0.00000  Uiso   1.00
O235   O     0.22387   0.50000   0.17319   0.00000  Uiso   1.00
Zn236  Zn    0.11562   0.50001   0.25000   0.00000  Uiso   1.00
Zn237  Zn    0.21771   0.49999   0.25000   0.00000  Uiso   1.00
O238   O     0.28807   0.52917   0.07613   0.00000  Uiso   1.00
H239   H     0.27188   0.54573   0.10840   0.00000  Uiso   1.00
H240   H     0.22529   0.37349   0.17936   0.00000  Uiso   1.00
O241   O     0.10139   0.37426   0.33759   0.00000  Uiso   1.00
H242   H     0.11446   0.40206   0.34209   0.00000  Uiso   1.00
O243   O     0.10111   0.61997   0.33144   0.00000  Uiso   1.00
H244   H     0.07847   0.63815   0.35784   0.00000  Uiso   1.00
O245   O     0.06412   0.45283   0.17425   0.00000  Uiso   1.00
H246   H     0.09124   0.44603   0.18626   0.00000  Uiso   1.00
O247   O     0.30992   0.52102   0.47006   0.00000  Uiso   1.00
H248   H     0.30839   0.52821   0.43412   0.00000  Uiso   1.00
O249   O     0.04266   0.46597   0.41341   0.00000  Uiso   1.00
H250   H     0.05613   0.45086   0.37921   0.00000  Uiso   1.00
O251   O     0.23293   0.62768   0.16483   0.00000  Uiso   1.00
H252   H     0.22282   0.59864   0.16087   0.00000  Uiso   1.00
C253   C     0.50020   0.57986   0.24956   0.00000  Uiso   1.00
C254   C     0.48112   0.47715   0.48841   0.00000  Uiso   1.00
C255   C     0.49466   0.47270   0.43246   0.00000  Uiso   1.00
C256   C     0.51742   0.48441   0.01191   0.00000  Uiso   1.00
C257   C     0.56534   0.48953   0.47927   0.00000  Uiso   1.00
C258   C     0.57805   0.47583   0.42631   0.00000  Uiso   1.00
C259   C     0.54297   0.46492   0.40431   0.00000  Uiso   1.00
C260   C     0.50733   0.48723   0.06678   0.00000  Uiso   1.00
C261   C     0.58747   0.51179   0.05661   0.00000  Uiso   1.00
C262   C     0.45988   0.47738   0.40635   0.00000  Uiso   1.00
C263   C     0.53363   0.64626   0.20844   0.00000  Uiso   1.00
C264   C     0.47447   0.49247   0.35038   0.00000  Uiso   1.00
C265   C     0.53333   0.35579   0.21096   0.00000  Uiso   1.00
C266   C     0.49952   0.37605   0.25248   0.00000  Uiso   1.00
C267   C     0.46611   0.35428   0.29422   0.00000  Uiso   1.00
C268   C     0.46588   0.64407   0.29204   0.00000  Uiso   1.00
C269   C     0.49998   0.62406   0.24959   0.00000  Uiso   1.00
C270   C     0.65258   0.47808   0.21253   0.00000  Uiso   1.00
C271   C     0.36677   0.47731   0.21264   0.00000  Uiso   1.00
C272   C     0.34700   0.52230   0.28738   0.00000  Uiso   1.00
C273   C     0.63246   0.52218   0.28746   0.00000  Uiso   1.00
C274   C     0.49975   0.42015   0.25066   0.00000  Uiso   1.00
C275   C     0.52610   0.50098   0.14811   0.00000  Uiso   1.00
C276   C     0.59941   0.50637   0.00127   0.00000  Uiso   1.00
C277   C     0.54141   0.50023   0.08971   0.00000  Uiso   1.00
C278   C     0.41134   0.47171   0.43640   0.00000  Uiso   1.00
C279   C     0.39808   0.47184   0.49196   0.00000  Uiso   1.00
C280   C     0.43198   0.47673   0.01780   0.00000  Uiso   1.00
H281   H     0.64234   0.46036   0.18279   0.00000  Uiso   1.00
H282   H     0.35677   0.54013   0.31733   0.00000  Uiso   1.00
H283   H     0.60617   0.53995   0.31753   0.00000  Uiso   1.00
H284   H     0.61487   0.47280   0.40191   0.00000  Uiso   1.00
H285   H     0.47300   0.47771   0.09266   0.00000  Uiso   1.00
H286   H     0.41829   0.48010   0.06063   0.00000  Uiso   1.00
H287   H     0.36092   0.46915   0.01545   0.00000  Uiso   1.00
H288   H     0.55426   0.45161   0.36451   0.00000  Uiso   1.00
N289   N     0.38093   0.50001   0.25002   0.00000  Uiso   1.00
N290   N     0.61906   0.49998   0.25001   0.00000  Uiso   1.00
O291   O     0.46179   0.56108   0.25001   0.00000  Uiso   1.00
O292   O     0.53823   0.56107   0.25001   0.00000  Uiso   1.00
O293   O     0.44280   0.50000   0.32681   0.00000  Uiso   1.00
O294   O     0.51924   0.49999   0.32681   0.00000  Uiso   1.00
O295   O     0.46177   0.43893   0.25000   0.00000  Uiso   1.00
O296   O     0.53821   0.43892   0.25000   0.00000  Uiso   1.00
O297   O     0.48076   0.50001   0.17319   0.00000  Uiso   1.00
O298   O     0.55720   0.50000   0.17319   0.00000  Uiso   1.00
Zn299  Zn    0.44896   0.50001   0.25000   0.00000  Uiso   1.00
Zn300  Zn    0.55104   0.49999   0.25000   0.00000  Uiso   1.00
O301   O     0.62141   0.52917   0.07613   0.00000  Uiso   1.00
H302   H     0.60521   0.54573   0.10840   0.00000  Uiso   1.00
H303   H     0.55863   0.37349   0.17936   0.00000  Uiso   1.00
O304   O     0.43472   0.37426   0.33759   0.00000  Uiso   1.00
H305   H     0.44779   0.40206   0.34209   0.00000  Uiso   1.00
O306   O     0.43445   0.61997   0.33144   0.00000  Uiso   1.00
H307   H     0.41180   0.63815   0.35784   0.00000  Uiso   1.00
O308   O     0.39745   0.45283   0.17425   0.00000  Uiso   1.00
H309   H     0.42458   0.44603   0.18626   0.00000  Uiso   1.00
O310   O     0.64326   0.52102   0.47006   0.00000  Uiso   1.00
H311   H     0.64172   0.52821   0.43412   0.00000  Uiso   1.00
O312   O     0.37600   0.46597   0.41341   0.00000  Uiso   1.00
H313   H     0.38946   0.45086   0.37921   0.00000  Uiso   1.00
O314   O     0.56626   0.62768   0.16483   0.00000  Uiso   1.00
H315   H     0.55616   0.59864   0.16087   0.00000  Uiso   1.00
C316   C     0.83354   0.57986   0.24956   0.00000  Uiso   1.00
C317   C     0.81445   0.47715   0.48841   0.00000  Uiso   1.00
C318   C     0.82799   0.47270   0.43246   0.00000  Uiso   1.00
C319   C     0.85076   0.48441   0.01191   0.00000  Uiso   1.00
C320   C     0.89867   0.48953   0.47927   0.00000  Uiso   1.00
C321   C     0.91139   0.47583   0.42631   0.00000  Uiso   1.00
C322   C     0.87630   0.46492   0.40431   0.00000  Uiso   1.00
C323   C     0.84066   0.48723   0.06678   0.00000  Uiso   1.00
C324   C     0.92080   0.51179   0.05661   0.00000  Uiso   1.00
C325   C     0.79321   0.47738   0.40635   0.00000  Uiso   1.00
C326   C     0.86696   0.64626   0.20844   0.00000  Uiso   1.00
C327   C     0.80780   0.49247   0.35038   0.00000  Uiso   1.00
C328   C     0.86666   0.35579   0.21096   0.00000  Uiso   1.00
C329   C     0.83286   0.37605   0.25248   0.00000  Uiso   1.00
C330   C     0.79945   0.35428   0.29422   0.00000  Uiso   1.00
C331   C     0.79922   0.64407   0.29204   0.00000  Uiso   1.00
C332   C     0.83332   0.62406   0.24959   0.00000  Uiso   1.00
C333   C     0.98591   0.47808   0.21253   0.00000  Uiso   1.00
C334   C     0.70010   0.47731   0.21264   0.00000  Uiso   1.00
C335   C     0.68034   0.52230   0.28738   0.00000  Uiso   1.00
C336   C     0.96579   0.52218   0.28746   0.00000  Uiso   1.00
C337   C     0.83308   0.42015   0.25066   0.00000  Uiso   1.00
C338   C     0.85944   0.50098   0.14811   0.00000  Uiso   1.00
C339   C     0.93274   0.50637   0.00127   0.00000  Uiso   1.00
C340   C     0.87474   0.50023   0.08971   0.00000  Uiso   1.00
C341   C     0.74467   0.47171   0.43640   0.00000  Uiso   1.00
C342   C     0.73141   0.47184   0.49196   0.00000  Uiso   1.00
C343   C     0.76532   0.47673   0.01780   0.00000  Uiso   1.00
H344   H     0.97567   0.46036   0.18279   0.00000  Uiso   1.00
H345   H     0.69010   0.54013   0.31733   0.00000  Uiso   1.00
H346   H     0.93951   0.53995   0.31753   0.00000  Uiso   1.00
H347   H     0.94820   0.47280   0.40191   0.00000  Uiso   1.00
H348   H     0.80633   0.47771   0.09266   0.00000  Uiso   1.00
H349   H     0.75162   0.48010   0.06063   0.00000  Uiso   1.00
H350   H     0.69426   0.46915   0.01545   0.00000  Uiso   1.00
H351   H     0.88759   0.45161   0.36451   0.00000  Uiso   1.00
N352   N     0.71426   0.50001   0.25002   0.00000  Uiso   1.00
N353   N     0.95239   0.49998   0.25001   0.00000  Uiso   1.00
O354   O     0.79512   0.56108   0.25001   0.00000  Uiso   1.00
O355   O     0.87157   0.56107   0.25001   0.00000  Uiso   1.00
O356   O     0.77613   0.50000   0.32681   0.00000  Uiso   1.00
O357   O     0.85258   0.49999   0.32681   0.00000  Uiso   1.00
O358   O     0.79510   0.43893   0.25000   0.00000  Uiso   1.00
O359   O     0.87154   0.43892   0.25000   0.00000  Uiso   1.00
O360   O     0.81409   0.50001   0.17319   0.00000  Uiso   1.00
O361   O     0.89053   0.50000   0.17319   0.00000  Uiso   1.00
Zn362  Zn    0.78229   0.50001   0.25000   0.00000  Uiso   1.00
Zn363  Zn    0.88438   0.49999   0.25000   0.00000  Uiso   1.00
O364   O     0.95474   0.52917   0.07613   0.00000  Uiso   1.00
H365   H     0.93855   0.54573   0.10840   0.00000  Uiso   1.00
H366   H     0.89196   0.37349   0.17936   0.00000  Uiso   1.00
O367   O     0.76805   0.37426   0.33759   0.00000  Uiso   1.00
H368   H     0.78113   0.40206   0.34209   0.00000  Uiso   1.00
O369   O     0.76778   0.61997   0.33144   0.00000  Uiso   1.00
H370   H     0.74513   0.63815   0.35784   0.00000  Uiso   1.00
O371   O     0.73078   0.45283   0.17425   0.00000  Uiso   1.00
H372   H     0.75791   0.44603   0.18626   0.00000  Uiso   1.00
O373   O     0.97659   0.52102   0.47006   0.00000  Uiso   1.00
H374   H     0.97505   0.52821   0.43412   0.00000  Uiso   1.00
O375   O     0.70933   0.46597   0.41341   0.00000  Uiso   1.00
H376   H     0.72279   0.45086   0.37921   0.00000  Uiso   1.00
O377   O     0.89960   0.62768   0.16483   0.00000  Uiso   1.00
H378   H     0.88949   0.59864   0.16087   0.00000  Uiso   1.00
C379   C     0.16687   0.91319   0.24956   0.00000  Uiso   1.00
C380   C     0.14778   0.81049   0.48841   0.00000  Uiso   1.00
C381   C     0.16133   0.80603   0.43246   0.00000  Uiso   1.00
C382   C     0.18409   0.81775   0.01191   0.00000  Uiso   1.00
C383   C     0.23201   0.82286   0.47927   0.00000  Uiso   1.00
C384   C     0.24472   0.80916   0.42631   0.00000  Uiso   1.00
C385   C     0.20964   0.79825   0.40431   0.00000  Uiso   1.00
C386   C     0.17399   0.82056   0.06678   0.00000  Uiso   1.00
C387   C     0.25414   0.84512   0.05661   0.00000  Uiso   1.00
C388   C     0.12655   0.81072   0.40635   0.00000  Uiso   1.00
C389   C     0.20030   0.97959   0.20844   0.00000  Uiso   1.00
C390   C     0.14113   0.82580   0.35038   0.00000  Uiso   1.00
C391   C     0.20000   0.68912   0.21096   0.00000  Uiso   1.00
C392   C     0.16619   0.70939   0.25248   0.00000  Uiso   1.00
C393   C     0.13278   0.68761   0.29422   0.00000  Uiso   1.00
C394   C     0.13255   0.97740   0.29204   0.00000  Uiso   1.00
C395   C     0.16665   0.95739   0.24959   0.00000  Uiso   1.00
C396   C     0.31924   0.81141   0.21253   0.00000  Uiso   1.00
C397   C     0.03343   0.81064   0.21264   0.00000  Uiso   1.00
C398   C     0.01367   0.85563   0.28738   0.00000  Uiso   1.00
C399   C     0.29912   0.85552   0.28746   0.00000  Uiso   1.00
C400   C     0.16641   0.75348   0.25066   0.00000  Uiso   1.00
C401   C     0.19277   0.83432   0.14811   0.00000  Uiso   1.00
C402   C     0.26608   0.83970   0.00127   0.00000  Uiso   1.00
C403   C     0.20807   0.83356   0.08971   0.00000  Uiso   1.00
C404   C     0.07800   0.80505   0.43640   0.00000  Uiso   1.00
C405   C     0.06475   0.80517   0.49196   0.00000  Uiso   1.00
C406   C     0.09865   0.81007   0.01780   0.00000  Uiso   1.00
H407   H     0.30901   0.79369   0.18279   0.00000  Uiso   1.00
H408   H     0.02344   0.87347   0.31733   0.00000  Uiso   1.00
H409   H     0.27284   0.87328   0.31753   0.00000  Uiso   1.00
H410   H     0.28154   0.80614   0.40191   0.00000  Uiso   1.00
H411   H     0.13966   0.81104   0.09266   0.00000  Uiso   1.00
H412   H     0.08495   0.81344   0.06063   0.00000  Uiso   1.00
H413   H     0.02759   0.80248   0.01545   0.00000  Uiso   1.00
H414   H     0.22093   0.78495   0.36451   0.00000  Uiso   1.00
N415   N     0.04760   0.83334   0.25002   0.00000  Uiso   1.00
N416   N     0.28573   0.83331   0.25001   0.00000  Uiso   1.00
O417   O     0.12846   0.89442   0.25001   0.00000  Uiso   1.00
O418   O     0.20490   0.89441   0.25001   0.00000  Uiso   1.00
O419   O     0.10947   0.83333   0.32681   0.00000  Uiso   1.00
O420   O     0.18591   0.83332   0.32681   0.00000  Uiso   1.00
O421   O     0.12843   0.77226   0.25000   0.00000  Uiso   1.00
O422   O     0.20488   0.77225   0.25000   0.00000  Uiso   1.00
O423   O     0.14742   0.83335   0.17319   0.00000  Uiso   1.00
O424   O     0.22387   0.83334   0.17319   0.00000  Uiso   1.00
Zn425  Zn    0.11562   0.83334   0.25000   0.00000  Uiso   1.00
Zn426  Zn    0.21771   0.83333   0.25000   0.00000  Uiso   1.00
O427   O     0.28807   0.86250   0.07613   0.00000  Uiso   1.00
H428   H     0.27188   0.87907   0.10840   0.00000  Uiso   1.00
H429   H     0.22529   0.70682   0.17936   0.00000  Uiso   1.00
O430   O     0.10139   0.70760   0.33759   0.00000  Uiso   1.00
H431   H     0.11446   0.73540   0.34209   0.00000  Uiso   1.00
O432   O     0.10111   0.95331   0.33144   0.00000  Uiso   1.00
H433   H     0.07847   0.97148   0.35784   0.00000  Uiso   1.00
O434   O     0.06412   0.78616   0.17425   0.00000  Uiso   1.00
H435   H     0.09124   0.77936   0.18626   0.00000  Uiso   1.00
O436   O     0.30992   0.85435   0.47006   0.00000  Uiso   1.00
H437   H     0.30839   0.86154   0.43412   0.00000  Uiso   1.00
O438   O     0.04266   0.79930   0.41341   0.00000  Uiso   1.00
H439   H     0.05613   0.78419   0.37921   0.00000  Uiso   1.00
O440   O     0.23293   0.96101   0.16483   0.00000  Uiso   1.00
H441   H     0.22282   0.93197   0.16087   0.00000  Uiso   1.00
C442   C     0.50020   0.91319   0.24956   0.00000  Uiso   1.00
C443   C     0.48112   0.81049   0.48841   0.00000  Uiso   1.00
C444   C     0.49466   0.80603   0.43246   0.00000  Uiso   1.00
C445   C     0.51742   0.81775   0.01191   0.00000  Uiso   1.00
C446   C     0.56534   0.82286   0.47927   0.00000  Uiso   1.00
C447   C     0.57805   0.80916   0.42631   0.00000  Uiso   1.00
C448   C     0.54297   0.79825   0.40431   0.00000  Uiso   1.00
C449   C     0.50733   0.82056   0.06678   0.00000  Uiso   1.00
C450   C     0.58747   0.84512   0.05661   0.00000  Uiso   1.00
C451   C     0.45988   0.81072   0.40635   0.00000  Uiso   1.00
C452   C     0.53363   0.97959   0.20844   0.00000  Uiso   1.00
C453   C     0.47447   0.82580   0.35038   0.00000  Uiso   1.00
C454   C     0.53333   0.68912   0.21096   0.00000  Uiso   1.00
C455   C     0.49952   0.70939   0.25248   0.00000  Uiso   1.00
C456   C     0.46611   0.68761   0.29422   0.00000  Uiso   1.00
C457   C     0.46588   0.97740   0.29204   0.00000  Uiso   1.00
C458   C     0.49998   0.95739   0.24959   0.00000  Uiso   1.00
C459   C     0.65258   0.81141   0.21253   0.00000  Uiso   1.00
C460   C     0.36677   0.81064   0.21264   0.00000  Uiso   1.00
C461   C     0.34700   0.85563   0.28738   0.00000  Uiso   1.00
C462   C     0.63246   0.85552   0.28746   0.00000  Uiso   1.00
C463   C     0.49975   0.75348   0.25066   0.00000  Uiso   1.00
C464   C     0.52610   0.83432   0.14811   0.00000  Uiso   1.00
C465   C     0.59941   0.83970   0.00127   0.00000  Uiso   1.00
C466   C     0.54141   0.83356   0.08971   0.00000  Uiso   1.00
C467   C     0.41134   0.80505   0.43640   0.00000  Uiso   1.00
C468   C     0.39808   0.80517   0.49196   0.00000  Uiso   1.00
C469   C     0.43198   0.81007   0.01780   0.00000  Uiso   1.00
H470   H     0.64234   0.79369   0.18279   0.00000  Uiso   1.00
H471   H     0.35677   0.87347   0.31733   0.00000  Uiso   1.00
H472   H     0.60617   0.87328   0.31753   0.00000  Uiso   1.00
H473   H     0.61487   0.80614   0.40191   0.00000  Uiso   1.00
H474   H     0.47300   0.81104   0.09266   0.00000  Uiso   1.00
H475   H     0.41829   0.81344   0.06063   0.00000  Uiso   1.00
H476   H     0.36092   0.80248   0.01545   0.00000  Uiso   1.00
H477   H     0.55426   0.78495   0.36451   0.00000  Uiso   1.00
N478   N     0.38093   0.83334   0.25002   0.00000  Uiso   1.00
N479   N     0.61906   0.83331   0.25001   0.00000  Uiso   1.00
O480   O     0.46179   0.89442   0.25001   0.00000  Uiso   1.00
O481   O     0.53823   0.89441   0.25001   0.00000  Uiso   1.00
O482   O     0.44280   0.83333   0.32681   0.00000  Uiso   1.00
O483   O     0.51924   0.83332   0.32681   0.00000  Uiso   1.00
O484   O     0.46177   0.77226   0.25000   0.00000  Uiso   1.00
O485   O     0.53821   0.77225   0.25000   0.00000  Uiso   1.00
O486   O     0.48076   0.83335   0.17319   0.00000  Uiso   1.00
O487   O     0.55720   0.83334   0.17319   0.00000  Uiso   1.00
Zn488  Zn    0.44896   0.83334   0.25000   0.00000  Uiso   1.00
Zn489  Zn    0.55104   0.83333   0.25000   0.00000  Uiso   1.00
O490   O     0.62141   0.86250   0.07613   0.00000  Uiso   1.00
H491   H     0.60521   0.87907   0.10840   0.00000  Uiso   1.00
H492   H     0.55863   0.70682   0.17936   0.00000  Uiso   1.00
O493   O     0.43472   0.70760   0.33759   0.00000  Uiso   1.00
H494   H     0.44779   0.73540   0.34209   0.00000  Uiso   1.00
O495   O     0.43445   0.95331   0.33144   0.00000  Uiso   1.00
H496   H     0.41180   0.97148   0.35784   0.00000  Uiso   1.00
O497   O     0.39745   0.78616   0.17425   0.00000  Uiso   1.00
H498   H     0.42458   0.77936   0.18626   0.00000  Uiso   1.00
O499   O     0.64326   0.85435   0.47006   0.00000  Uiso   1.00
H500   H     0.64172   0.86154   0.43412   0.00000  Uiso   1.00
O501   O     0.37600   0.79930   0.41341   0.00000  Uiso   1.00
H502   H     0.38946   0.78419   0.37921   0.00000  Uiso   1.00
O503   O     0.56626   0.96101   0.16483   0.00000  Uiso   1.00
H504   H     0.55616   0.93197   0.16087   0.00000  Uiso   1.00
C505   C     0.83354   0.91319   0.24956   0.00000  Uiso   1.00
C506   C     0.81445   0.81049   0.48841   0.00000  Uiso   1.00
C507   C     0.82799   0.80603   0.43246   0.00000  Uiso   1.00
C508   C     0.85076   0.81775   0.01191   0.00000  Uiso   1.00
C509   C     0.89867   0.82286   0.47927   0.00000  Uiso   1.00
C510   C     0.91139   0.80916   0.42631   0.00000  Uiso   1.00
C511   C     0.87630   0.79825   0.40431   0.00000  Uiso   1.00
C512   C     0.84066   0.82056   0.06678   0.00000  Uiso   1.00
C513   C     0.92080   0.84512   0.05661   0.00000  Uiso   1.00
C514   C     0.79321   0.81072   0.40635   0.00000  Uiso   1.00
C515   C     0.86696   0.97959   0.20844   0.00000  Uiso   1.00
C516   C     0.80780   0.82580   0.35038   0.00000  Uiso   1.00
C517   C     0.86666   0.68912   0.21096   0.00000  Uiso   1.00
C518   C     0.83286   0.70939   0.25248   0.00000  Uiso   1.00
C519   C     0.79945   0.68761   0.29422   0.00000  Uiso   1.00
C520   C     0.79922   0.97740   0.29204   0.00000  Uiso   1.00
C521   C     0.83332   0.95739   0.24959   0.00000  Uiso   1.00
C522   C     0.98591   0.81141   0.21253   0.00000  Uiso   1.00
C523   C     0.70010   0.81064   0.21264   0.00000  Uiso   1.00
C524   C     0.68034   0.85563   0.28738   0.00000  Uiso   1.00
C525   C     0.96579   0.85552   0.28746   0.00000  Uiso   1.00
C526   C     0.83308   0.75348   0.25066   0.00000  Uiso   1.00
C527   C     0.85944   0.83432   0.14811   0.00000  Uiso   1.00
C528   C     0.93274   0.83970   0.00127   0.00000  Uiso   1.00
C529   C     0.87474   0.83356   0.08971   0.00000  Uiso   1.00
C530   C     0.74467   0.80505   0.43640   0.00000  Uiso   1.00
C531   C     0.73141   0.80517   0.49196   0.00000  Uiso   1.00
C532   C     0.76532   0.81007   0.01780   0.00000  Uiso   1.00
H533   H     0.97567   0.79369   0.18279   0.00000  Uiso   1.00
H534   H     0.69010   0.87347   0.31733   0.00000  Uiso   1.00
H535   H     0.93951   0.87328   0.31753   0.00000  Uiso   1.00
H536   H     0.94820   0.80614   0.40191   0.00000  Uiso   1.00
H537   H     0.80633   0.81104   0.09266   0.00000  Uiso   1.00
H538   H     0.75162   0.81344   0.06063   0.00000  Uiso   1.00
H539   H     0.69426   0.80248   0.01545   0.00000  Uiso   1.00
H540   H     0.88759   0.78495   0.36451   0.00000  Uiso   1.00
N541   N     0.71426   0.83334   0.25002   0.00000  Uiso   1.00
N542   N     0.95239   0.83331   0.25001   0.00000  Uiso   1.00
O543   O     0.79512   0.89442   0.25001   0.00000  Uiso   1.00
O544   O     0.87157   0.89441   0.25001   0.00000  Uiso   1.00
O545   O     0.77613   0.83333   0.32681   0.00000  Uiso   1.00
O546   O     0.85258   0.83332   0.32681   0.00000  Uiso   1.00
O547   O     0.79510   0.77226   0.25000   0.00000  Uiso   1.00
O548   O     0.87154   0.77225   0.25000   0.00000  Uiso   1.00
O549   O     0.81409   0.83335   0.17319   0.00000  Uiso   1.00
O550   O     0.89053   0.83334   0.17319   0.00000  Uiso   1.00
Zn551  Zn    0.78229   0.83334   0.25000   0.00000  Uiso   1.00
Zn552  Zn    0.88438   0.83333   0.25000   0.00000  Uiso   1.00
O553   O     0.95474   0.86250   0.07613   0.00000  Uiso   1.00
H554   H     0.93855   0.87907   0.10840   0.00000  Uiso   1.00
H555   H     0.89196   0.70682   0.17936   0.00000  Uiso   1.00
O556   O     0.76805   0.70760   0.33759   0.00000  Uiso   1.00
H557   H     0.78113   0.73540   0.34209   0.00000  Uiso   1.00
O558   O     0.76778   0.95331   0.33144   0.00000  Uiso   1.00
H559   H     0.74513   0.97148   0.35784   0.00000  Uiso   1.00
O560   O     0.73078   0.78616   0.17425   0.00000  Uiso   1.00
H561   H     0.75791   0.77936   0.18626   0.00000  Uiso   1.00
O562   O     0.97659   0.85435   0.47006   0.00000  Uiso   1.00
H563   H     0.97505   0.86154   0.43412   0.00000  Uiso   1.00
O564   O     0.70933   0.79930   0.41341   0.00000  Uiso   1.00
H565   H     0.72279   0.78419   0.37921   0.00000  Uiso   1.00
O566   O     0.89960   0.96101   0.16483   0.00000  Uiso   1.00
H567   H     0.88949   0.93197   0.16087   0.00000  Uiso   1.00
C568   C     0.16687   0.24652   0.74956   0.00000  Uiso   1.00
C569   C     0.14778   0.14382   0.98841   0.00000  Uiso   1.00
C570   C     0.16133   0.13936   0.93246   0.00000  Uiso   1.00
C571   C     0.18409   0.15108   0.51191   0.00000  Uiso   1.00
C572   C     0.23201   0.15620   0.97927   0.00000  Uiso   1.00
C573   C     0.24472   0.14250   0.92631   0.00000  Uiso   1.00
C574   C     0.20964   0.13159   0.90431   0.00000  Uiso   1.00
C575   C     0.17399   0.15389   0.56678   0.00000  Uiso   1.00
C576   C     0.25414   0.17846   0.55661   0.00000  Uiso   1.00
C577   C     0.12655   0.14405   0.90635   0.00000  Uiso   1.00
C578   C     0.20030   0.31293   0.70844   0.00000  Uiso   1.00
C579   C     0.14113   0.15914   0.85038   0.00000  Uiso   1.00
C580   C     0.20000   0.02245   0.71096   0.00000  Uiso   1.00
C581   C     0.16619   0.04272   0.75248   0.00000  Uiso   1.00
C582   C     0.13278   0.02095   0.79422   0.00000  Uiso   1.00
C583   C     0.13255   0.31074   0.79204   0.00000  Uiso   1.00
C584   C     0.16665   0.29072   0.74959   0.00000  Uiso   1.00
C585   C     0.31924   0.14475   0.71253   0.00000  Uiso   1.00
C586   C     0.03343   0.14397   0.71264   0.00000  Uiso   1.00
C587   C     0.01367   0.18896   0.78738   0.00000  Uiso   1.00
C588   C     0.29912   0.18885   0.78746   0.00000  Uiso   1.00
C589   C     0.16641   0.08681   0.75066   0.00000  Uiso   1.00
C590   C     0.19277   0.16765   0.64811   0.00000  Uiso   1.00
C591   C     0.26608   0.17303   0.50127   0.00000  Uiso   1.00
C592   C     0.20807   0.16689   0.58971   0.00000  Uiso   1.00
C593   C     0.07800   0.13838   0.93640   0.00000  Uiso   1.00
C594   C     0.06475   0.13850   0.99196   0.00000  Uiso   1.00
C595   C     0.09865   0.14340   0.51780   0.00000  Uiso   1.00
H596   H     0.30901   0.12702   0.68279   0.00000  Uiso   1.00
H597   H     0.02344   0.20680   0.81733   0.00000  Uiso   1.00
H598   H     0.27284   0.20661   0.81753   0.00000  Uiso   1.00
H599   H     0.28154   0.13947   0.90191   0.00000  Uiso   1.00
H600   H     0.13966   0.14438   0.59266   0.00000  Uiso   1.00
H601   H     0.08495   0.14677   0.56063   0.00000  Uiso   1.00
H602   H     0.02759   0.13582   0.51545   0.00000  Uiso   1.00
H603   H     0.22093   0.11828   0.86451   0.00000  Uiso   1.00
N604   N     0.04760   0.16668   0.75002   0.00000  Uiso   1.00
N605   N     0.28573   0.16665   0.75001   0.00000  Uiso   1.00
O606   O     0.12846   0.22775   0.75001   0.00000  Uiso   1.00
O607   O     0.20490   0.22774   0.75001   0.00000  Uiso   1.00
O608   O     0.10947   0.16666   0.82681   0.00000  Uiso   1.00
O609   O     0.18591   0.16665   0.82681   0.00000  Uiso   1.00
O610   O     0.12843   0.10559   0.75000   0.00000  Uiso   1.00
O611   O     0.20488   0.10558   0.75000   0.00000  Uiso   1.00
O612   O     0.14742   0.16668   0.67319   0.00000  Uiso   1.00
O613   O     0.22387   0.16667   0.67319   0.00000  Uiso   1.00
Zn614  Zn    0.11562   0.16667   0.75000   0.00000  Uiso   1.00
Zn615  Zn    0.21771   0.16666   0.75000   0.00000  Uiso   1.00
O616   O     0.28807   0.19583   0.57613   0.00000  Uiso   1.00
H617   H     0.27188   0.21240   0.60840   0.00000  Uiso   1.00
H618   H     0.22529   0.04016   0.67936   0.00000  Uiso   1.00
O619   O     0.10139   0.04093   0.83759   0.00000  Uiso   1.00
H620   H     0.11446   0.06873   0.84209   0.00000  Uiso   1.00
O621   O     0.10111   0.28664   0.83144   0.00000  Uiso   1.00
H622   H     0.07847   0.30481   0.85784   0.00000  Uiso   1.00
O623   O     0.06412   0.11949   0.67425   0.00000  Uiso   1.00
H624   H     0.09124   0.11269   0.68626   0.00000  Uiso   1.00
O625   O     0.30992   0.18769   0.97006   0.00000  Uiso   1.00
H626   H     0.30839   0.19487   0.93412   0.00000  Uiso   1.00
O627   O     0.04266   0.13263   0.91341   0.00000  Uiso   1.00
H628   H     0.05613   0.11752   0.87921   0.00000  Uiso   1.00
O629   O     0.23293   0.29434   0.66483   0.00000  Uiso   1.00
H630   H     0.22282   0.26530   0.66087   0.00000  Uiso   1.00
C631   C     0.50020   0.24652   0.74956   0.00000  Uiso   1.00
C632   C     0.48112   0.14382   0.98841   0.00000  Uiso   1.00
C633   C     0.49466   0.13936   0.93246   0.00000  Uiso   1.00
C634   C     0.51742   0.15108   0.51191   0.00000  Uiso   1.00
C635   C     0.56534   0.15620   0.97927   0.00000  Uiso   1.00
C636   C     0.57805   0.14250   0.92631   0.00000  Uiso   1.00
C637   C     0.54297   0.13159   0.90431   0.00000  Uiso   1.00
C638   C     0.50733   0.15389   0.56678   0.00000  Uiso   1.00
C639   C     0.58747   0.17846   0.55661   0.00000  Uiso   1.00
C640   C     0.45988   0.14405   0.90635   0.00000  Uiso   1.00
C641   C     0.53363   0.31293   0.70844   0.00000  Uiso   1.00
C642   C     0.47447   0.15914   0.85038   0.00000  Uiso   1.00
C643   C     0.53333   0.02245   0.71096   0.00000  Uiso   1.00
C644   C     0.49952   0.04272   0.75248   0.00000  Uiso   1.00
C645   C     0.46611   0.02095   0.79422   0.00000  Uiso   1.00
C646   C     0.46588   0.31074   0.79204   0.00000  Uiso   1.00
C647   C     0.49998   0.29072   0.74959   0.00000  Uiso   1.00
C648   C     0.65258   0.14475   0.71253   0.00000  Uiso   1.00
C649   C     0.36677   0.14397   0.71264   0.00000  Uiso   1.00
C650   C     0.34700   0.18896   0.78738   0.00000  Uiso   1.00
C651   C     0.63246   0.18885   0.78746   0.00000  Uiso   1.00
C652   C     0.49975   0.08681   0.75066   0.00000  Uiso   1.00
C653   C     0.52610   0.16765   0.64811   0.00000  Uiso   1.00
C654   C     0.59941   0.17303   0.50127   0.00000  Uiso   1.00
C655   C     0.54141   0.16689   0.58971   0.00000  Uiso   1.00
C656   C     0.41134   0.13838   0.93640   0.00000  Uiso   1.00
C657   C     0.39808   0.13850   0.99196   0.00000  Uiso   1.00
C658   C     0.43198   0.14340   0.51780   0.00000  Uiso   1.00
H659   H     0.64234   0.12702   0.68279   0.00000  Uiso   1.00
H660   H     0.35677   0.20680   0.81733   0.00000  Uiso   1.00
H661   H     0.60617   0.20661   0.81753   0.00000  Uiso   1.00
H662   H     0.61487   0.13947   0.90191   0.00000  Uiso   1.00
H663   H     0.47300   0.14438   0.59266   0.00000  Uiso   1.00
H664   H     0.41829   0.14677   0.56063   0.00000  Uiso   1.00
H665   H     0.36092   0.13582   0.51545   0.00000  Uiso   1.00
H666   H     0.55426   0.11828   0.86451   0.00000  Uiso   1.00
N667   N     0.38093   0.16668   0.75002   0.00000  Uiso   1.00
N668   N     0.61906   0.16665   0.75001   0.00000  Uiso   1.00
O669   O     0.46179   0.22775   0.75001   0.00000  Uiso   1.00
O670   O     0.53823   0.22774   0.75001   0.00000  Uiso   1.00
O671   O     0.44280   0.16666   0.82681   0.00000  Uiso   1.00
O672   O     0.51924   0.16665   0.82681   0.00000  Uiso   1.00
O673   O     0.46177   0.10559   0.75000   0.00000  Uiso   1.00
O674   O     0.53821   0.10558   0.75000   0.00000  Uiso   1.00
O675   O     0.48076   0.16668   0.67319   0.00000  Uiso   1.00
O676   O     0.55720   0.16667   0.67319   0.00000  Uiso   1.00
Zn677  Zn    0.44896   0.16667   0.75000   0.00000  Uiso   1.00
Zn678  Zn    0.55104   0.16666   0.75000   0.00000  Uiso   1.00
O679   O     0.62141   0.19583   0.57613   0.00000  Uiso   1.00
H680   H     0.60521   0.21240   0.60840   0.00000  Uiso   1.00
H681   H     0.55863   0.04016   0.67936   0.00000  Uiso   1.00
O682   O     0.43472   0.04093   0.83759   0.00000  Uiso   1.00
H683   H     0.44779   0.06873   0.84209   0.00000  Uiso   1.00
O684   O     0.43445   0.28664   0.83144   0.00000  Uiso   1.00
H685   H     0.41180   0.30481   0.85784   0.00000  Uiso   1.00
O686   O     0.39745   0.11949   0.67425   0.00000  Uiso   1.00
H687   H     0.42458   0.11269   0.68626   0.00000  Uiso   1.00
O688   O     0.64326   0.18769   0.97006   0.00000  Uiso   1.00
H689   H     0.64172   0.19487   0.93412   0.00000  Uiso   1.00
O690   O     0.37600   0.13263   0.91341   0.00000  Uiso   1.00
H691   H     0.38946   0.11752   0.87921   0.00000  Uiso   1.00
O692   O     0.56626   0.29434   0.66483   0.00000  Uiso   1.00
H693   H     0.55616   0.26530   0.66087   0.00000  Uiso   1.00
C694   C     0.83354   0.24652   0.74956   0.00000  Uiso   1.00
C695   C     0.81445   0.14382   0.98841   0.00000  Uiso   1.00
C696   C     0.82799   0.13936   0.93246   0.00000  Uiso   1.00
C697   C     0.85076   0.15108   0.51191   0.00000  Uiso   1.00
C698   C     0.89867   0.15620   0.97927   0.00000  Uiso   1.00
C699   C     0.91139   0.14250   0.92631   0.00000  Uiso   1.00
C700   C     0.87630   0.13159   0.90431   0.00000  Uiso   1.00
C701   C     0.84066   0.15389   0.56678   0.00000  Uiso   1.00
C702   C     0.92080   0.17846   0.55661   0.00000  Uiso   1.00
C703   C     0.79321   0.14405   0.90635   0.00000  Uiso   1.00
C704   C     0.86696   0.31293   0.70844   0.00000  Uiso   1.00
C705   C     0.80780   0.15914   0.85038   0.00000  Uiso   1.00
C706   C     0.86666   0.02245   0.71096   0.00000  Uiso   1.00
C707   C     0.83286   0.04272   0.75248   0.00000  Uiso   1.00
C708   C     0.79945   0.02095   0.79422   0.00000  Uiso   1.00
C709   C     0.79922   0.31074   0.79204   0.00000  Uiso   1.00
C710   C     0.83332   0.29072   0.74959   0.00000  Uiso   1.00
C711   C     0.98591   0.14475   0.71253   0.00000  Uiso   1.00
C712   C     0.70010   0.14397   0.71264   0.00000  Uiso   1.00
C713   C     0.68034   0.18896   0.78738   0.00000  Uiso   1.00
C714   C     0.96579   0.18885   0.78746   0.00000  Uiso   1.00
C715   C     0.83308   0.08681   0.75066   0.00000  Uiso   1.00
C716   C     0.85944   0.16765   0.64811   0.00000  Uiso   1.00
C717   C     0.93274   0.17303   0.50127   0.00000  Uiso   1.00
C718   C     0.87474   0.16689   0.58971   0.00000  Uiso   1.00
C719   C     0.74467   0.13838   0.93640   0.00000  Uiso   1.00
C720   C     0.73141   0.13850   0.99196   0.00000  Uiso   1.00
C721   C     0.76532   0.14340   0.51780   0.00000  Uiso   1.00
H722   H     0.97567   0.12702   0.68279   0.00000  Uiso   1.00
H723   H     0.69010   0.20680   0.81733   0.00000  Uiso   1.00
H724   H     0.93951   0.20661   0.81753   0.00000  Uiso   1.00
H725   H     0.94820   0.13947   0.90191   0.00000  Uiso   1.00
H726   H     0.80633   0.14438   0.59266   0.00000  Uiso   1.00
H727   H     0.75162   0.14677   0.56063   0.00000  Uiso   1.00
H728   H     0.69426   0.13582   0.51545   0.00000  Uiso   1.00
H729   H     0.88759   0.11828   0.86451   0.00000  Uiso   1.00
N730   N     0.71426   0.16668   0.75002   0.00000  Uiso   1.00
N731   N     0.95239   0.16665   0.75001   0.00000  Uiso   1.00
O732   O     0.79512   0.22775   0.75001   0.00000  Uiso   1.00
O733   O     0.87157   0.22774   0.75001   0.00000  Uiso   1.00
O734   O     0.77613   0.16666   0.82681   0.00000  Uiso   1.00
O735   O     0.85258   0.16665   0.82681   0.00000  Uiso   1.00
O736   O     0.79510   0.10559   0.75000   0.00000  Uiso   1.00
O737   O     0.87154   0.10558   0.75000   0.00000  Uiso   1.00
O738   O     0.81409   0.16668   0.67319   0.00000  Uiso   1.00
O739   O     0.89053   0.16667   0.67319   0.00000  Uiso   1.00
Zn740  Zn    0.78229   0.16667   0.75000   0.00000  Uiso   1.00
Zn741  Zn    0.88438   0.16666   0.75000   0.00000  Uiso   1.00
O742   O     0.95474   0.19583   0.57613   0.00000  Uiso   1.00
H743   H     0.93855   0.21240   0.60840   0.00000  Uiso   1.00
H744   H     0.89196   0.04016   0.67936   0.00000  Uiso   1.00
O745   O     0.76805   0.04093   0.83759   0.00000  Uiso   1.00
H746   H     0.78113   0.06873   0.84209   0.00000  Uiso   1.00
O747   O     0.76778   0.28664   0.83144   0.00000  Uiso   1.00
H748   H     0.74513   0.30481   0.85784   0.00000  Uiso   1.00
O749   O     0.73078   0.11949   0.67425   0.00000  Uiso   1.00
H750   H     0.75791   0.11269   0.68626   0.00000  Uiso   1.00
O751   O     0.97659   0.18769   0.97006   0.00000  Uiso   1.00
H752   H     0.97505   0.19487   0.93412   0.00000  Uiso   1.00
O753   O     0.70933   0.13263   0.91341   0.00000  Uiso   1.00
H754   H     0.72279   0.11752   0.87921   0.00000  Uiso   1.00
O755   O     0.89960   0.29434   0.66483   0.00000  Uiso   1.00
H756   H     0.88949   0.26530   0.66087   0.00000  Uiso   1.00
C757   C     0.16687   0.57986   0.74956   0.00000  Uiso   1.00
C758   C     0.14778   0.47715   0.98841   0.00000  Uiso   1.00
C759   C     0.16133   0.47270   0.93246   0.00000  Uiso   1.00
C760   C     0.18409   0.48441   0.51191   0.00000  Uiso   1.00
C761   C     0.23201   0.48953   0.97927   0.00000  Uiso   1.00
C762   C     0.24472   0.47583   0.92631   0.00000  Uiso   1.00
C763   C     0.20964   0.46492   0.90431   0.00000  Uiso   1.00
C764   C     0.17399   0.48723   0.56678   0.00000  Uiso   1.00
C765   C     0.25414   0.51179   0.55661   0.00000  Uiso   1.00
C766   C     0.12655   0.47738   0.90635   0.00000  Uiso   1.00
C767   C     0.20030   0.64626   0.70844   0.00000  Uiso   1.00
C768   C     0.14113   0.49247   0.85038   0.00000  Uiso   1.00
C769   C     0.20000   0.35579   0.71096   0.00000  Uiso   1.00
C770   C     0.16619   0.37605   0.75248   0.00000  Uiso   1.00
C771   C     0.13278   0.35428   0.79422   0.00000  Uiso   1.00
C772   C     0.13255   0.64407   0.79204   0.00000  Uiso   1.00
C773   C     0.16665   0.62406   0.74959   0.00000  Uiso   1.00
C774   C     0.31924   0.47808   0.71253   0.00000  Uiso   1.00
C775   C     0.03343   0.47731   0.71264   0.00000  Uiso   1.00
C776   C     0.01367   0.52230   0.78738   0.00000  Uiso   1.00
C777   C     0.29912   0.52218   0.78746   0.00000  Uiso   1.00
C778   C     0.16641   0.42015   0.75066   0.00000  Uiso   1.00
C779   C     0.19277   0.50098   0.64811   0.00000  Uiso   1.00
C780   C     0.26608   0.50637   0.50127   0.00000  Uiso   1.00
C781   C     0.20807   0.50023   0.58971   0.00000  Uiso   1.00
C782   C     0.07800   0.47171   0.93640   0.00000  Uiso   1.00
C783   C     0.06475   0.47184   0.99196   0.00000  Uiso   1.00
C784   C     0.09865   0.47673   0.51780   0.00000  Uiso   1.00
H785   H     0.30901   0.46036   0.68279   0.00000  Uiso   1.00
H786   H     0.02344   0.54013   0.81733   0.00000  Uiso   1.00
H787   H     0.27284   0.53995   0.81753   0.00000  Uiso   1.00
H788   H     0.28154   0.47280   0.90191   0.00000  Uiso   1.00
H789   H     0.13966   0.47771   0.59266   0.00000  Uiso   1.00
H790   H     0.08495   0.48010   0.56063   0.00000  Uiso   1.00
H791   H     0.02759   0.46915   0.51545   0.00000  Uiso   1.00
H792   H     0.22093   0.45161   0.86451   0.00000  Uiso   1.00
N793   N     0.04760   0.50001   0.75002   0.00000  Uiso   1.00
N794   N     0.28573   0.49998   0.75001   0.00000  Uiso   1.00
O795   O     0.12846   0.56108   0.75001   0.00000  Uiso   1.00
O796   O     0.20490   0.56107   0.75001   0.00000  Uiso   1.00
O797   O     0.10947   0.50000   0.82681   0.00000  Uiso   1.00
O798   O     0.18591   0.49999   0.82681   0.00000  Uiso   1.00
O799   O     0.12843   0.43893   0.75000   0.00000  Uiso   1.00
O800   O     0.20488   0.43892   0.75000   0.00000  Uiso   1.00
O801   O     0.14742   0.50001   0.67319   0.00000  Uiso   1.00
O802   O     0.22387   0.50000   0.67319   0.00000  Uiso   1.00
Zn803  Zn    0.11562   0.50001   0.75000   0.00000  Uiso   1.00
Zn804  Zn    0.21771   0.49999   0.75000   0.00000  Uiso   1.00
O805   O     0.28807   0.52917   0.57613   0.00000  Uiso   1.00
H806   H     0.27188   0.54573   0.60840   0.00000  Uiso   1.00
H807   H     0.22529   0.37349   0.67936   0.00000  Uiso   1.00
O808   O     0.10139   0.37426   0.83759   0.00000  Uiso   1.00
H809   H     0.11446   0.40206   0.84209   0.00000  Uiso   1.00
O810   O     0.10111   0.61997   0.83144   0.00000  Uiso   1.00
H811   H     0.07847   0.63815   0.85784   0.00000  Uiso   1.00
O812   O     0.06412   0.45283   0.67425   0.00000  Uiso   1.00
H813   H     0.09124   0.44603   0.68626   0.00000  Uiso   1.00
O814   O     0.30992   0.52102   0.97006   0.00000  Uiso   1.00
H815   H     0.30839   0.52821   0.93412   0.00000  Uiso   1.00
O816   O     0.04266   0.46597   0.91341   0.00000  Uiso   1.00
H817   H     0.05613   0.45086   0.87921   0.00000  Uiso   1.00
O818   O     0.23293   0.62768   0.66483   0.00000  Uiso   1.00
H819   H     0.22282   0.59864   0.66087   0.00000  Uiso   1.00
C820   C     0.50020   0.57986   0.74956   0.00000  Uiso   1.00
C821   C     0.48112   0.47715   0.98841   0.00000  Uiso   1.00
C822   C     0.49466   0.47270   0.93246   0.00000  Uiso   1.00
C823   C     0.51742   0.48441   0.51191   0.00000  Uiso   1.00
C824   C     0.56534   0.48953   0.97927   0.00000  Uiso   1.00
C825   C     0.57805   0.47583   0.92631   0.00000  Uiso   1.00
C826   C     0.54297   0.46492   0.90431   0.00000  Uiso   1.00
C827   C     0.50733   0.48723   0.56678   0.00000  Uiso   1.00
C828   C     0.58747   0.51179   0.55661   0.00000  Uiso   1.00
C829   C     0.45988   0.47738   0.90635   0.00000  Uiso   1.00
C830   C     0.53363   0.64626   0.70844   0.00000  Uiso   1.00
C831   C     0.47447   0.49247   0.85038   0.00000  Uiso   1.00
C832   C     0.53333   0.35579   0.71096   0.00000  Uiso   1.00
C833   C     0.49952   0.37605   0.75248   0.00000  Uiso   1.00
C834   C     0.46611   0.35428   0.79422   0.00000  Uiso   1.00
C835   C     0.46588   0.64407   0.79204   0.00000  Uiso   1.00
C836   C     0.49998   0.62406   0.74959   0.00000  Uiso   1.00
C837   C     0.65258   0.47808   0.71253   0.00000  Uiso   1.00
C838   C     0.36677   0.47731   0.71264   0.00000  Uiso   1.00
C839   C     0.34700   0.52230   0.78738   0.00000  Uiso   1.00
C840   C     0.63246   0.52218   0.78746   0.00000  Uiso   1.00
C841   C     0.49975   0.42015   0.75066   0.00000  Uiso   1.00
C842   C     0.52610   0.50098   0.64811   0.00000  Uiso   1.00
C843   C     0.59941   0.50637   0.50127   0.00000  Uiso   1.00
C844   C     0.54141   0.50023   0.58971   0.00000  Uiso   1.00
C845   C     0.41134   0.47171   0.93640   0.00000  Uiso   1.00
C846   C     0.39808   0.47184   0.99196   0.00000  Uiso   1.00
C847   C     0.43198   0.47673   0.51780   0.00000  Uiso   1.00
H848   H     0.64234   0.46036   0.68279   0.00000  Uiso   1.00
H849   H     0.35677   0.54013   0.81733   0.00000  Uiso   1.00
H850   H     0.60617   0.53995   0.81753   0.00000  Uiso   1.00
H851   H     0.61487   0.47280   0.90191   0.00000  Uiso   1.00
H852   H     0.47300   0.47771   0.59266   0.00000  Uiso   1.00
H853   H     0.41829   0.48010   0.56063   0.00000  Uiso   1.00
H854   H     0.36092   0.46915   0.51545   0.00000  Uiso   1.00
H855   H     0.55426   0.45161   0.86451   0.00000  Uiso   1.00
N856   N     0.38093   0.50001   0.75002   0.00000  Uiso   1.00
N857   N     0.61906   0.49998   0.75001   0.00000  Uiso   1.00
O858   O     0.46179   0.56108   0.75001   0.00000  Uiso   1.00
O859   O     0.53823   0.56107   0.75001   0.00000  Uiso   1.00
O860   O     0.44280   0.50000   0.82681   0.00000  Uiso   1.00
O861   O     0.51924   0.49999   0.82681   0.00000  Uiso   1.00
O862   O     0.46177   0.43893   0.75000   0.00000  Uiso   1.00
O863   O     0.53821   0.43892   0.75000   0.00000  Uiso   1.00
O864   O     0.48076   0.50001   0.67319   0.00000  Uiso   1.00
O865   O     0.55720   0.50000   0.67319   0.00000  Uiso   1.00
Zn866  Zn    0.44896   0.50001   0.75000   0.00000  Uiso   1.00
Zn867  Zn    0.55104   0.49999   0.75000   0.00000  Uiso   1.00
O868   O     0.62141   0.52917   0.57613   0.00000  Uiso   1.00
H869   H     0.60521   0.54573   0.60840   0.00000  Uiso   1.00
H870   H     0.55863   0.37349   0.67936   0.00000  Uiso   1.00
O871   O     0.43472   0.37426   0.83759   0.00000  Uiso   1.00
H872   H     0.44779   0.40206   0.84209   0.00000  Uiso   1.00
O873   O     0.43445   0.61997   0.83144   0.00000  Uiso   1.00
H874   H     0.41180   0.63815   0.85784   0.00000  Uiso   1.00
O875   O     0.39745   0.45283   0.67425   0.00000  Uiso   1.00
H876   H     0.42458   0.44603   0.68626   0.00000  Uiso   1.00
O877   O     0.64326   0.52102   0.97006   0.00000  Uiso   1.00
H878   H     0.64172   0.52821   0.93412   0.00000  Uiso   1.00
O879   O     0.37600   0.46597   0.91341   0.00000  Uiso   1.00
H880   H     0.38946   0.45086   0.87921   0.00000  Uiso   1.00
O881   O     0.56626   0.62768   0.66483   0.00000  Uiso   1.00
H882   H     0.55616   0.59864   0.66087   0.00000  Uiso   1.00
C883   C     0.83354   0.57986   0.74956   0.00000  Uiso   1.00
C884   C     0.81445   0.47715   0.98841   0.00000  Uiso   1.00
C885   C     0.82799   0.47270   0.93246   0.00000  Uiso   1.00
C886   C     0.85076   0.48441   0.51191   0.00000  Uiso   1.00
C887   C     0.89867   0.48953   0.97927   0.00000  Uiso   1.00
C888   C     0.91139   0.47583   0.92631   0.00000  Uiso   1.00
C889   C     0.87630   0.46492   0.90431   0.00000  Uiso   1.00
C890   C     0.84066   0.48723   0.56678   0.00000  Uiso   1.00
C891   C     0.92080   0.51179   0.55661   0.00000  Uiso   1.00
C892   C     0.79321   0.47738   0.90635   0.00000  Uiso   1.00
C893   C     0.86696   0.64626   0.70844   0.00000  Uiso   1.00
C894   C     0.80780   0.49247   0.85038   0.00000  Uiso   1.00
C895   C     0.86666   0.35579   0.71096   0.00000  Uiso   1.00
C896   C     0.83286   0.37605   0.75248   0.00000  Uiso   1.00
C897   C     0.79945   0.35428   0.79422   0.00000  Uiso   1.00
C898   C     0.79922   0.64407   0.79204   0.00000  Uiso   1.00
C899   C     0.83332   0.62406   0.74959   0.00000  Uiso   1.00
C900   C     0.98591   0.47808   0.71253   0.00000  Uiso   1.00
C901   C     0.70010   0.47731   0.71264   0.00000  Uiso   1.00
C902   C     0.68034   0.52230   0.78738   0.00000  Uiso   1.00
C903   C     0.96579   0.52218   0.78746   0.00000  Uiso   1.00
C904   C     0.83308   0.42015   0.75066   0.00000  Uiso   1.00
C905   C     0.85944   0.50098   0.64811   0.00000  Uiso   1.00
C906   C     0.93274   0.50637   0.50127   0.00000  Uiso   1.00
C907   C     0.87474   0.50023   0.58971   0.00000  Uiso   1.00
C908   C     0.74467   0.47171   0.93640   0.00000  Uiso   1.00
C909   C     0.73141   0.47184   0.99196   0.00000  Uiso   1.00
C910   C     0.76532   0.47673   0.51780   0.00000  Uiso   1.00
H911   H     0.97567   0.46036   0.68279   0.00000  Uiso   1.00
H912   H     0.69010   0.54013   0.81733   0.00000  Uiso   1.00
H913   H     0.93951   0.53995   0.81753   0.00000  Uiso   1.00
H914   H     0.94820   0.47280   0.90191   0.00000  Uiso   1.00
H915   H     0.80633   0.47771   0.59266   0.00000  Uiso   1.00
H916   H     0.75162   0.48010   0.56063   0.00000  Uiso   1.00
H917   H     0.69426   0.46915   0.51545   0.00000  Uiso   1.00
H918   H     0.88759   0.45161   0.86451   0.00000  Uiso   1.00
N919   N     0.71426   0.50001   0.75002   0.00000  Uiso   1.00
N920   N     0.95239   0.49998   0.75001   0.00000  Uiso   1.00
O921   O     0.79512   0.56108   0.75001   0.00000  Uiso   1.00
O922   O     0.87157   0.56107   0.75001   0.00000  Uiso   1.00
O923   O     0.77613   0.50000   0.82681   0.00000  Uiso   1.00
O924   O     0.85258   0.49999   0.82681   0.00000  Uiso   1.00
O925   O     0.79510   0.43893   0.75000   0.00000  Uiso   1.00
O926   O     0.87154   0.43892   0.75000   0.00000  Uiso   1.00
O927   O     0.81409   0.50001   0.67319   0.00000  Uiso   1.00
O928   O     0.89053   0.50000   0.67319   0.00000  Uiso   1.00
Zn929  Zn    0.78229   0.50001   0.75000   0.00000  Uiso   1.00
Zn930  Zn    0.88438   0.49999   0.75000   0.00000  Uiso   1.00
O931   O     0.95474   0.52917   0.57613   0.00000  Uiso   1.00
H932   H     0.93855   0.54573   0.60840   0.00000  Uiso   1.00
H933   H     0.89196   0.37349   0.67936   0.00000  Uiso   1.00
O934   O     0.76805   0.37426   0.83759   0.00000  Uiso   1.00
H935   H     0.78113   0.40206   0.84209   0.00000  Uiso   1.00
O936   O     0.76778   0.61997   0.83144   0.00000  Uiso   1.00
H937   H     0.74513   0.63815   0.85784   0.00000  Uiso   1.00
O938   O     0.73078   0.45283   0.67425   0.00000  Uiso   1.00
H939   H     0.75791   0.44603   0.68626   0.00000  Uiso   1.00
O940   O     0.97659   0.52102   0.97006   0.00000  Uiso   1.00
H941   H     0.97505   0.52821   0.93412   0.00000  Uiso   1.00
O942   O     0.70933   0.46597   0.91341   0.00000  Uiso   1.00
H943   H     0.72279   0.45086   0.87921   0.00000  Uiso   1.00
O944   O     0.89960   0.62768   0.66483   0.00000  Uiso   1.00
H945   H     0.88949   0.59864   0.66087   0.00000  Uiso   1.00
C946   C     0.16687   0.91319   0.74956   0.00000  Uiso   1.00
C947   C     0.14778   0.81049   0.98841   0.00000  Uiso   1.00
C948   C     0.16133   0.80603   0.93246   0.00000  Uiso   1.00
C949   C     0.18409   0.81775   0.51191   0.00000  Uiso   1.00
C950   C     0.23201   0.82286   0.97927   0.00000  Uiso   1.00
C951   C     0.24472   0.80916   0.92631   0.00000  Uiso   1.00
C952   C     0.20964   0.79825   0.90431   0.00000  Uiso   1.00
C953   C     0.17399   0.82056   0.56678   0.00000  Uiso   1.00
C954   C     0.25414   0.84512   0.55661   0.00000  Uiso   1.00
C955   C     0.12655   0.81072   0.90635   0.00000  Uiso   1.00
C956   C     0.20030   0.97959   0.70844   0.00000  Uiso   1.00
C957   C     0.14113   0.82580   0.85038   0.00000  Uiso   1.00
C958   C     0.20000   0.68912   0.71096   0.00000  Uiso   1.00
C959   C     0.16619   0.70939   0.75248   0.00000  Uiso   1.00
C960   C     0.13278   0.68761   0.79422   0.00000  Uiso   1.00
C961   C     0.13255   0.97740   0.79204   0.00000  Uiso   1.00
C962   C     0.16665   0.95739   0.74959   0.00000  Uiso   1.00
C963   C     0.31924   0.81141   0.71253   0.00000  Uiso   1.00
C964   C     0.03343   0.81064   0.71264   0.00000  Uiso   1.00
C965   C     0.01367   0.85563   0.78738   0.00000  Uiso   1.00
C966   C     0.29912   0.85552   0.78746   0.00000  Uiso   1.00
C967   C     0.16641   0.75348   0.75066   0.00000  Uiso   1.00
C968   C     0.19277   0.83432   0.64811   0.00000  Uiso   1.00
C969   C     0.26608   0.83970   0.50127   0.00000  Uiso   1.00
C970   C     0.20807   0.83356   0.58971   0.00000  Uiso   1.00
C971   C     0.07800   0.80505   0.93640   0.00000  Uiso   1.00
C972   C     0.06475   0.80517   0.99196   0.00000  Uiso   1.00
C973   C     0.09865   0.81007   0.51780   0.00000  Uiso   1.00
H974   H     0.30901   0.79369   0.68279   0.00000  Uiso   1.00
H975   H     0.02344   0.87347   0.81733   0.00000  Uiso   1.00
H976   H     0.27284   0.87328   0.81753   0.00000  Uiso   1.00
H977   H     0.28154   0.80614   0.90191   0.00000  Uiso   1.00
H978   H     0.13966   0.81104   0.59266   0.00000  Uiso   1.00
H979   H     0.08495   0.81344   0.56063   0.00000  Uiso   1.00
H980   H     0.02759   0.80248   0.51545   0.00000  Uiso   1.00
H981   H     0.22093   0.78495   0.86451   0.00000  Uiso   1.00
N982   N     0.04760   0.83334   0.75002   0.00000  Uiso   1.00
N983   N     0.28573   0.83331   0.75001   0.00000  Uiso   1.00
O984   O     0.12846   0.89442   0.75001   0.00000  Uiso   1.00
O985   O     0.20490   0.89441   0.75001   0.00000  Uiso   1.00
O986   O     0.10947   0.83333   0.82681   0.00000  Uiso   1.00
O987   O     0.18591   0.83332   0.82681   0.00000  Uiso   1.00
O988   O     0.12843   0.77226   0.75000   0.00000  Uiso   1.00
O989   O     0.20488   0.77225   0.75000   0.00000  Uiso   1.00
O990   O     0.14742   0.83335   0.67319   0.00000  Uiso   1.00
O991   O     0.22387   0.83334   0.67319   0.00000  Uiso   1.00
Zn992  Zn    0.11562   0.83334   0.75000   0.00000  Uiso   1.00
Zn993  Zn    0.21771   0.83333   0.75000   0.00000  Uiso   1.00
O994   O     0.28807   0.86250   0.57613   0.00000  Uiso   1.00
H995   H     0.27188   0.87907   0.60840   0.00000  Uiso   1.00
H996   H     0.22529   0.70682   0.67936   0.00000  Uiso   1.00
O997   O     0.10139   0.70760   0.83759   0.00000  Uiso   1.00
H998   H     0.11446   0.73540   0.84209   0.00000  Uiso   1.00
O999   O     0.10111   0.95331   0.83144   0.00000  Uiso   1.00
H1000  H     0.07847   0.97148   0.85784   0.00000  Uiso   1.00
O1001  O     0.06412   0.78616   0.67425   0.00000  Uiso   1.00
H1002  H     0.09124   0.77936   0.68626   0.00000  Uiso   1.00
O1003  O     0.30992   0.85435   0.97006   0.00000  Uiso   1.00
H1004  H     0.30839   0.86154   0.93412   0.00000  Uiso   1.00
O1005  O     0.04266   0.79930   0.91341   0.00000  Uiso   1.00
H1006  H     0.05613   0.78419   0.87921   0.00000  Uiso   1.00
O1007  O     0.23293   0.96101   0.66483   0.00000  Uiso   1.00
H1008  H     0.22282   0.93197   0.66087   0.00000  Uiso   1.00
C1009  C     0.50020   0.91319   0.74956   0.00000  Uiso   1.00
C1010  C     0.48112   0.81049   0.98841   0.00000  Uiso   1.00
C1011  C     0.49466   0.80603   0.93246   0.00000  Uiso   1.00
C1012  C     0.51742   0.81775   0.51191   0.00000  Uiso   1.00
C1013  C     0.56534   0.82286   0.97927   0.00000  Uiso   1.00
C1014  C     0.57805   0.80916   0.92631   0.00000  Uiso   1.00
C1015  C     0.54297   0.79825   0.90431   0.00000  Uiso   1.00
C1016  C     0.50733   0.82056   0.56678   0.00000  Uiso   1.00
C1017  C     0.58747   0.84512   0.55661   0.00000  Uiso   1.00
C1018  C     0.45988   0.81072   0.90635   0.00000  Uiso   1.00
C1019  C     0.53363   0.97959   0.70844   0.00000  Uiso   1.00
C1020  C     0.47447   0.82580   0.85038   0.00000  Uiso   1.00
C1021  C     0.53333   0.68912   0.71096   0.00000  Uiso   1.00
C1022  C     0.49952   0.70939   0.75248   0.00000  Uiso   1.00
C1023  C     0.46611   0.68761   0.79422   0.00000  Uiso   1.00
C1024  C     0.46588   0.97740   0.79204   0.00000  Uiso   1.00
C1025  C     0.49998   0.95739   0.74959   0.00000  Uiso   1.00
C1026  C     0.65258   0.81141   0.71253   0.00000  Uiso   1.00
C1027  C     0.36677   0.81064   0.71264   0.00000  Uiso   1.00
C1028  C     0.34700   0.85563   0.78738   0.00000  Uiso   1.00
C1029  C     0.63246   0.85552   0.78746   0.00000  Uiso   1.00
C1030  C     0.49975   0.75348   0.75066   0.00000  Uiso   1.00
C1031  C     0.52610   0.83432   0.64811   0.00000  Uiso   1.00
C1032  C     0.59941   0.83970   0.50127   0.00000  Uiso   1.00
C1033  C     0.54141   0.83356   0.58971   0.00000  Uiso   1.00
C1034  C     0.41134   0.80505   0.93640   0.00000  Uiso   1.00
C1035  C     0.39808   0.80517   0.99196   0.00000  Uiso   1.00
C1036  C     0.43198   0.81007   0.51780   0.00000  Uiso   1.00
H1037  H     0.64234   0.79369   0.68279   0.00000  Uiso   1.00
H1038  H     0.35677   0.87347   0.81733   0.00000  Uiso   1.00
H1039  H     0.60617   0.87328   0.81753   0.00000  Uiso   1.00
H1040  H     0.61487   0.80614   0.90191   0.00000  Uiso   1.00
H1041  H     0.47300   0.81104   0.59266   0.00000  Uiso   1.00
H1042  H     0.41829   0.81344   0.56063   0.00000  Uiso   1.00
H1043  H     0.36092   0.80248   0.51545   0.00000  Uiso   1.00
H1044  H     0.55426   0.78495   0.86451   0.00000  Uiso   1.00
N1045  N     0.38093   0.83334   0.75002   0.00000  Uiso   1.00
N1046  N     0.61906   0.83331   0.75001   0.00000  Uiso   1.00
O1047  O     0.46179   0.89442   0.75001   0.00000  Uiso   1.00
O1048  O     0.53823   0.89441   0.75001   0.00000  Uiso   1.00
O1049  O     0.44280   0.83333   0.82681   0.00000  Uiso   1.00
O1050  O     0.51924   0.83332   0.82681   0.00000  Uiso   1.00
O1051  O     0.46177   0.77226   0.75000   0.00000  Uiso   1.00
O1052  O     0.53821   0.77225   0.75000   0.00000  Uiso   1.00
O1053  O     0.48076   0.83335   0.67319   0.00000  Uiso   1.00
O1054  O     0.55720   0.83334   0.67319   0.00000  Uiso   1.00
Zn1055 Zn    0.44896   0.83334   0.75000   0.00000  Uiso   1.00
Zn1056 Zn    0.55104   0.83333   0.75000   0.00000  Uiso   1.00
O1057  O     0.62141   0.86250   0.57613   0.00000  Uiso   1.00
H1058  H     0.60521   0.87907   0.60840   0.00000  Uiso   1.00
H1059  H     0.55863   0.70682   0.67936   0.00000  Uiso   1.00
O1060  O     0.43472   0.70760   0.83759   0.00000  Uiso   1.00
H1061  H     0.44779   0.73540   0.84209   0.00000  Uiso   1.00
O1062  O     0.43445   0.95331   0.83144   0.00000  Uiso   1.00
H1063  H     0.41180   0.97148   0.85784   0.00000  Uiso   1.00
O1064  O     0.39745   0.78616   0.67425   0.00000  Uiso   1.00
H1065  H     0.42458   0.77936   0.68626   0.00000  Uiso   1.00
O1066  O     0.64326   0.85435   0.97006   0.00000  Uiso   1.00
H1067  H     0.64172   0.86154   0.93412   0.00000  Uiso   1.00
O1068  O     0.37600   0.79930   0.91341   0.00000  Uiso   1.00
H1069  H     0.38946   0.78419   0.87921   0.00000  Uiso   1.00
O1070  O     0.56626   0.96101   0.66483   0.00000  Uiso   1.00
H1071  H     0.55616   0.93197   0.66087   0.00000  Uiso   1.00
C1072  C     0.83354   0.91319   0.74956   0.00000  Uiso   1.00
C1073  C     0.81445   0.81049   0.98841   0.00000  Uiso   1.00
C1074  C     0.82799   0.80603   0.93246   0.00000  Uiso   1.00
C1075  C     0.85076   0.81775   0.51191   0.00000  Uiso   1.00
C1076  C     0.89867   0.82286   0.97927   0.00000  Uiso   1.00
C1077  C     0.91139   0.80916   0.92631   0.00000  Uiso   1.00
C1078  C     0.87630   0.79825   0.90431   0.00000  Uiso   1.00
C1079  C     0.84066   0.82056   0.56678   0.00000  Uiso   1.00
C1080  C     0.92080   0.84512   0.55661   0.00000  Uiso   1.00
C1081  C     0.79321   0.81072   0.90635   0.00000  Uiso   1.00
C1082  C     0.86696   0.97959   0.70844   0.00000  Uiso   1.00
C1083  C     0.80780   0.82580   0.85038   0.00000  Uiso   1.00
C1084  C     0.86666   0.68912   0.71096   0.00000  Uiso   1.00
C1085  C     0.83286   0.70939   0.75248   0.00000  Uiso   1.00
C1086  C     0.79945   0.68761   0.79422   0.00000  Uiso   1.00
C1087  C     0.79922   0.97740   0.79204   0.00000  Uiso   1.00
C1088  C     0.83332   0.95739   0.74959   0.00000  Uiso   1.00
C1089  C     0.98591   0.81141   0.71253   0.00000  Uiso   1.00
C1090  C     0.70010   0.81064   0.71264   0.00000  Uiso   1.00
C1091  C     0.68034   0.85563   0.78738   0.00000  Uiso   1.00
C1092  C     0.96579   0.85552   0.78746   0.00000  Uiso   1.00
C1093  C     0.83308   0.75348   0.75066   0.00000  Uiso   1.00
C1094  C     0.85944   0.83432   0.64811   0.00000  Uiso   1.00
C1095  C     0.93274   0.83970   0.50127   0.00000  Uiso   1.00
C1096  C     0.87474   0.83356   0.58971   0.00000  Uiso   1.00
C1097  C     0.74467   0.80505   0.93640   0.00000  Uiso   1.00
C1098  C     0.73141   0.80517   0.99196   0.00000  Uiso   1.00
C1099  C     0.76532   0.81007   0.51780   0.00000  Uiso   1.00
H1100  H     0.97567   0.79369   0.68279   0.00000  Uiso   1.00
H1101  H     0.69010   0.87347   0.81733   0.00000  Uiso   1.00
H1102  H     0.93951   0.87328   0.81753   0.00000  Uiso   1.00
H1103  H     0.94820   0.80614   0.90191   0.00000  Uiso   1.00
H1104  H     0.80633   0.81104   0.59266   0.00000  Uiso   1.00
H1105  H     0.75162   0.81344   0.56063   0.00000  Uiso   1.00
H1106  H     0.69426   0.80248   0.51545   0.00000  Uiso   1.00
H1107  H     0.88759   0.78495   0.86451   0.00000  Uiso   1.00
N1108  N     0.71426   0.83334   0.75002   0.00000  Uiso   1.00
N1109  N     0.95239   0.83331   0.75001   0.00000  Uiso   1.00
O1110  O     0.79512   0.89442   0.75001   0.00000  Uiso   1.00
O1111  O     0.87157   0.89441   0.75001   0.00000  Uiso   1.00
O1112  O     0.77613   0.83333   0.82681   0.00000  Uiso   1.00
O1113  O     0.85258   0.83332   0.82681   0.00000  Uiso   1.00
O1114  O     0.79510   0.77226   0.75000   0.00000  Uiso   1.00
O1115  O     0.87154   0.77225   0.75000   0.00000  Uiso   1.00
O1116  O     0.81409   0.83335   0.67319   0.00000  Uiso   1.00
O1117  O     0.89053   0.83334   0.67319   0.00000  Uiso   1.00
Zn1118 Zn    0.78229   0.83334   0.75000   0.00000  Uiso   1.00
Zn1119 Zn    0.88438   0.83333   0.75000   0.00000  Uiso   1.00
O1120  O     0.95474   0.86250   0.57613   0.00000  Uiso   1.00
H1121  H     0.93855   0.87907   0.60840   0.00000  Uiso   1.00
H1122  H     0.89196   0.70682   0.67936   0.00000  Uiso   1.00
O1123  O     0.76805   0.70760   0.83759   0.00000  Uiso   1.00
H1124  H     0.78113   0.73540   0.84209   0.00000  Uiso   1.00
O1125  O     0.76778   0.95331   0.83144   0.00000  Uiso   1.00
H1126  H     0.74513   0.97148   0.85784   0.00000  Uiso   1.00
O1127  O     0.73078   0.78616   0.67425   0.00000  Uiso   1.00
H1128  H     0.75791   0.77936   0.68626   0.00000  Uiso   1.00
O1129  O     0.97659   0.85435   0.97006   0.00000  Uiso   1.00
H1130  H     0.97505   0.86154   0.93412   0.00000  Uiso   1.00
O1131  O     0.70933   0.79930   0.91341   0.00000  Uiso   1.00
H1132  H     0.72279   0.78419   0.87921   0.00000  Uiso   1.00
O1133  O     0.89960   0.96101   0.66483   0.00000  Uiso   1.00
H1134  H     0.88949   0.93197   0.66087   0.00000  Uiso   1.00
loop_
_geom_bond_atom_site_label_1
_geom_bond_atom_site_label_2
_geom_bond_distance
_geom_bond_site_symmetry_2
_ccdc_geom_bond_type
C1     C17     1.412   .     S
C1     O39     1.281   .     A
C1     O40     1.285   .     A
C2     C3      1.407   .     A
C2     C571    1.420   .     S
C2     C595    1.418   .     S
C3     C10     1.419   .     A
C3     C7      1.413   .     A
C4     C8      1.383   .     A
C4     C569    1.420   1_554 S
C4     C572    1.418   1_554 S
C5     C6      1.395   .     A
C5     C571    1.418   .     S
C5     C591    1.417   .     S
C6     C7      1.384   .     A
C6     H32     1.083   .     S
C7     H36     1.081   .     S
C8     H33     1.073   .     S
C8     C25     1.392   .     A
C9     C24     1.398   .     A
C9     C25     1.416   .     A
C9     O49     1.380   .     S
C10    C26     1.417   .     A
C10    C12     1.481   .     S
C11    O62     1.382   .     S
C11    C17     1.409   .     A
C11    C202    1.371   .     S
C12    O42     1.297   .     A
C12    O41     1.304   .     A
C13    C14     1.390   .     A
C13    H51     1.085   .     S
C13    C389    1.371   1_545 S
C14    C22     1.409   .     S
C14    C15     1.407   .     A
C15    O52     1.382   .     S
C15    C394    1.392   1_545 S
C16    O54     1.386   .     S
C16    C17     1.404   .     A
C16    C204    1.392   .     S
C18    N38     1.355   .     A
C18    H29     1.082   .     S
C18    C82     1.411   .     S
C19    O56     1.373   .     S
C19    N37     1.387   .     A
C19    C144    1.411   1_455 S
C20    H30     1.082   .     S
C20    N37     1.367   .     A
C20    C147    1.420   1_455 S
C21    H31     1.082   .     S
C21    N38     1.369   .     A
C21    C83     1.420   .     S
C22    O43     1.285   .     A
C22    O44     1.280   .     A
C23    O45     1.298   .     A
C23    C25     1.460   .     S
C23    O46     1.294   .     A
C24    C572    1.417   1_554 S
C24    O625    1.380   1_554 S
C26    C27     1.390   .     A
C26    O60     1.378   .     S
C27    C595    1.389   .     S
C27    H602    1.083   .     S
C28    H34     1.077   .     S
C28    C594    1.389   1_554 S
C28    C569    1.418   1_554 S
H35    C594    1.083   1_554 S
N37    Zn47    2.018   .     S
N38    Zn48    2.018   .     S
O39    Zn47    1.985   .     S
O40    Zn48    1.991   .     S
O41    Zn47    1.974   .     S
O42    Zn48    1.944   .     S
O43    Zn47    1.991   .     S
O44    Zn48    1.985   .     S
O45    Zn47    1.944   .     S
O46    Zn48    1.974   .     S
O49    H50     0.988   .     S
O52    H53     0.988   .     S
O54    H55     0.990   .     S
O56    H57     0.979   .     S
O58    H59     0.990   .     S
O58    C591    1.380   .     S
O60    H61     0.988   .     S
O62    H63     0.988   .     S
C64    C80     1.412   .     S
C64    O102    1.281   .     A
C64    O103    1.285   .     A
C65    C66     1.407   .     A
C65    C634    1.420   .     S
C65    C658    1.418   .     S
C66    C73     1.419   .     A
C66    C70     1.413   .     A
C67    C71     1.383   .     A
C67    C632    1.420   1_554 S
C67    C635    1.418   1_554 S
C68    C69     1.395   .     A
C68    C634    1.418   .     S
C68    C654    1.417   .     S
C69    C70     1.384   .     A
C69    H95     1.083   .     S
C70    H99     1.081   .     S
C71    H96     1.073   .     S
C71    C88     1.392   .     A
C72    C87     1.398   .     A
C72    C88     1.416   .     A
C72    O112    1.380   .     S
C73    C89     1.417   .     A
C73    C75     1.481   .     S
C74    O125    1.382   .     S
C74    C80     1.409   .     A
C74    C265    1.371   .     S
C75    O105    1.297   .     A
C75    O104    1.304   .     A
C76    C77     1.390   .     A
C76    H114    1.085   .     S
C76    C452    1.371   1_545 S
C77    C85     1.409   .     S
C77    C78     1.407   .     A
C78    O115    1.382   .     S
C78    C457    1.392   1_545 S
C79    O117    1.386   .     S
C79    C80     1.404   .     A
C79    C267    1.392   .     S
C81    N101    1.355   .     A
C81    H92     1.082   .     S
C81    C145    1.411   .     S
C82    O119    1.373   .     S
C82    N100    1.387   .     A
C83    H93     1.082   .     S
C83    N100    1.367   .     A
C84    H94     1.082   .     S
C84    N101    1.369   .     A
C84    C146    1.420   .     S
C85    O106    1.285   .     A
C85    O107    1.280   .     A
C86    O108    1.298   .     A
C86    C88     1.460   .     S
C86    O109    1.294   .     A
C87    C635    1.417   1_554 S
C87    O688    1.380   1_554 S
C89    C90     1.390   .     A
C89    O123    1.378   .     S
C90    C658    1.389   .     S
C90    H665    1.083   .     S
C91    H97     1.077   .     S
C91    C657    1.389   1_554 S
C91    C632    1.418   1_554 S
H98    C657    1.083   1_554 S
N100   Zn110   2.018   .     S
N101   Zn111   2.018   .     S
O102   Zn110   1.985   .     S
O103   Zn111   1.991   .     S
O104   Zn110   1.974   .     S
O105   Zn111   1.944   .     S
O106   Zn110   1.991   .     S
O107   Zn111   1.985   .     S
O108   Zn110   1.944   .     S
O109   Zn111   1.974   .     S
O112   H113    0.988   .     S
O115   H116    0.988   .     S
O117   H118    0.990   .     S
O119   H120    0.979   .     S
O121   H122    0.990   .     S
O121   C654    1.380   .     S
O123   H124    0.988   .     S
O125   H126    0.988   .     S
C127   C143    1.412   .     S
C127   O165    1.281   .     A
C127   O166    1.285   .     A
C128   C129    1.407   .     A
C128   C697    1.420   .     S
C128   C721    1.418   .     S
C129   C136    1.419   .     A
C129   C133    1.413   .     A
C130   C134    1.383   .     A
C130   C695    1.420   1_554 S
C130   C698    1.418   1_554 S
C131   C132    1.395   .     A
C131   C697    1.418   .     S
C131   C717    1.417   .     S
C132   C133    1.384   .     A
C132   H158    1.083   .     S
C133   H162    1.081   .     S
C134   H159    1.073   .     S
C134   C151    1.392   .     A
C135   C150    1.398   .     A
C135   C151    1.416   .     A
C135   O175    1.380   .     S
C136   C152    1.417   .     A
C136   C138    1.481   .     S
C137   O188    1.382   .     S
C137   C143    1.409   .     A
C137   C328    1.371   .     S
C138   O168    1.297   .     A
C138   O167    1.304   .     A
C139   C140    1.390   .     A
C139   H177    1.085   .     S
C139   C515    1.371   1_545 S
C140   C148    1.409   .     S
C140   C141    1.407   .     A
C141   O178    1.382   .     S
C141   C520    1.392   1_545 S
C142   O180    1.386   .     S
C142   C143    1.404   .     A
C142   C330    1.392   .     S
C144   N164    1.355   .     A
C144   H155    1.082   .     S
C144   C19     1.411   1_655 S
C145   O182    1.373   .     S
C145   N163    1.387   .     A
C146   H156    1.082   .     S
C146   N163    1.367   .     A
C147   H157    1.082   .     S
C147   N164    1.369   .     A
C147   C20     1.420   1_655 S
C148   O169    1.285   .     A
C148   O170    1.280   .     A
C149   O171    1.298   .     A
C149   C151    1.460   .     S
C149   O172    1.294   .     A
C150   C698    1.417   1_554 S
C150   O751    1.380   1_554 S
C152   C153    1.390   .     A
C152   O186    1.378   .     S
C153   C721    1.389   .     S
C153   H728    1.083   .     S
C154   H160    1.077   .     S
C154   C720    1.389   1_554 S
C154   C695    1.418   1_554 S
H161   C720    1.083   1_554 S
N163   Zn173   2.018   .     S
N164   Zn174   2.018   .     S
O165   Zn173   1.985   .     S
O166   Zn174   1.991   .     S
O167   Zn173   1.974   .     S
O168   Zn174   1.944   .     S
O169   Zn173   1.991   .     S
O170   Zn174   1.985   .     S
O171   Zn173   1.944   .     S
O172   Zn174   1.974   .     S
O175   H176    0.988   .     S
O178   H179    0.988   .     S
O180   H181    0.990   .     S
O182   H183    0.979   .     S
O184   H185    0.990   .     S
O184   C717    1.380   .     S
O186   H187    0.988   .     S
O188   H189    0.988   .     S
C190   C206    1.412   .     S
C190   O228    1.281   .     A
C190   O229    1.285   .     A
C191   C192    1.407   .     A
C191   C760    1.420   .     S
C191   C784    1.418   .     S
C192   C199    1.419   .     A
C192   C196    1.413   .     A
C193   C197    1.383   .     A
C193   C758    1.420   1_554 S
C193   C761    1.418   1_554 S
C194   C195    1.395   .     A
C194   C760    1.418   .     S
C194   C780    1.417   .     S
C195   C196    1.384   .     A
C195   H221    1.083   .     S
C196   H225    1.081   .     S
C197   H222    1.073   .     S
C197   C214    1.392   .     A
C198   C213    1.398   .     A
C198   C214    1.416   .     A
C198   O238    1.380   .     S
C199   C215    1.417   .     A
C199   C201    1.481   .     S
C200   O251    1.382   .     S
C200   C206    1.409   .     A
C200   C391    1.371   .     S
C201   O231    1.297   .     A
C201   O230    1.304   .     A
C202   C203    1.390   .     A
C202   H240    1.085   .     S
C203   C211    1.409   .     S
C203   C204    1.407   .     A
C204   O241    1.382   .     S
C205   O243    1.386   .     S
C205   C206    1.404   .     A
C205   C393    1.392   .     S
C207   N227    1.355   .     A
C207   H218    1.082   .     S
C207   C271    1.411   .     S
C208   O245    1.373   .     S
C208   N226    1.387   .     A
C208   C333    1.411   1_455 S
C209   H219    1.082   .     S
C209   N226    1.367   .     A
C209   C336    1.420   1_455 S
C210   H220    1.082   .     S
C210   N227    1.369   .     A
C210   C272    1.420   .     S
C211   O232    1.285   .     A
C211   O233    1.280   .     A
C212   O234    1.298   .     A
C212   C214    1.460   .     S
C212   O235    1.294   .     A
C213   C761    1.417   1_554 S
C213   O814    1.380   1_554 S
C215   C216    1.390   .     A
C215   O249    1.378   .     S
C216   C784    1.389   .     S
C216   H791    1.083   .     S
C217   H223    1.077   .     S
C217   C783    1.389   1_554 S
C217   C758    1.418   1_554 S
H224   C783    1.083   1_554 S
N226   Zn236   2.018   .     S
N227   Zn237   2.018   .     S
O228   Zn236   1.985   .     S
O229   Zn237   1.991   .     S
O230   Zn236   1.974   .     S
O231   Zn237   1.944   .     S
O232   Zn236   1.991   .     S
O233   Zn237   1.985   .     S
O234   Zn236   1.944   .     S
O235   Zn237   1.974   .     S
O238   H239    0.988   .     S
O241   H242    0.988   .     S
O243   H244    0.990   .     S
O245   H246    0.979   .     S
O247   H248    0.990   .     S
O247   C780    1.380   .     S
O249   H250    0.988   .     S
O251   H252    0.988   .     S
C253   C269    1.412   .     S
C253   O291    1.281   .     A
C253   O292    1.285   .     A
C254   C255    1.407   .     A
C254   C823    1.420   .     S
C254   C847    1.418   .     S
C255   C262    1.419   .     A
C255   C259    1.413   .     A
C256   C260    1.383   .     A
C256   C821    1.420   1_554 S
C256   C824    1.418   1_554 S
C257   C258    1.395   .     A
C257   C823    1.418   .     S
C257   C843    1.417   .     S
C258   C259    1.384   .     A
C258   H284    1.083   .     S
C259   H288    1.081   .     S
C260   H285    1.073   .     S
C260   C277    1.392   .     A
C261   C276    1.398   .     A
C261   C277    1.416   .     A
C261   O301    1.380   .     S
C262   C278    1.417   .     A
C262   C264    1.481   .     S
C263   O314    1.382   .     S
C263   C269    1.409   .     A
C263   C454    1.371   .     S
C264   O294    1.297   .     A
C264   O293    1.304   .     A
C265   C266    1.390   .     A
C265   H303    1.085   .     S
C266   C274    1.409   .     S
C266   C267    1.407   .     A
C267   O304    1.382   .     S
C268   O306    1.386   .     S
C268   C269    1.404   .     A
C268   C456    1.392   .     S
C270   N290    1.355   .     A
C270   H281    1.082   .     S
C270   C334    1.411   .     S
C271   O308    1.373   .     S
C271   N289    1.387   .     A
C272   H282    1.082   .     S
C272   N289    1.367   .     A
C273   H283    1.082   .     S
C273   N290    1.369   .     A
C273   C335    1.420   .     S
C274   O295    1.285   .     A
C274   O296    1.280   .     A
C275   O297    1.298   .     A
C275   C277    1.460   .     S
C275   O298    1.294   .     A
C276   C824    1.417   1_554 S
C276   O877    1.380   1_554 S
C278   C279    1.390   .     A
C278   O312    1.378   .     S
C279   C847    1.389   .     S
C279   H854    1.083   .     S
C280   H286    1.077   .     S
C280   C846    1.389   1_554 S
C280   C821    1.418   1_554 S
H287   C846    1.083   1_554 S
N289   Zn299   2.018   .     S
N290   Zn300   2.018   .     S
O291   Zn299   1.985   .     S
O292   Zn300   1.991   .     S
O293   Zn299   1.974   .     S
O294   Zn300   1.944   .     S
O295   Zn299   1.991   .     S
O296   Zn300   1.985   .     S
O297   Zn299   1.944   .     S
O298   Zn300   1.974   .     S
O301   H302    0.988   .     S
O304   H305    0.988   .     S
O306   H307    0.990   .     S
O308   H309    0.979   .     S
O310   H311    0.990   .     S
O310   C843    1.380   .     S
O312   H313    0.988   .     S
O314   H315    0.988   .     S
C316   C332    1.412   .     S
C316   O354    1.281   .     A
C316   O355    1.285   .     A
C317   C318    1.407   .     A
C317   C886    1.420   .     S
C317   C910    1.418   .     S
C318   C325    1.419   .     A
C318   C322    1.413   .     A
C319   C323    1.383   .     A
C319   C884    1.420   1_554 S
C319   C887    1.418   1_554 S
C320   C321    1.395   .     A
C320   C886    1.418   .     S
C320   C906    1.417   .     S
C321   C322    1.384   .     A
C321   H347    1.083   .     S
C322   H351    1.081   .     S
C323   H348    1.073   .     S
C323   C340    1.392   .     A
C324   C339    1.398   .     A
C324   C340    1.416   .     A
C324   O364    1.380   .     S
C325   C341    1.417   .     A
C325   C327    1.481   .     S
C326   O377    1.382   .     S
C326   C332    1.409   .     A
C326   C517    1.371   .     S
C327   O357    1.297   .     A
C327   O356    1.304   .     A
C328   C329    1.390   .     A
C328   H366    1.085   .     S
C329   C337    1.409   .     S
C329   C330    1.407   .     A
C330   O367    1.382   .     S
C331   O369    1.386   .     S
C331   C332    1.404   .     A
C331   C519    1.392   .     S
C333   N353    1.355   .     A
C333   H344    1.082   .     S
C333   C208    1.411   1_655 S
C334   O371    1.373   .     S
C334   N352    1.387   .     A
C335   H345    1.082   .     S
C335   N352    1.367   .     A
C336   H346    1.082   .     S
C336   N353    1.369   .     A
C336   C209    1.420   1_655 S
C337   O358    1.285   .     A
C337   O359    1.280   .     A
C338   O360    1.298   .     A
C338   C340    1.460   .     S
C338   O361    1.294   .     A
C339   C887    1.417   1_554 S
C339   O940    1.380   1_554 S
C341   C342    1.390   .     A
C341   O375    1.378   .     S
C342   C910    1.389   .     S
C342   H917    1.083   .     S
C343   H349    1.077   .     S
C343   C909    1.389   1_554 S
C343   C884    1.418   1_554 S
H350   C909    1.083   1_554 S
N352   Zn362   2.018   .     S
N353   Zn363   2.018   .     S
O354   Zn362   1.985   .     S
O355   Zn363   1.991   .     S
O356   Zn362   1.974   .     S
O357   Zn363   1.944   .     S
O358   Zn362   1.991   .     S
O359   Zn363   1.985   .     S
O360   Zn362   1.944   .     S
O361   Zn363   1.974   .     S
O364   H365    0.988   .     S
O367   H368    0.988   .     S
O369   H370    0.990   .     S
O371   H372    0.979   .     S
O373   H374    0.990   .     S
O373   C906    1.380   .     S
O375   H376    0.988   .     S
O377   H378    0.988   .     S
C379   C395    1.412   .     S
C379   O417    1.281   .     A
C379   O418    1.285   .     A
C380   C381    1.407   .     A
C380   C949    1.420   .     S
C380   C973    1.418   .     S
C381   C388    1.419   .     A
C381   C385    1.413   .     A
C382   C386    1.383   .     A
C382   C947    1.420   1_554 S
C382   C950    1.418   1_554 S
C383   C384    1.395   .     A
C383   C949    1.418   .     S
C383   C969    1.417   .     S
C384   C385    1.384   .     A
C384   H410    1.083   .     S
C385   H414    1.081   .     S
C386   H411    1.073   .     S
C386   C403    1.392   .     A
C387   C402    1.398   .     A
C387   C403    1.416   .     A
C387   O427    1.380   .     S
C388   C404    1.417   .     A
C388   C390    1.481   .     S
C389   O440    1.382   .     S
C389   C395    1.409   .     A
C389   C13     1.371   1_565 S
C390   O420    1.297   .     A
C390   O419    1.304   .     A
C391   C392    1.390   .     A
C391   H429    1.085   .     S
C392   C400    1.409   .     S
C392   C393    1.407   .     A
C393   O430    1.382   .     S
C394   O432    1.386   .     S
C394   C395    1.404   .     A
C394   C15     1.392   1_565 S
C396   N416    1.355   .     A
C396   H407    1.082   .     S
C396   C460    1.411   .     S
C397   O434    1.373   .     S
C397   N415    1.387   .     A
C397   C522    1.411   1_455 S
C398   H408    1.082   .     S
C398   N415    1.367   .     A
C398   C525    1.420   1_455 S
C399   H409    1.082   .     S
C399   N416    1.369   .     A
C399   C461    1.420   .     S
C400   O421    1.285   .     A
C400   O422    1.280   .     A
C401   O423    1.298   .     A
C401   C403    1.460   .     S
C401   O424    1.294   .     A
C402   C950    1.417   1_554 S
C402   O1003   1.380   1_554 S
C404   C405    1.390   .     A
C404   O438    1.378   .     S
C405   C973    1.389   .     S
C405   H980    1.083   .     S
C406   H412    1.077   .     S
C406   C972    1.389   1_554 S
C406   C947    1.418   1_554 S
H413   C972    1.083   1_554 S
N415   Zn425   2.018   .     S
N416   Zn426   2.018   .     S
O417   Zn425   1.985   .     S
O418   Zn426   1.991   .     S
O419   Zn425   1.974   .     S
O420   Zn426   1.944   .     S
O421   Zn425   1.991   .     S
O422   Zn426   1.985   .     S
O423   Zn425   1.944   .     S
O424   Zn426   1.974   .     S
O427   H428    0.988   .     S
O430   H431    0.988   .     S
O432   H433    0.990   .     S
O434   H435    0.979   .     S
O436   H437    0.990   .     S
O436   C969    1.380   .     S
O438   H439    0.988   .     S
O440   H441    0.988   .     S
C442   C458    1.412   .     S
C442   O480    1.281   .     A
C442   O481    1.285   .     A
C443   C444    1.407   .     A
C443   C1012   1.420   .     S
C443   C1036   1.418   .     S
C444   C451    1.419   .     A
C444   C448    1.413   .     A
C445   C449    1.383   .     A
C445   C1010   1.420   1_554 S
C445   C1013   1.418   1_554 S
C446   C447    1.395   .     A
C446   C1012   1.418   .     S
C446   C1032   1.417   .     S
C447   C448    1.384   .     A
C447   H473    1.083   .     S
C448   H477    1.081   .     S
C449   H474    1.073   .     S
C449   C466    1.392   .     A
C450   C465    1.398   .     A
C450   C466    1.416   .     A
C450   O490    1.380   .     S
C451   C467    1.417   .     A
C451   C453    1.481   .     S
C452   O503    1.382   .     S
C452   C458    1.409   .     A
C452   C76     1.371   1_565 S
C453   O483    1.297   .     A
C453   O482    1.304   .     A
C454   C455    1.390   .     A
C454   H492    1.085   .     S
C455   C463    1.409   .     S
C455   C456    1.407   .     A
C456   O493    1.382   .     S
C457   O495    1.386   .     S
C457   C458    1.404   .     A
C457   C78     1.392   1_565 S
C459   N479    1.355   .     A
C459   H470    1.082   .     S
C459   C523    1.411   .     S
C460   O497    1.373   .     S
C460   N478    1.387   .     A
C461   H471    1.082   .     S
C461   N478    1.367   .     A
C462   H472    1.082   .     S
C462   N479    1.369   .     A
C462   C524    1.420   .     S
C463   O484    1.285   .     A
C463   O485    1.280   .     A
C464   O486    1.298   .     A
C464   C466    1.460   .     S
C464   O487    1.294   .     A
C465   C1013   1.417   1_554 S
C465   O1066   1.380   1_554 S
C467   C468    1.390   .     A
C467   O501    1.378   .     S
C468   C1036   1.389   .     S
C468   H1043   1.083   .     S
C469   H475    1.077   .     S
C469   C1035   1.389   1_554 S
C469   C1010   1.418   1_554 S
H476   C1035   1.083   1_554 S
N478   Zn488   2.018   .     S
N479   Zn489   2.018   .     S
O480   Zn488   1.985   .     S
O481   Zn489   1.991   .     S
O482   Zn488   1.974   .     S
O483   Zn489   1.944   .     S
O484   Zn488   1.991   .     S
O485   Zn489   1.985   .     S
O486   Zn488   1.944   .     S
O487   Zn489   1.974   .     S
O490   H491    0.988   .     S
O493   H494    0.988   .     S
O495   H496    0.990   .     S
O497   H498    0.979   .     S
O499   H500    0.990   .     S
O499   C1032   1.380   .     S
O501   H502    0.988   .     S
O503   H504    0.988   .     S
C505   C521    1.412   .     S
C505   O543    1.281   .     A
C505   O544    1.285   .     A
C506   C507    1.407   .     A
C506   C1075   1.420   .     S
C506   C1099   1.418   .     S
C507   C514    1.419   .     A
C507   C511    1.413   .     A
C508   C512    1.383   .     A
C508   C1073   1.420   1_554 S
C508   C1076   1.418   1_554 S
C509   C510    1.395   .     A
C509   C1075   1.418   .     S
C509   C1095   1.417   .     S
C510   C511    1.384   .     A
C510   H536    1.083   .     S
C511   H540    1.081   .     S
C512   H537    1.073   .     S
C512   C529    1.392   .     A
C513   C528    1.398   .     A
C513   C529    1.416   .     A
C513   O553    1.380   .     S
C514   C530    1.417   .     A
C514   C516    1.481   .     S
C515   O566    1.382   .     S
C515   C521    1.409   .     A
C515   C139    1.371   1_565 S
C516   O546    1.297   .     A
C516   O545    1.304   .     A
C517   C518    1.390   .     A
C517   H555    1.085   .     S
C518   C526    1.409   .     S
C518   C519    1.407   .     A
C519   O556    1.382   .     S
C520   O558    1.386   .     S
C520   C521    1.404   .     A
C520   C141    1.392   1_565 S
C522   N542    1.355   .     A
C522   H533    1.082   .     S
C522   C397    1.411   1_655 S
C523   O560    1.373   .     S
C523   N541    1.387   .     A
C524   H534    1.082   .     S
C524   N541    1.367   .     A
C525   H535    1.082   .     S
C525   N542    1.369   .     A
C525   C398    1.420   1_655 S
C526   O547    1.285   .     A
C526   O548    1.280   .     A
C527   O549    1.298   .     A
C527   C529    1.460   .     S
C527   O550    1.294   .     A
C528   C1076   1.417   1_554 S
C528   O1129   1.380   1_554 S
C530   C531    1.390   .     A
C530   O564    1.378   .     S
C531   C1099   1.389   .     S
C531   H1106   1.083   .     S
C532   H538    1.077   .     S
C532   C1098   1.389   1_554 S
C532   C1073   1.418   1_554 S
H539   C1098   1.083   1_554 S
N541   Zn551   2.018   .     S
N542   Zn552   2.018   .     S
O543   Zn551   1.985   .     S
O544   Zn552   1.991   .     S
O545   Zn551   1.974   .     S
O546   Zn552   1.944   .     S
O547   Zn551   1.991   .     S
O548   Zn552   1.985   .     S
O549   Zn551   1.944   .     S
O550   Zn552   1.974   .     S
O553   H554    0.988   .     S
O556   H557    0.988   .     S
O558   H559    0.990   .     S
O560   H561    0.979   .     S
O562   H563    0.990   .     S
O562   C1095   1.380   .     S
O564   H565    0.988   .     S
O566   H567    0.988   .     S
C568   C584    1.412   .     S
C568   O606    1.281   .     A
C568   O607    1.285   .     A
C569   C570    1.407   .     A
C569   C4      1.420   1_556 S
C569   C28     1.418   1_556 S
C570   C577    1.419   .     A
C570   C574    1.413   .     A
C571   C575    1.383   .     A
C572   C573    1.395   .     A
C572   C4      1.418   1_556 S
C572   C24     1.417   1_556 S
C573   C574    1.384   .     A
C573   H599    1.083   .     S
C574   H603    1.081   .     S
C575   H600    1.073   .     S
C575   C592    1.392   .     A
C576   C591    1.398   .     A
C576   C592    1.416   .     A
C576   O616    1.380   .     S
C577   C593    1.417   .     A
C577   C579    1.481   .     S
C578   O629    1.382   .     S
C578   C584    1.409   .     A
C578   C769    1.371   .     S
C579   O609    1.297   .     A
C579   O608    1.304   .     A
C580   C581    1.390   .     A
C580   H618    1.085   .     S
C580   C956    1.371   1_545 S
C581   C589    1.409   .     S
C581   C582    1.407   .     A
C582   O619    1.382   .     S
C582   C961    1.392   1_545 S
C583   O621    1.386   .     S
C583   C584    1.404   .     A
C583   C771    1.392   .     S
C585   N605    1.355   .     A
C585   H596    1.082   .     S
C585   C649    1.411   .     S
C586   O623    1.373   .     S
C586   N604    1.387   .     A
C586   C711    1.411   1_455 S
C587   H597    1.082   .     S
C587   N604    1.367   .     A
C587   C714    1.420   1_455 S
C588   H598    1.082   .     S
C588   N605    1.369   .     A
C588   C650    1.420   .     S
C589   O610    1.285   .     A
C589   O611    1.280   .     A
C590   O612    1.298   .     A
C590   C592    1.460   .     S
C590   O613    1.294   .     A
C593   C594    1.390   .     A
C593   O627    1.378   .     S
C594   C28     1.389   1_556 S
C594   H35     1.083   1_556 S
C595   H601    1.077   .     S
N604   Zn614   2.018   .     S
N605   Zn615   2.018   .     S
O606   Zn614   1.985   .     S
O607   Zn615   1.991   .     S
O608   Zn614   1.974   .     S
O609   Zn615   1.944   .     S
O610   Zn614   1.991   .     S
O611   Zn615   1.985   .     S
O612   Zn614   1.944   .     S
O613   Zn615   1.974   .     S
O616   H617    0.988   .     S
O619   H620    0.988   .     S
O621   H622    0.990   .     S
O623   H624    0.979   .     S
O625   H626    0.990   .     S
O625   C24     1.380   1_556 S
O627   H628    0.988   .     S
O629   H630    0.988   .     S
C631   C647    1.412   .     S
C631   O669    1.281   .     A
C631   O670    1.285   .     A
C632   C633    1.407   .     A
C632   C67     1.420   1_556 S
C632   C91     1.418   1_556 S
C633   C640    1.419   .     A
C633   C637    1.413   .     A
C634   C638    1.383   .     A
C635   C636    1.395   .     A
C635   C67     1.418   1_556 S
C635   C87     1.417   1_556 S
C636   C637    1.384   .     A
C636   H662    1.083   .     S
C637   H666    1.081   .     S
C638   H663    1.073   .     S
C638   C655    1.392   .     A
C639   C654    1.398   .     A
C639   C655    1.416   .     A
C639   O679    1.380   .     S
C640   C656    1.417   .     A
C640   C642    1.481   .     S
C641   O692    1.382   .     S
C641   C647    1.409   .     A
C641   C832    1.371   .     S
C642   O672    1.297   .     A
C642   O671    1.304   .     A
C643   C644    1.390   .     A
C643   H681    1.085   .     S
C643   C1019   1.371   1_545 S
C644   C652    1.409   .     S
C644   C645    1.407   .     A
C645   O682    1.382   .     S
C645   C1024   1.392   1_545 S
C646   O684    1.386   .     S
C646   C647    1.404   .     A
C646   C834    1.392   .     S
C648   N668    1.355   .     A
C648   H659    1.082   .     S
C648   C712    1.411   .     S
C649   O686    1.373   .     S
C649   N667    1.387   .     A
C650   H660    1.082   .     S
C650   N667    1.367   .     A
C651   H661    1.082   .     S
C651   N668    1.369   .     A
C651   C713    1.420   .     S
C652   O673    1.285   .     A
C652   O674    1.280   .     A
C653   O675    1.298   .     A
C653   C655    1.460   .     S
C653   O676    1.294   .     A
C656   C657    1.390   .     A
C656   O690    1.378   .     S
C657   C91     1.389   1_556 S
C657   H98     1.083   1_556 S
C658   H664    1.077   .     S
N667   Zn677   2.018   .     S
N668   Zn678   2.018   .     S
O669   Zn677   1.985   .     S
O670   Zn678   1.991   .     S
O671   Zn677   1.974   .     S
O672   Zn678   1.944   .     S
O673   Zn677   1.991   .     S
O674   Zn678   1.985   .     S
O675   Zn677   1.944   .     S
O676   Zn678   1.974   .     S
O679   H680    0.988   .     S
O682   H683    0.988   .     S
O684   H685    0.990   .     S
O686   H687    0.979   .     S
O688   H689    0.990   .     S
O688   C87     1.380   1_556 S
O690   H691    0.988   .     S
O692   H693    0.988   .     S
C694   C710    1.412   .     S
C694   O732    1.281   .     A
C694   O733    1.285   .     A
C695   C696    1.407   .     A
C695   C130    1.420   1_556 S
C695   C154    1.418   1_556 S
C696   C703    1.419   .     A
C696   C700    1.413   .     A
C697   C701    1.383   .     A
C698   C699    1.395   .     A
C698   C130    1.418   1_556 S
C698   C150    1.417   1_556 S
C699   C700    1.384   .     A
C699   H725    1.083   .     S
C700   H729    1.081   .     S
C701   H726    1.073   .     S
C701   C718    1.392   .     A
C702   C717    1.398   .     A
C702   C718    1.416   .     A
C702   O742    1.380   .     S
C703   C719    1.417   .     A
C703   C705    1.481   .     S
C704   O755    1.382   .     S
C704   C710    1.409   .     A
C704   C895    1.371   .     S
C705   O735    1.297   .     A
C705   O734    1.304   .     A
C706   C707    1.390   .     A
C706   H744    1.085   .     S
C706   C1082   1.371   1_545 S
C707   C715    1.409   .     S
C707   C708    1.407   .     A
C708   O745    1.382   .     S
C708   C1087   1.392   1_545 S
C709   O747    1.386   .     S
C709   C710    1.404   .     A
C709   C897    1.392   .     S
C711   N731    1.355   .     A
C711   H722    1.082   .     S
C711   C586    1.411   1_655 S
C712   O749    1.373   .     S
C712   N730    1.387   .     A
C713   H723    1.082   .     S
C713   N730    1.367   .     A
C714   H724    1.082   .     S
C714   N731    1.369   .     A
C714   C587    1.420   1_655 S
C715   O736    1.285   .     A
C715   O737    1.280   .     A
C716   O738    1.298   .     A
C716   C718    1.460   .     S
C716   O739    1.294   .     A
C719   C720    1.390   .     A
C719   O753    1.378   .     S
C720   C154    1.389   1_556 S
C720   H161    1.083   1_556 S
C721   H727    1.077   .     S
N730   Zn740   2.018   .     S
N731   Zn741   2.018   .     S
O732   Zn740   1.985   .     S
O733   Zn741   1.991   .     S
O734   Zn740   1.974   .     S
O735   Zn741   1.944   .     S
O736   Zn740   1.991   .     S
O737   Zn741   1.985   .     S
O738   Zn740   1.944   .     S
O739   Zn741   1.974   .     S
O742   H743    0.988   .     S
O745   H746    0.988   .     S
O747   H748    0.990   .     S
O749   H750    0.979   .     S
O751   H752    0.990   .     S
O751   C150    1.380   1_556 S
O753   H754    0.988   .     S
O755   H756    0.988   .     S
C757   C773    1.412   .     S
C757   O795    1.281   .     A
C757   O796    1.285   .     A
C758   C759    1.407   .     A
C758   C193    1.420   1_556 S
C758   C217    1.418   1_556 S
C759   C766    1.419   .     A
C759   C763    1.413   .     A
C760   C764    1.383   .     A
C761   C762    1.395   .     A
C761   C193    1.418   1_556 S
C761   C213    1.417   1_556 S
C762   C763    1.384   .     A
C762   H788    1.083   .     S
C763   H792    1.081   .     S
C764   H789    1.073   .     S
C764   C781    1.392   .     A
C765   C780    1.398   .     A
C765   C781    1.416   .     A
C765   O805    1.380   .     S
C766   C782    1.417   .     A
C766   C768    1.481   .     S
C767   O818    1.382   .     S
C767   C773    1.409   .     A
C767   C958    1.371   .     S
C768   O798    1.297   .     A
C768   O797    1.304   .     A
C769   C770    1.390   .     A
C769   H807    1.085   .     S
C770   C778    1.409   .     S
C770   C771    1.407   .     A
C771   O808    1.382   .     S
C772   O810    1.386   .     S
C772   C773    1.404   .     A
C772   C960    1.392   .     S
C774   N794    1.355   .     A
C774   H785    1.082   .     S
C774   C838    1.411   .     S
C775   O812    1.373   .     S
C775   N793    1.387   .     A
C775   C900    1.411   1_455 S
C776   H786    1.082   .     S
C776   N793    1.367   .     A
C776   C903    1.420   1_455 S
C777   H787    1.082   .     S
C777   N794    1.369   .     A
C777   C839    1.420   .     S
C778   O799    1.285   .     A
C778   O800    1.280   .     A
C779   O801    1.298   .     A
C779   C781    1.460   .     S
C779   O802    1.294   .     A
C782   C783    1.390   .     A
C782   O816    1.378   .     S
C783   C217    1.389   1_556 S
C783   H224    1.083   1_556 S
C784   H790    1.077   .     S
N793   Zn803   2.018   .     S
N794   Zn804   2.018   .     S
O795   Zn803   1.985   .     S
O796   Zn804   1.991   .     S
O797   Zn803   1.974   .     S
O798   Zn804   1.944   .     S
O799   Zn803   1.991   .     S
O800   Zn804   1.985   .     S
O801   Zn803   1.944   .     S
O802   Zn804   1.974   .     S
O805   H806    0.988   .     S
O808   H809    0.988   .     S
O810   H811    0.990   .     S
O812   H813    0.979   .     S
O814   H815    0.990   .     S
O814   C213    1.380   1_556 S
O816   H817    0.988   .     S
O818   H819    0.988   .     S
C820   C836    1.412   .     S
C820   O858    1.281   .     A
C820   O859    1.285   .     A
C821   C822    1.407   .     A
C821   C256    1.420   1_556 S
C821   C280    1.418   1_556 S
C822   C829    1.419   .     A
C822   C826    1.413   .     A
C823   C827    1.383   .     A
C824   C825    1.395   .     A
C824   C256    1.418   1_556 S
C824   C276    1.417   1_556 S
C825   C826    1.384   .     A
C825   H851    1.083   .     S
C826   H855    1.081   .     S
C827   H852    1.073   .     S
C827   C844    1.392   .     A
C828   C843    1.398   .     A
C828   C844    1.416   .     A
C828   O868    1.380   .     S
C829   C845    1.417   .     A
C829   C831    1.481   .     S
C830   O881    1.382   .     S
C830   C836    1.409   .     A
C830   C1021   1.371   .     S
C831   O861    1.297   .     A
C831   O860    1.304   .     A
C832   C833    1.390   .     A
C832   H870    1.085   .     S
C833   C841    1.409   .     S
C833   C834    1.407   .     A
C834   O871    1.382   .     S
C835   O873    1.386   .     S
C835   C836    1.404   .     A
C835   C1023   1.392   .     S
C837   N857    1.355   .     A
C837   H848    1.082   .     S
C837   C901    1.411   .     S
C838   O875    1.373   .     S
C838   N856    1.387   .     A
C839   H849    1.082   .     S
C839   N856    1.367   .     A
C840   H850    1.082   .     S
C840   N857    1.369   .     A
C840   C902    1.420   .     S
C841   O862    1.285   .     A
C841   O863    1.280   .     A
C842   O864    1.298   .     A
C842   C844    1.460   .     S
C842   O865    1.294   .     A
C845   C846    1.390   .     A
C845   O879    1.378   .     S
C846   C280    1.389   1_556 S
C846   H287    1.083   1_556 S
C847   H853    1.077   .     S
N856   Zn866   2.018   .     S
N857   Zn867   2.018   .     S
O858   Zn866   1.985   .     S
O859   Zn867   1.991   .     S
O860   Zn866   1.974   .     S
O861   Zn867   1.944   .     S
O862   Zn866   1.991   .     S
O863   Zn867   1.985   .     S
O864   Zn866   1.944   .     S
O865   Zn867   1.974   .     S
O868   H869    0.988   .     S
O871   H872    0.988   .     S
O873   H874    0.990   .     S
O875   H876    0.979   .     S
O877   H878    0.990   .     S
O877   C276    1.380   1_556 S
O879   H880    0.988   .     S
O881   H882    0.988   .     S
C883   C899    1.412   .     S
C883   O921    1.281   .     A
C883   O922    1.285   .     A
C884   C885    1.407   .     A
C884   C319    1.420   1_556 S
C884   C343    1.418   1_556 S
C885   C892    1.419   .     A
C885   C889    1.413   .     A
C886   C890    1.383   .     A
C887   C888    1.395   .     A
C887   C319    1.418   1_556 S
C887   C339    1.417   1_556 S
C888   C889    1.384   .     A
C888   H914    1.083   .     S
C889   H918    1.081   .     S
C890   H915    1.073   .     S
C890   C907    1.392   .     A
C891   C906    1.398   .     A
C891   C907    1.416   .     A
C891   O931    1.380   .     S
C892   C908    1.417   .     A
C892   C894    1.481   .     S
C893   O944    1.382   .     S
C893   C899    1.409   .     A
C893   C1084   1.371   .     S
C894   O924    1.297   .     A
C894   O923    1.304   .     A
C895   C896    1.390   .     A
C895   H933    1.085   .     S
C896   C904    1.409   .     S
C896   C897    1.407   .     A
C897   O934    1.382   .     S
C898   O936    1.386   .     S
C898   C899    1.404   .     A
C898   C1086   1.392   .     S
C900   N920    1.355   .     A
C900   H911    1.082   .     S
C900   C775    1.411   1_655 S
C901   O938    1.373   .     S
C901   N919    1.387   .     A
C902   H912    1.082   .     S
C902   N919    1.367   .     A
C903   H913    1.082   .     S
C903   N920    1.369   .     A
C903   C776    1.420   1_655 S
C904   O925    1.285   .     A
C904   O926    1.280   .     A
C905   O927    1.298   .     A
C905   C907    1.460   .     S
C905   O928    1.294   .     A
C908   C909    1.390   .     A
C908   O942    1.378   .     S
C909   C343    1.389   1_556 S
C909   H350    1.083   1_556 S
C910   H916    1.077   .     S
N919   Zn929   2.018   .     S
N920   Zn930   2.018   .     S
O921   Zn929   1.985   .     S
O922   Zn930   1.991   .     S
O923   Zn929   1.974   .     S
O924   Zn930   1.944   .     S
O925   Zn929   1.991   .     S
O926   Zn930   1.985   .     S
O927   Zn929   1.944   .     S
O928   Zn930   1.974   .     S
O931   H932    0.988   .     S
O934   H935    0.988   .     S
O936   H937    0.990   .     S
O938   H939    0.979   .     S
O940   H941    0.990   .     S
O940   C339    1.380   1_556 S
O942   H943    0.988   .     S
O944   H945    0.988   .     S
C946   C962    1.412   .     S
C946   O984    1.281   .     A
C946   O985    1.285   .     A
C947   C948    1.407   .     A
C947   C382    1.420   1_556 S
C947   C406    1.418   1_556 S
C948   C955    1.419   .     A
C948   C952    1.413   .     A
C949   C953    1.383   .     A
C950   C951    1.395   .     A
C950   C382    1.418   1_556 S
C950   C402    1.417   1_556 S
C951   C952    1.384   .     A
C951   H977    1.083   .     S
C952   H981    1.081   .     S
C953   H978    1.073   .     S
C953   C970    1.392   .     A
C954   C969    1.398   .     A
C954   C970    1.416   .     A
C954   O994    1.380   .     S
C955   C971    1.417   .     A
C955   C957    1.481   .     S
C956   O1007   1.382   .     S
C956   C962    1.409   .     A
C956   C580    1.371   1_565 S
C957   O987    1.297   .     A
C957   O986    1.304   .     A
C958   C959    1.390   .     A
C958   H996    1.085   .     S
C959   C967    1.409   .     S
C959   C960    1.407   .     A
C960   O997    1.382   .     S
C961   O999    1.386   .     S
C961   C962    1.404   .     A
C961   C582    1.392   1_565 S
C963   N983    1.355   .     A
C963   H974    1.082   .     S
C963   C1027   1.411   .     S
C964   O1001   1.373   .     S
C964   N982    1.387   .     A
C964   C1089   1.411   1_455 S
C965   H975    1.082   .     S
C965   N982    1.367   .     A
C965   C1092   1.420   1_455 S
C966   H976    1.082   .     S
C966   N983    1.369   .     A
C966   C1028   1.420   .     S
C967   O988    1.285   .     A
C967   O989    1.280   .     A
C968   O990    1.298   .     A
C968   C970    1.460   .     S
C968   O991    1.294   .     A
C971   C972    1.390   .     A
C971   O1005   1.378   .     S
C972   C406    1.389   1_556 S
C972   H413    1.083   1_556 S
C973   H979    1.077   .     S
N982   Zn992   2.018   .     S
N983   Zn993   2.018   .     S
O984   Zn992   1.985   .     S
O985   Zn993   1.991   .     S
O986   Zn992   1.974   .     S
O987   Zn993   1.944   .     S
O988   Zn992   1.991   .     S
O989   Zn993   1.985   .     S
O990   Zn992   1.944   .     S
O991   Zn993   1.974   .     S
O994   H995    0.988   .     S
O997   H998    0.988   .     S
O999   H1000   0.990   .     S
O1001  H1002   0.979   .     S
O1003  H1004   0.990   .     S
O1003  C402    1.380   1_556 S
O1005  H1006   0.988   .     S
O1007  H1008   0.988   .     S
C1009  C1025   1.412   .     S
C1009  O1047   1.281   .     A
C1009  O1048   1.285   .     A
C1010  C1011   1.407   .     A
C1010  C445    1.420   1_556 S
C1010  C469    1.418   1_556 S
C1011  C1018   1.419   .     A
C1011  C1015   1.413   .     A
C1012  C1016   1.383   .     A
C1013  C1014   1.395   .     A
C1013  C445    1.418   1_556 S
C1013  C465    1.417   1_556 S
C1014  C1015   1.384   .     A
C1014  H1040   1.083   .     S
C1015  H1044   1.081   .     S
C1016  H1041   1.073   .     S
C1016  C1033   1.392   .     A
C1017  C1032   1.398   .     A
C1017  C1033   1.416   .     A
C1017  O1057   1.380   .     S
C1018  C1034   1.417   .     A
C1018  C1020   1.481   .     S
C1019  O1070   1.382   .     S
C1019  C1025   1.409   .     A
C1019  C643    1.371   1_565 S
C1020  O1050   1.297   .     A
C1020  O1049   1.304   .     A
C1021  C1022   1.390   .     A
C1021  H1059   1.085   .     S
C1022  C1030   1.409   .     S
C1022  C1023   1.407   .     A
C1023  O1060   1.382   .     S
C1024  O1062   1.386   .     S
C1024  C1025   1.404   .     A
C1024  C645    1.392   1_565 S
C1026  N1046   1.355   .     A
C1026  H1037   1.082   .     S
C1026  C1090   1.411   .     S
C1027  O1064   1.373   .     S
C1027  N1045   1.387   .     A
C1028  H1038   1.082   .     S
C1028  N1045   1.367   .     A
C1029  H1039   1.082   .     S
C1029  N1046   1.369   .     A
C1029  C1091   1.420   .     S
C1030  O1051   1.285   .     A
C1030  O1052   1.280   .     A
C1031  O1053   1.298   .     A
C1031  C1033   1.460   .     S
C1031  O1054   1.294   .     A
C1034  C1035   1.390   .     A
C1034  O1068   1.378   .     S
C1035  C469    1.389   1_556 S
C1035  H476    1.083   1_556 S
C1036  H1042   1.077   .     S
N1045  Zn1055  2.018   .     S
N1046  Zn1056  2.018   .     S
O1047  Zn1055  1.985   .     S
O1048  Zn1056  1.991   .     S
O1049  Zn1055  1.974   .     S
O1050  Zn1056  1.944   .     S
O1051  Zn1055  1.991   .     S
O1052  Zn1056  1.985   .     S
O1053  Zn1055  1.944   .     S
O1054  Zn1056  1.974   .     S
O1057  H1058   0.988   .     S
O1060  H1061   0.988   .     S
O1062  H1063   0.990   .     S
O1064  H1065   0.979   .     S
O1066  H1067   0.990   .     S
O1066  C465    1.380   1_556 S
O1068  H1069   0.988   .     S
O1070  H1071   0.988   .     S
C1072  C1088   1.412   .     S
C1072  O1110   1.281   .     A
C1072  O1111   1.285   .     A
C1073  C1074   1.407   .     A
C1073  C508    1.420   1_556 S
C1073  C532    1.418   1_556 S
C1074  C1081   1.419   .     A
C1074  C1078   1.413   .     A
C1075  C1079   1.383   .     A
C1076  C1077   1.395   .     A
C1076  C508    1.418   1_556 S
C1076  C528    1.417   1_556 S
C1077  C1078   1.384   .     A
C1077  H1103   1.083   .     S
C1078  H1107   1.081   .     S
C1079  H1104   1.073   .     S
C1079  C1096   1.392   .     A
C1080  C1095   1.398   .     A
C1080  C1096   1.416   .     A
C1080  O1120   1.380   .     S
C1081  C1097   1.417   .     A
C1081  C1083   1.481   .     S
C1082  O1133   1.382   .     S
C1082  C1088   1.409   .     A
C1082  C706    1.371   1_565 S
C1083  O1113   1.297   .     A
C1083  O1112   1.304   .     A
C1084  C1085   1.390   .     A
C1084  H1122   1.085   .     S
C1085  C1093   1.409   .     S
C1085  C1086   1.407   .     A
C1086  O1123   1.382   .     S
C1087  O1125   1.386   .     S
C1087  C1088   1.404   .     A
C1087  C708    1.392   1_565 S
C1089  N1109   1.355   .     A
C1089  H1100   1.082   .     S
C1089  C964    1.411   1_655 S
C1090  O1127   1.373   .     S
C1090  N1108   1.387   .     A
C1091  H1101   1.082   .     S
C1091  N1108   1.367   .     A
C1092  H1102   1.082   .     S
C1092  N1109   1.369   .     A
C1092  C965    1.420   1_655 S
C1093  O1114   1.285   .     A
C1093  O1115   1.280   .     A
C1094  O1116   1.298   .     A
C1094  C1096   1.460   .     S
C1094  O1117   1.294   .     A
C1097  C1098   1.390   .     A
C1097  O1131   1.378   .     S
C1098  C532    1.389   1_556 S
C1098  H539    1.083   1_556 S
C1099  H1105   1.077   .     S
N1108  Zn1118  2.018   .     S
N1109  Zn1119  2.018   .     S
O1110  Zn1118  1.985   .     S
O1111  Zn1119  1.991   .     S
O1112  Zn1118  1.974   .     S
O1113  Zn1119  1.944   .     S
O1114  Zn1118  1.991   .     S
O1115  Zn1119  1.985   .     S
O1116  Zn1118  1.944   .     S
O1117  Zn1119  1.974   .     S
O1120  H1121   0.988   .     S
O1123  H1124   0.988   .     S
O1125  H1126   0.990   .     S
O1127  H1128   0.979   .     S
O1129  H1130   0.990   .     S
O1129  C528    1.380   1_556 S
O1131  H1132   0.988   .     S
O1133  H1134   0.988   .     S
