data_str_m3_o1_o18_pcu_sym.37
_audit_creation_date              2020-01-03
_audit_creation_method            'Materials Studio'
_symmetry_space_group_name_H-M    'P1'
_symmetry_Int_Tables_number       1
_symmetry_cell_setting            triclinic
loop_
_symmetry_equiv_pos_as_xyz
  x,y,z
_cell_length_a                    29.5544
_cell_length_b                    31.9939
_cell_length_c                    30.9088
_cell_angle_alpha                 90.2549
_cell_angle_beta                  68.4788
_cell_angle_gamma                 89.9347
loop_
_atom_site_label
_atom_site_type_symbol
_atom_site_fract_x
_atom_site_fract_y
_atom_site_fract_z
_atom_site_U_iso_or_equiv
_atom_site_adp_type
_atom_site_occupancy
C1     C     0.16663   0.24663   0.25010   0.00000  Uiso   1.00
C2     C     0.12494   0.31209   0.27838   0.00000  Uiso   1.00
C3     C     0.16670   0.04260   0.24995   0.00000  Uiso   1.00
C4     C     0.16663   0.29073   0.25005   0.00000  Uiso   1.00
C5     C     0.32005   0.13960   0.22223   0.00000  Uiso   1.00
C6     C     0.01329   0.19373   0.27777   0.00000  Uiso   1.00
C7     C     0.03461   0.13954   0.22230   0.00000  Uiso   1.00
C8     C     0.29872   0.19379   0.27770   0.00000  Uiso   1.00
C9     C     0.13667   0.16211   0.33760   0.00000  Uiso   1.00
C10    C     0.19666   0.17122   0.16240   0.00000  Uiso   1.00
C11    C     0.11936   0.15189   0.38744   0.00000  Uiso   1.00
C12    C     0.16671   0.08671   0.24990   0.00000  Uiso   1.00
C13    C     0.21397   0.18144   0.11256   0.00000  Uiso   1.00
C14    C     0.05835   0.13374   0.46251   0.00000  Uiso   1.00
C15    C     0.27499   0.19959   0.03749   0.00000  Uiso   1.00
C16    C     0.07079   0.14144   0.41482   0.00000  Uiso   1.00
C17    C     0.26254   0.19190   0.08518   0.00000  Uiso   1.00
C18    C     0.15424   0.15005   0.40805   0.00000  Uiso   1.00
C19    C     0.17909   0.18328   0.09195   0.00000  Uiso   1.00
C20    C     0.13969   0.15464   0.45589   0.00000  Uiso   1.00
C21    C     0.19364   0.17869   0.04411   0.00000  Uiso   1.00
C22    C     0.09288   0.14012   0.48372   0.00000  Uiso   1.00
C23    C     0.11887   0.14038   0.04956   0.00000  Uiso   1.00
C24    C     0.24045   0.19321   0.01628   0.00000  Uiso   1.00
C25    C     0.17233   0.16971   0.47612   0.00000  Uiso   1.00
C26    C     0.16100   0.16362   0.02388   0.00000  Uiso   1.00
C27    C     0.21446   0.19296   0.45044   0.00000  Uiso   1.00
C28    C     0.08416   0.12994   0.03042   0.00000  Uiso   1.00
C29    C     0.24917   0.20339   0.46958   0.00000  Uiso   1.00
C30    C     0.20837   0.31168   0.22170   0.00000  Uiso   1.00
C31    C     0.12496   0.02166   0.27830   0.00000  Uiso   1.00
C32    C     0.20839   0.02124   0.22162   0.00000  Uiso   1.00
F33    F     0.01214   0.12191   0.48762   0.00000  Uiso   1.00
F34    F     0.02516   0.22068   0.30578   0.00000  Uiso   1.00
F35    F     0.06790   0.11227   0.19459   0.00000  Uiso   1.00
F36    F     0.26544   0.22106   0.30541   0.00000  Uiso   1.00
F37    F     0.32119   0.21143   0.01238   0.00000  Uiso   1.00
F38    F     0.11235   0.12587   0.09268   0.00000  Uiso   1.00
F39    F     0.22098   0.20747   0.40732   0.00000  Uiso   1.00
F40    F     0.24829   0.29062   0.19339   0.00000  Uiso   1.00
F41    F     0.08504   0.04271   0.30661   0.00000  Uiso   1.00
F42    F     0.24825   0.04187   0.19310   0.00000  Uiso   1.00
F43    F     0.08508   0.29146   0.30690   0.00000  Uiso   1.00
F44    F     0.30817   0.11265   0.19422   0.00000  Uiso   1.00
I45    I     0.02488   0.09202   0.07225   0.00000  Uiso   1.00
I46    I     0.30845   0.24131   0.42775   0.00000  Uiso   1.00
I47    I     0.11317   0.21866   0.12512   0.00000  Uiso   1.00
I48    I     0.22016   0.11467   0.37488   0.00000  Uiso   1.00
I49    I     0.31635   0.20582   0.11375   0.00000  Uiso   1.00
I50    I     0.01699   0.12751   0.38625   0.00000  Uiso   1.00
N51    N     0.04759   0.16668   0.25001   0.00000  Uiso   1.00
N52    N     0.28574   0.16666   0.24999   0.00000  Uiso   1.00
O53    O     0.12846   0.22775   0.25001   0.00000  Uiso   1.00
O54    O     0.20488   0.10558   0.25000   0.00000  Uiso   1.00
O55    O     0.20490   0.22774   0.25000   0.00000  Uiso   1.00
O56    O     0.12843   0.10559   0.25000   0.00000  Uiso   1.00
O57    O     0.10661   0.16667   0.31613   0.00000  Uiso   1.00
O58    O     0.22672   0.16666   0.18388   0.00000  Uiso   1.00
O59    O     0.18305   0.16666   0.31612   0.00000  Uiso   1.00
O60    O     0.15028   0.16667   0.18388   0.00000  Uiso   1.00
Zn61   Zn    0.11562   0.16667   0.25000   0.00000  Uiso   1.00
Zn62   Zn    0.21771   0.16666   0.25000   0.00000  Uiso   1.00
C63    C     0.49996   0.24663   0.25010   0.00000  Uiso   1.00
C64    C     0.45828   0.31209   0.27838   0.00000  Uiso   1.00
C65    C     0.50003   0.04260   0.24995   0.00000  Uiso   1.00
C66    C     0.49997   0.29073   0.25005   0.00000  Uiso   1.00
C67    C     0.65338   0.13960   0.22223   0.00000  Uiso   1.00
C68    C     0.34662   0.19373   0.27777   0.00000  Uiso   1.00
C69    C     0.36795   0.13954   0.22230   0.00000  Uiso   1.00
C70    C     0.63205   0.19379   0.27770   0.00000  Uiso   1.00
C71    C     0.47001   0.16211   0.33760   0.00000  Uiso   1.00
C72    C     0.52999   0.17122   0.16240   0.00000  Uiso   1.00
C73    C     0.45269   0.15189   0.38744   0.00000  Uiso   1.00
C74    C     0.50004   0.08671   0.24990   0.00000  Uiso   1.00
C75    C     0.54731   0.18144   0.11256   0.00000  Uiso   1.00
C76    C     0.39168   0.13374   0.46251   0.00000  Uiso   1.00
C77    C     0.60832   0.19959   0.03749   0.00000  Uiso   1.00
C78    C     0.40413   0.14144   0.41482   0.00000  Uiso   1.00
C79    C     0.59587   0.19190   0.08518   0.00000  Uiso   1.00
C80    C     0.48758   0.15005   0.40805   0.00000  Uiso   1.00
C81    C     0.51242   0.18328   0.09195   0.00000  Uiso   1.00
C82    C     0.47302   0.15464   0.45589   0.00000  Uiso   1.00
C83    C     0.52697   0.17869   0.04411   0.00000  Uiso   1.00
C84    C     0.42621   0.14012   0.48372   0.00000  Uiso   1.00
C85    C     0.45221   0.14038   0.04956   0.00000  Uiso   1.00
C86    C     0.57379   0.19321   0.01628   0.00000  Uiso   1.00
C87    C     0.50567   0.16971   0.47612   0.00000  Uiso   1.00
C88    C     0.49433   0.16362   0.02388   0.00000  Uiso   1.00
C89    C     0.54779   0.19296   0.45044   0.00000  Uiso   1.00
C90    C     0.41749   0.12994   0.03042   0.00000  Uiso   1.00
C91    C     0.58251   0.20339   0.46958   0.00000  Uiso   1.00
C92    C     0.54170   0.31168   0.22170   0.00000  Uiso   1.00
C93    C     0.45830   0.02166   0.27830   0.00000  Uiso   1.00
C94    C     0.54172   0.02124   0.22162   0.00000  Uiso   1.00
F95    F     0.34547   0.12191   0.48762   0.00000  Uiso   1.00
F96    F     0.35850   0.22068   0.30578   0.00000  Uiso   1.00
F97    F     0.40123   0.11227   0.19459   0.00000  Uiso   1.00
F98    F     0.59877   0.22106   0.30541   0.00000  Uiso   1.00
F99    F     0.65453   0.21143   0.01238   0.00000  Uiso   1.00
F100   F     0.44568   0.12587   0.09268   0.00000  Uiso   1.00
F101   F     0.55432   0.20747   0.40732   0.00000  Uiso   1.00
F102   F     0.58163   0.29062   0.19339   0.00000  Uiso   1.00
F103   F     0.41837   0.04271   0.30661   0.00000  Uiso   1.00
F104   F     0.58159   0.04187   0.19310   0.00000  Uiso   1.00
F105   F     0.41841   0.29146   0.30690   0.00000  Uiso   1.00
F106   F     0.64150   0.11265   0.19422   0.00000  Uiso   1.00
I107   I     0.35821   0.09202   0.07225   0.00000  Uiso   1.00
I108   I     0.64179   0.24131   0.42775   0.00000  Uiso   1.00
I109   I     0.44651   0.21866   0.12512   0.00000  Uiso   1.00
I110   I     0.55349   0.11467   0.37488   0.00000  Uiso   1.00
I111   I     0.64968   0.20582   0.11375   0.00000  Uiso   1.00
I112   I     0.35032   0.12751   0.38625   0.00000  Uiso   1.00
N113   N     0.38093   0.16668   0.25001   0.00000  Uiso   1.00
N114   N     0.61907   0.16666   0.24999   0.00000  Uiso   1.00
O115   O     0.46179   0.22775   0.25001   0.00000  Uiso   1.00
O116   O     0.53821   0.10558   0.25000   0.00000  Uiso   1.00
O117   O     0.53823   0.22774   0.25000   0.00000  Uiso   1.00
O118   O     0.46177   0.10559   0.25000   0.00000  Uiso   1.00
O119   O     0.43994   0.16667   0.31613   0.00000  Uiso   1.00
O120   O     0.56006   0.16666   0.18388   0.00000  Uiso   1.00
O121   O     0.51639   0.16666   0.31612   0.00000  Uiso   1.00
O122   O     0.48361   0.16667   0.18388   0.00000  Uiso   1.00
Zn123  Zn    0.44896   0.16667   0.25000   0.00000  Uiso   1.00
Zn124  Zn    0.55104   0.16666   0.25000   0.00000  Uiso   1.00
C125   C     0.83329   0.24663   0.25010   0.00000  Uiso   1.00
C126   C     0.79161   0.31209   0.27838   0.00000  Uiso   1.00
C127   C     0.83337   0.04260   0.24995   0.00000  Uiso   1.00
C128   C     0.83330   0.29073   0.25005   0.00000  Uiso   1.00
C129   C     0.98671   0.13960   0.22223   0.00000  Uiso   1.00
C130   C     0.67995   0.19373   0.27777   0.00000  Uiso   1.00
C131   C     0.70128   0.13954   0.22230   0.00000  Uiso   1.00
C132   C     0.96539   0.19379   0.27770   0.00000  Uiso   1.00
C133   C     0.80334   0.16211   0.33760   0.00000  Uiso   1.00
C134   C     0.86333   0.17122   0.16240   0.00000  Uiso   1.00
C135   C     0.78602   0.15189   0.38744   0.00000  Uiso   1.00
C136   C     0.83337   0.08671   0.24990   0.00000  Uiso   1.00
C137   C     0.88064   0.18144   0.11256   0.00000  Uiso   1.00
C138   C     0.72501   0.13374   0.46251   0.00000  Uiso   1.00
C139   C     0.94165   0.19959   0.03749   0.00000  Uiso   1.00
C140   C     0.73746   0.14144   0.41482   0.00000  Uiso   1.00
C141   C     0.92921   0.19190   0.08518   0.00000  Uiso   1.00
C142   C     0.82091   0.15005   0.40805   0.00000  Uiso   1.00
C143   C     0.84576   0.18328   0.09195   0.00000  Uiso   1.00
C144   C     0.80636   0.15464   0.45589   0.00000  Uiso   1.00
C145   C     0.86031   0.17869   0.04411   0.00000  Uiso   1.00
C146   C     0.75954   0.14012   0.48372   0.00000  Uiso   1.00
C147   C     0.78554   0.14038   0.04956   0.00000  Uiso   1.00
C148   C     0.90712   0.19321   0.01628   0.00000  Uiso   1.00
C149   C     0.83900   0.16971   0.47612   0.00000  Uiso   1.00
C150   C     0.82767   0.16362   0.02388   0.00000  Uiso   1.00
C151   C     0.88113   0.19296   0.45044   0.00000  Uiso   1.00
C152   C     0.75083   0.12994   0.03042   0.00000  Uiso   1.00
C153   C     0.91584   0.20339   0.46958   0.00000  Uiso   1.00
C154   C     0.87504   0.31168   0.22170   0.00000  Uiso   1.00
C155   C     0.79163   0.02166   0.27830   0.00000  Uiso   1.00
C156   C     0.87506   0.02124   0.22162   0.00000  Uiso   1.00
F157   F     0.67880   0.12191   0.48762   0.00000  Uiso   1.00
F158   F     0.69183   0.22068   0.30578   0.00000  Uiso   1.00
F159   F     0.73456   0.11227   0.19459   0.00000  Uiso   1.00
F160   F     0.93210   0.22106   0.30541   0.00000  Uiso   1.00
F161   F     0.98786   0.21143   0.01238   0.00000  Uiso   1.00
F162   F     0.77902   0.12587   0.09268   0.00000  Uiso   1.00
F163   F     0.88765   0.20747   0.40732   0.00000  Uiso   1.00
F164   F     0.91496   0.29062   0.19339   0.00000  Uiso   1.00
F165   F     0.75171   0.04271   0.30661   0.00000  Uiso   1.00
F166   F     0.91492   0.04187   0.19310   0.00000  Uiso   1.00
F167   F     0.75175   0.29146   0.30690   0.00000  Uiso   1.00
F168   F     0.97484   0.11265   0.19422   0.00000  Uiso   1.00
I169   I     0.69155   0.09202   0.07225   0.00000  Uiso   1.00
I170   I     0.97512   0.24131   0.42775   0.00000  Uiso   1.00
I171   I     0.77984   0.21866   0.12512   0.00000  Uiso   1.00
I172   I     0.88683   0.11467   0.37488   0.00000  Uiso   1.00
I173   I     0.98301   0.20582   0.11375   0.00000  Uiso   1.00
I174   I     0.68365   0.12751   0.38625   0.00000  Uiso   1.00
N175   N     0.71426   0.16668   0.25001   0.00000  Uiso   1.00
N176   N     0.95241   0.16666   0.24999   0.00000  Uiso   1.00
O177   O     0.79512   0.22775   0.25001   0.00000  Uiso   1.00
O178   O     0.87154   0.10558   0.25000   0.00000  Uiso   1.00
O179   O     0.87157   0.22774   0.25000   0.00000  Uiso   1.00
O180   O     0.79510   0.10559   0.25000   0.00000  Uiso   1.00
O181   O     0.77328   0.16667   0.31613   0.00000  Uiso   1.00
O182   O     0.89339   0.16666   0.18388   0.00000  Uiso   1.00
O183   O     0.84972   0.16666   0.31612   0.00000  Uiso   1.00
O184   O     0.81695   0.16667   0.18388   0.00000  Uiso   1.00
Zn185  Zn    0.78229   0.16667   0.25000   0.00000  Uiso   1.00
Zn186  Zn    0.88438   0.16666   0.25000   0.00000  Uiso   1.00
C187   C     0.16663   0.57996   0.25010   0.00000  Uiso   1.00
C188   C     0.12494   0.64542   0.27838   0.00000  Uiso   1.00
C189   C     0.16670   0.37594   0.24995   0.00000  Uiso   1.00
C190   C     0.16663   0.62406   0.25005   0.00000  Uiso   1.00
C191   C     0.32005   0.47294   0.22223   0.00000  Uiso   1.00
C192   C     0.01329   0.52706   0.27777   0.00000  Uiso   1.00
C193   C     0.03461   0.47288   0.22230   0.00000  Uiso   1.00
C194   C     0.29872   0.52712   0.27770   0.00000  Uiso   1.00
C195   C     0.13667   0.49544   0.33760   0.00000  Uiso   1.00
C196   C     0.19666   0.50456   0.16240   0.00000  Uiso   1.00
C197   C     0.11936   0.48523   0.38744   0.00000  Uiso   1.00
C198   C     0.16671   0.42004   0.24990   0.00000  Uiso   1.00
C199   C     0.21397   0.51477   0.11256   0.00000  Uiso   1.00
C200   C     0.05835   0.46707   0.46251   0.00000  Uiso   1.00
C201   C     0.27499   0.53293   0.03749   0.00000  Uiso   1.00
C202   C     0.07079   0.47477   0.41482   0.00000  Uiso   1.00
C203   C     0.26254   0.52523   0.08518   0.00000  Uiso   1.00
C204   C     0.15424   0.48339   0.40805   0.00000  Uiso   1.00
C205   C     0.17909   0.51661   0.09195   0.00000  Uiso   1.00
C206   C     0.13969   0.48797   0.45589   0.00000  Uiso   1.00
C207   C     0.19364   0.51203   0.04411   0.00000  Uiso   1.00
C208   C     0.09288   0.47346   0.48372   0.00000  Uiso   1.00
C209   C     0.11887   0.47371   0.04956   0.00000  Uiso   1.00
C210   C     0.24045   0.52654   0.01628   0.00000  Uiso   1.00
C211   C     0.17233   0.50304   0.47612   0.00000  Uiso   1.00
C212   C     0.16100   0.49696   0.02388   0.00000  Uiso   1.00
C213   C     0.21446   0.52629   0.45044   0.00000  Uiso   1.00
C214   C     0.08416   0.46327   0.03042   0.00000  Uiso   1.00
C215   C     0.24917   0.53673   0.46958   0.00000  Uiso   1.00
C216   C     0.20837   0.64501   0.22170   0.00000  Uiso   1.00
C217   C     0.12496   0.35499   0.27830   0.00000  Uiso   1.00
C218   C     0.20839   0.35458   0.22162   0.00000  Uiso   1.00
F219   F     0.01214   0.45524   0.48762   0.00000  Uiso   1.00
F220   F     0.02516   0.55402   0.30578   0.00000  Uiso   1.00
F221   F     0.06790   0.44560   0.19459   0.00000  Uiso   1.00
F222   F     0.26544   0.55440   0.30541   0.00000  Uiso   1.00
F223   F     0.32119   0.54476   0.01238   0.00000  Uiso   1.00
F224   F     0.11235   0.45920   0.09268   0.00000  Uiso   1.00
F225   F     0.22098   0.54080   0.40732   0.00000  Uiso   1.00
F226   F     0.24829   0.62396   0.19339   0.00000  Uiso   1.00
F227   F     0.08504   0.37604   0.30661   0.00000  Uiso   1.00
F228   F     0.24825   0.37521   0.19310   0.00000  Uiso   1.00
F229   F     0.08508   0.62479   0.30690   0.00000  Uiso   1.00
F230   F     0.30817   0.44598   0.19422   0.00000  Uiso   1.00
I231   I     0.02488   0.42535   0.07225   0.00000  Uiso   1.00
I232   I     0.30845   0.57465   0.42775   0.00000  Uiso   1.00
I233   I     0.11317   0.55200   0.12512   0.00000  Uiso   1.00
I234   I     0.22016   0.44800   0.37488   0.00000  Uiso   1.00
I235   I     0.31635   0.53915   0.11375   0.00000  Uiso   1.00
I236   I     0.01699   0.46085   0.38625   0.00000  Uiso   1.00
N237   N     0.04759   0.50001   0.25001   0.00000  Uiso   1.00
N238   N     0.28574   0.49999   0.24999   0.00000  Uiso   1.00
O239   O     0.12846   0.56108   0.25001   0.00000  Uiso   1.00
O240   O     0.20488   0.43892   0.25000   0.00000  Uiso   1.00
O241   O     0.20490   0.56107   0.25000   0.00000  Uiso   1.00
O242   O     0.12843   0.43893   0.25000   0.00000  Uiso   1.00
O243   O     0.10661   0.50001   0.31613   0.00000  Uiso   1.00
O244   O     0.22672   0.49999   0.18388   0.00000  Uiso   1.00
O245   O     0.18305   0.50000   0.31612   0.00000  Uiso   1.00
O246   O     0.15028   0.50000   0.18388   0.00000  Uiso   1.00
Zn247  Zn    0.11562   0.50001   0.25000   0.00000  Uiso   1.00
Zn248  Zn    0.21771   0.49999   0.25000   0.00000  Uiso   1.00
C249   C     0.49996   0.57996   0.25010   0.00000  Uiso   1.00
C250   C     0.45828   0.64542   0.27838   0.00000  Uiso   1.00
C251   C     0.50003   0.37594   0.24995   0.00000  Uiso   1.00
C252   C     0.49997   0.62406   0.25005   0.00000  Uiso   1.00
C253   C     0.65338   0.47294   0.22223   0.00000  Uiso   1.00
C254   C     0.34662   0.52706   0.27777   0.00000  Uiso   1.00
C255   C     0.36795   0.47288   0.22230   0.00000  Uiso   1.00
C256   C     0.63205   0.52712   0.27770   0.00000  Uiso   1.00
C257   C     0.47001   0.49544   0.33760   0.00000  Uiso   1.00
C258   C     0.52999   0.50456   0.16240   0.00000  Uiso   1.00
C259   C     0.45269   0.48523   0.38744   0.00000  Uiso   1.00
C260   C     0.50004   0.42004   0.24990   0.00000  Uiso   1.00
C261   C     0.54731   0.51477   0.11256   0.00000  Uiso   1.00
C262   C     0.39168   0.46707   0.46251   0.00000  Uiso   1.00
C263   C     0.60832   0.53293   0.03749   0.00000  Uiso   1.00
C264   C     0.40413   0.47477   0.41482   0.00000  Uiso   1.00
C265   C     0.59587   0.52523   0.08518   0.00000  Uiso   1.00
C266   C     0.48758   0.48339   0.40805   0.00000  Uiso   1.00
C267   C     0.51242   0.51661   0.09195   0.00000  Uiso   1.00
C268   C     0.47302   0.48797   0.45589   0.00000  Uiso   1.00
C269   C     0.52697   0.51203   0.04411   0.00000  Uiso   1.00
C270   C     0.42621   0.47346   0.48372   0.00000  Uiso   1.00
C271   C     0.45221   0.47371   0.04956   0.00000  Uiso   1.00
C272   C     0.57379   0.52654   0.01628   0.00000  Uiso   1.00
C273   C     0.50567   0.50304   0.47612   0.00000  Uiso   1.00
C274   C     0.49433   0.49696   0.02388   0.00000  Uiso   1.00
C275   C     0.54779   0.52629   0.45044   0.00000  Uiso   1.00
C276   C     0.41749   0.46327   0.03042   0.00000  Uiso   1.00
C277   C     0.58251   0.53673   0.46958   0.00000  Uiso   1.00
C278   C     0.54170   0.64501   0.22170   0.00000  Uiso   1.00
C279   C     0.45830   0.35499   0.27830   0.00000  Uiso   1.00
C280   C     0.54172   0.35458   0.22162   0.00000  Uiso   1.00
F281   F     0.34547   0.45524   0.48762   0.00000  Uiso   1.00
F282   F     0.35850   0.55402   0.30578   0.00000  Uiso   1.00
F283   F     0.40123   0.44560   0.19459   0.00000  Uiso   1.00
F284   F     0.59877   0.55440   0.30541   0.00000  Uiso   1.00
F285   F     0.65453   0.54476   0.01238   0.00000  Uiso   1.00
F286   F     0.44568   0.45920   0.09268   0.00000  Uiso   1.00
F287   F     0.55432   0.54080   0.40732   0.00000  Uiso   1.00
F288   F     0.58163   0.62396   0.19339   0.00000  Uiso   1.00
F289   F     0.41837   0.37604   0.30661   0.00000  Uiso   1.00
F290   F     0.58159   0.37521   0.19310   0.00000  Uiso   1.00
F291   F     0.41841   0.62479   0.30690   0.00000  Uiso   1.00
F292   F     0.64150   0.44598   0.19422   0.00000  Uiso   1.00
I293   I     0.35821   0.42535   0.07225   0.00000  Uiso   1.00
I294   I     0.64179   0.57465   0.42775   0.00000  Uiso   1.00
I295   I     0.44651   0.55200   0.12512   0.00000  Uiso   1.00
I296   I     0.55349   0.44800   0.37488   0.00000  Uiso   1.00
I297   I     0.64968   0.53915   0.11375   0.00000  Uiso   1.00
I298   I     0.35032   0.46085   0.38625   0.00000  Uiso   1.00
N299   N     0.38093   0.50001   0.25001   0.00000  Uiso   1.00
N300   N     0.61907   0.49999   0.24999   0.00000  Uiso   1.00
O301   O     0.46179   0.56108   0.25001   0.00000  Uiso   1.00
O302   O     0.53821   0.43892   0.25000   0.00000  Uiso   1.00
O303   O     0.53823   0.56107   0.25000   0.00000  Uiso   1.00
O304   O     0.46177   0.43893   0.25000   0.00000  Uiso   1.00
O305   O     0.43994   0.50001   0.31613   0.00000  Uiso   1.00
O306   O     0.56006   0.49999   0.18388   0.00000  Uiso   1.00
O307   O     0.51639   0.50000   0.31612   0.00000  Uiso   1.00
O308   O     0.48361   0.50000   0.18388   0.00000  Uiso   1.00
Zn309  Zn    0.44896   0.50001   0.25000   0.00000  Uiso   1.00
Zn310  Zn    0.55104   0.49999   0.25000   0.00000  Uiso   1.00
C311   C     0.83329   0.57996   0.25010   0.00000  Uiso   1.00
C312   C     0.79161   0.64542   0.27838   0.00000  Uiso   1.00
C313   C     0.83337   0.37594   0.24995   0.00000  Uiso   1.00
C314   C     0.83330   0.62406   0.25005   0.00000  Uiso   1.00
C315   C     0.98671   0.47294   0.22223   0.00000  Uiso   1.00
C316   C     0.67995   0.52706   0.27777   0.00000  Uiso   1.00
C317   C     0.70128   0.47288   0.22230   0.00000  Uiso   1.00
C318   C     0.96539   0.52712   0.27770   0.00000  Uiso   1.00
C319   C     0.80334   0.49544   0.33760   0.00000  Uiso   1.00
C320   C     0.86333   0.50456   0.16240   0.00000  Uiso   1.00
C321   C     0.78602   0.48523   0.38744   0.00000  Uiso   1.00
C322   C     0.83337   0.42004   0.24990   0.00000  Uiso   1.00
C323   C     0.88064   0.51477   0.11256   0.00000  Uiso   1.00
C324   C     0.72501   0.46707   0.46251   0.00000  Uiso   1.00
C325   C     0.94165   0.53293   0.03749   0.00000  Uiso   1.00
C326   C     0.73746   0.47477   0.41482   0.00000  Uiso   1.00
C327   C     0.92921   0.52523   0.08518   0.00000  Uiso   1.00
C328   C     0.82091   0.48339   0.40805   0.00000  Uiso   1.00
C329   C     0.84576   0.51661   0.09195   0.00000  Uiso   1.00
C330   C     0.80636   0.48797   0.45589   0.00000  Uiso   1.00
C331   C     0.86031   0.51203   0.04411   0.00000  Uiso   1.00
C332   C     0.75954   0.47346   0.48372   0.00000  Uiso   1.00
C333   C     0.78554   0.47371   0.04956   0.00000  Uiso   1.00
C334   C     0.90712   0.52654   0.01628   0.00000  Uiso   1.00
C335   C     0.83900   0.50304   0.47612   0.00000  Uiso   1.00
C336   C     0.82767   0.49696   0.02388   0.00000  Uiso   1.00
C337   C     0.88113   0.52629   0.45044   0.00000  Uiso   1.00
C338   C     0.75083   0.46327   0.03042   0.00000  Uiso   1.00
C339   C     0.91584   0.53673   0.46958   0.00000  Uiso   1.00
C340   C     0.87504   0.64501   0.22170   0.00000  Uiso   1.00
C341   C     0.79163   0.35499   0.27830   0.00000  Uiso   1.00
C342   C     0.87506   0.35458   0.22162   0.00000  Uiso   1.00
F343   F     0.67880   0.45524   0.48762   0.00000  Uiso   1.00
F344   F     0.69183   0.55402   0.30578   0.00000  Uiso   1.00
F345   F     0.73456   0.44560   0.19459   0.00000  Uiso   1.00
F346   F     0.93210   0.55440   0.30541   0.00000  Uiso   1.00
F347   F     0.98786   0.54476   0.01238   0.00000  Uiso   1.00
F348   F     0.77902   0.45920   0.09268   0.00000  Uiso   1.00
F349   F     0.88765   0.54080   0.40732   0.00000  Uiso   1.00
F350   F     0.91496   0.62396   0.19339   0.00000  Uiso   1.00
F351   F     0.75171   0.37604   0.30661   0.00000  Uiso   1.00
F352   F     0.91492   0.37521   0.19310   0.00000  Uiso   1.00
F353   F     0.75175   0.62479   0.30690   0.00000  Uiso   1.00
F354   F     0.97484   0.44598   0.19422   0.00000  Uiso   1.00
I355   I     0.69155   0.42535   0.07225   0.00000  Uiso   1.00
I356   I     0.97512   0.57465   0.42775   0.00000  Uiso   1.00
I357   I     0.77984   0.55200   0.12512   0.00000  Uiso   1.00
I358   I     0.88683   0.44800   0.37488   0.00000  Uiso   1.00
I359   I     0.98301   0.53915   0.11375   0.00000  Uiso   1.00
I360   I     0.68365   0.46085   0.38625   0.00000  Uiso   1.00
N361   N     0.71426   0.50001   0.25001   0.00000  Uiso   1.00
N362   N     0.95241   0.49999   0.24999   0.00000  Uiso   1.00
O363   O     0.79512   0.56108   0.25001   0.00000  Uiso   1.00
O364   O     0.87154   0.43892   0.25000   0.00000  Uiso   1.00
O365   O     0.87157   0.56107   0.25000   0.00000  Uiso   1.00
O366   O     0.79510   0.43893   0.25000   0.00000  Uiso   1.00
O367   O     0.77328   0.50001   0.31613   0.00000  Uiso   1.00
O368   O     0.89339   0.49999   0.18388   0.00000  Uiso   1.00
O369   O     0.84972   0.50000   0.31612   0.00000  Uiso   1.00
O370   O     0.81695   0.50000   0.18388   0.00000  Uiso   1.00
Zn371  Zn    0.78229   0.50001   0.25000   0.00000  Uiso   1.00
Zn372  Zn    0.88438   0.49999   0.25000   0.00000  Uiso   1.00
C373   C     0.16663   0.91329   0.25010   0.00000  Uiso   1.00
C374   C     0.12494   0.97875   0.27838   0.00000  Uiso   1.00
C375   C     0.16670   0.70927   0.24995   0.00000  Uiso   1.00
C376   C     0.16663   0.95740   0.25005   0.00000  Uiso   1.00
C377   C     0.32005   0.80627   0.22223   0.00000  Uiso   1.00
C378   C     0.01329   0.86040   0.27777   0.00000  Uiso   1.00
C379   C     0.03461   0.80621   0.22230   0.00000  Uiso   1.00
C380   C     0.29872   0.86046   0.27770   0.00000  Uiso   1.00
C381   C     0.13667   0.82878   0.33760   0.00000  Uiso   1.00
C382   C     0.19666   0.83789   0.16240   0.00000  Uiso   1.00
C383   C     0.11936   0.81856   0.38744   0.00000  Uiso   1.00
C384   C     0.16671   0.75337   0.24990   0.00000  Uiso   1.00
C385   C     0.21397   0.84811   0.11256   0.00000  Uiso   1.00
C386   C     0.05835   0.80041   0.46251   0.00000  Uiso   1.00
C387   C     0.27499   0.86626   0.03749   0.00000  Uiso   1.00
C388   C     0.07079   0.80810   0.41482   0.00000  Uiso   1.00
C389   C     0.26254   0.85856   0.08518   0.00000  Uiso   1.00
C390   C     0.15424   0.81672   0.40805   0.00000  Uiso   1.00
C391   C     0.17909   0.84995   0.09195   0.00000  Uiso   1.00
C392   C     0.13969   0.82131   0.45589   0.00000  Uiso   1.00
C393   C     0.19364   0.84536   0.04411   0.00000  Uiso   1.00
C394   C     0.09288   0.80679   0.48372   0.00000  Uiso   1.00
C395   C     0.11887   0.80704   0.04956   0.00000  Uiso   1.00
C396   C     0.24045   0.85988   0.01628   0.00000  Uiso   1.00
C397   C     0.17233   0.83638   0.47612   0.00000  Uiso   1.00
C398   C     0.16100   0.83029   0.02388   0.00000  Uiso   1.00
C399   C     0.21446   0.85962   0.45044   0.00000  Uiso   1.00
C400   C     0.08416   0.79661   0.03042   0.00000  Uiso   1.00
C401   C     0.24917   0.87006   0.46958   0.00000  Uiso   1.00
C402   C     0.20837   0.97834   0.22170   0.00000  Uiso   1.00
C403   C     0.12496   0.68832   0.27830   0.00000  Uiso   1.00
C404   C     0.20839   0.68791   0.22162   0.00000  Uiso   1.00
F405   F     0.01214   0.78857   0.48762   0.00000  Uiso   1.00
F406   F     0.02516   0.88735   0.30578   0.00000  Uiso   1.00
F407   F     0.06790   0.77894   0.19459   0.00000  Uiso   1.00
F408   F     0.26544   0.88773   0.30541   0.00000  Uiso   1.00
F409   F     0.32119   0.87809   0.01238   0.00000  Uiso   1.00
F410   F     0.11235   0.79253   0.09268   0.00000  Uiso   1.00
F411   F     0.22098   0.87413   0.40732   0.00000  Uiso   1.00
F412   F     0.24829   0.95729   0.19339   0.00000  Uiso   1.00
F413   F     0.08504   0.70938   0.30661   0.00000  Uiso   1.00
F414   F     0.24825   0.70854   0.19310   0.00000  Uiso   1.00
F415   F     0.08508   0.95813   0.30690   0.00000  Uiso   1.00
F416   F     0.30817   0.77932   0.19422   0.00000  Uiso   1.00
I417   I     0.02488   0.75868   0.07225   0.00000  Uiso   1.00
I418   I     0.30845   0.90798   0.42775   0.00000  Uiso   1.00
I419   I     0.11317   0.88533   0.12512   0.00000  Uiso   1.00
I420   I     0.22016   0.78134   0.37488   0.00000  Uiso   1.00
I421   I     0.31635   0.87249   0.11375   0.00000  Uiso   1.00
I422   I     0.01699   0.79418   0.38625   0.00000  Uiso   1.00
N423   N     0.04759   0.83334   0.25001   0.00000  Uiso   1.00
N424   N     0.28574   0.83332   0.24999   0.00000  Uiso   1.00
O425   O     0.12846   0.89442   0.25001   0.00000  Uiso   1.00
O426   O     0.20488   0.77225   0.25000   0.00000  Uiso   1.00
O427   O     0.20490   0.89441   0.25000   0.00000  Uiso   1.00
O428   O     0.12843   0.77226   0.25000   0.00000  Uiso   1.00
O429   O     0.10661   0.83334   0.31613   0.00000  Uiso   1.00
O430   O     0.22672   0.83333   0.18388   0.00000  Uiso   1.00
O431   O     0.18305   0.83333   0.31612   0.00000  Uiso   1.00
O432   O     0.15028   0.83334   0.18388   0.00000  Uiso   1.00
Zn433  Zn    0.11562   0.83334   0.25000   0.00000  Uiso   1.00
Zn434  Zn    0.21771   0.83333   0.25000   0.00000  Uiso   1.00
C435   C     0.49996   0.91329   0.25010   0.00000  Uiso   1.00
C436   C     0.45828   0.97875   0.27838   0.00000  Uiso   1.00
C437   C     0.50003   0.70927   0.24995   0.00000  Uiso   1.00
C438   C     0.49997   0.95740   0.25005   0.00000  Uiso   1.00
C439   C     0.65338   0.80627   0.22223   0.00000  Uiso   1.00
C440   C     0.34662   0.86040   0.27777   0.00000  Uiso   1.00
C441   C     0.36795   0.80621   0.22230   0.00000  Uiso   1.00
C442   C     0.63205   0.86046   0.27770   0.00000  Uiso   1.00
C443   C     0.47001   0.82878   0.33760   0.00000  Uiso   1.00
C444   C     0.52999   0.83789   0.16240   0.00000  Uiso   1.00
C445   C     0.45269   0.81856   0.38744   0.00000  Uiso   1.00
C446   C     0.50004   0.75337   0.24990   0.00000  Uiso   1.00
C447   C     0.54731   0.84811   0.11256   0.00000  Uiso   1.00
C448   C     0.39168   0.80041   0.46251   0.00000  Uiso   1.00
C449   C     0.60832   0.86626   0.03749   0.00000  Uiso   1.00
C450   C     0.40413   0.80810   0.41482   0.00000  Uiso   1.00
C451   C     0.59587   0.85856   0.08518   0.00000  Uiso   1.00
C452   C     0.48758   0.81672   0.40805   0.00000  Uiso   1.00
C453   C     0.51242   0.84995   0.09195   0.00000  Uiso   1.00
C454   C     0.47302   0.82131   0.45589   0.00000  Uiso   1.00
C455   C     0.52697   0.84536   0.04411   0.00000  Uiso   1.00
C456   C     0.42621   0.80679   0.48372   0.00000  Uiso   1.00
C457   C     0.45221   0.80704   0.04956   0.00000  Uiso   1.00
C458   C     0.57379   0.85988   0.01628   0.00000  Uiso   1.00
C459   C     0.50567   0.83638   0.47612   0.00000  Uiso   1.00
C460   C     0.49433   0.83029   0.02388   0.00000  Uiso   1.00
C461   C     0.54779   0.85962   0.45044   0.00000  Uiso   1.00
C462   C     0.41749   0.79661   0.03042   0.00000  Uiso   1.00
C463   C     0.58251   0.87006   0.46958   0.00000  Uiso   1.00
C464   C     0.54170   0.97834   0.22170   0.00000  Uiso   1.00
C465   C     0.45830   0.68832   0.27830   0.00000  Uiso   1.00
C466   C     0.54172   0.68791   0.22162   0.00000  Uiso   1.00
F467   F     0.34547   0.78857   0.48762   0.00000  Uiso   1.00
F468   F     0.35850   0.88735   0.30578   0.00000  Uiso   1.00
F469   F     0.40123   0.77894   0.19459   0.00000  Uiso   1.00
F470   F     0.59877   0.88773   0.30541   0.00000  Uiso   1.00
F471   F     0.65453   0.87809   0.01238   0.00000  Uiso   1.00
F472   F     0.44568   0.79253   0.09268   0.00000  Uiso   1.00
F473   F     0.55432   0.87413   0.40732   0.00000  Uiso   1.00
F474   F     0.58163   0.95729   0.19339   0.00000  Uiso   1.00
F475   F     0.41837   0.70938   0.30661   0.00000  Uiso   1.00
F476   F     0.58159   0.70854   0.19310   0.00000  Uiso   1.00
F477   F     0.41841   0.95813   0.30690   0.00000  Uiso   1.00
F478   F     0.64150   0.77932   0.19422   0.00000  Uiso   1.00
I479   I     0.35821   0.75868   0.07225   0.00000  Uiso   1.00
I480   I     0.64179   0.90798   0.42775   0.00000  Uiso   1.00
I481   I     0.44651   0.88533   0.12512   0.00000  Uiso   1.00
I482   I     0.55349   0.78134   0.37488   0.00000  Uiso   1.00
I483   I     0.64968   0.87249   0.11375   0.00000  Uiso   1.00
I484   I     0.35032   0.79418   0.38625   0.00000  Uiso   1.00
N485   N     0.38093   0.83334   0.25001   0.00000  Uiso   1.00
N486   N     0.61907   0.83332   0.24999   0.00000  Uiso   1.00
O487   O     0.46179   0.89442   0.25001   0.00000  Uiso   1.00
O488   O     0.53821   0.77225   0.25000   0.00000  Uiso   1.00
O489   O     0.53823   0.89441   0.25000   0.00000  Uiso   1.00
O490   O     0.46177   0.77226   0.25000   0.00000  Uiso   1.00
O491   O     0.43994   0.83334   0.31613   0.00000  Uiso   1.00
O492   O     0.56006   0.83333   0.18388   0.00000  Uiso   1.00
O493   O     0.51639   0.83333   0.31612   0.00000  Uiso   1.00
O494   O     0.48361   0.83334   0.18388   0.00000  Uiso   1.00
Zn495  Zn    0.44896   0.83334   0.25000   0.00000  Uiso   1.00
Zn496  Zn    0.55104   0.83333   0.25000   0.00000  Uiso   1.00
C497   C     0.83329   0.91329   0.25010   0.00000  Uiso   1.00
C498   C     0.79161   0.97875   0.27838   0.00000  Uiso   1.00
C499   C     0.83337   0.70927   0.24995   0.00000  Uiso   1.00
C500   C     0.83330   0.95740   0.25005   0.00000  Uiso   1.00
C501   C     0.98671   0.80627   0.22223   0.00000  Uiso   1.00
C502   C     0.67995   0.86040   0.27777   0.00000  Uiso   1.00
C503   C     0.70128   0.80621   0.22230   0.00000  Uiso   1.00
C504   C     0.96539   0.86046   0.27770   0.00000  Uiso   1.00
C505   C     0.80334   0.82878   0.33760   0.00000  Uiso   1.00
C506   C     0.86333   0.83789   0.16240   0.00000  Uiso   1.00
C507   C     0.78602   0.81856   0.38744   0.00000  Uiso   1.00
C508   C     0.83337   0.75337   0.24990   0.00000  Uiso   1.00
C509   C     0.88064   0.84811   0.11256   0.00000  Uiso   1.00
C510   C     0.72501   0.80041   0.46251   0.00000  Uiso   1.00
C511   C     0.94165   0.86626   0.03749   0.00000  Uiso   1.00
C512   C     0.73746   0.80810   0.41482   0.00000  Uiso   1.00
C513   C     0.92921   0.85856   0.08518   0.00000  Uiso   1.00
C514   C     0.82091   0.81672   0.40805   0.00000  Uiso   1.00
C515   C     0.84576   0.84995   0.09195   0.00000  Uiso   1.00
C516   C     0.80636   0.82131   0.45589   0.00000  Uiso   1.00
C517   C     0.86031   0.84536   0.04411   0.00000  Uiso   1.00
C518   C     0.75954   0.80679   0.48372   0.00000  Uiso   1.00
C519   C     0.78554   0.80704   0.04956   0.00000  Uiso   1.00
C520   C     0.90712   0.85988   0.01628   0.00000  Uiso   1.00
C521   C     0.83900   0.83638   0.47612   0.00000  Uiso   1.00
C522   C     0.82767   0.83029   0.02388   0.00000  Uiso   1.00
C523   C     0.88113   0.85962   0.45044   0.00000  Uiso   1.00
C524   C     0.75083   0.79661   0.03042   0.00000  Uiso   1.00
C525   C     0.91584   0.87006   0.46958   0.00000  Uiso   1.00
C526   C     0.87504   0.97834   0.22170   0.00000  Uiso   1.00
C527   C     0.79163   0.68832   0.27830   0.00000  Uiso   1.00
C528   C     0.87506   0.68791   0.22162   0.00000  Uiso   1.00
F529   F     0.67880   0.78857   0.48762   0.00000  Uiso   1.00
F530   F     0.69183   0.88735   0.30578   0.00000  Uiso   1.00
F531   F     0.73456   0.77894   0.19459   0.00000  Uiso   1.00
F532   F     0.93210   0.88773   0.30541   0.00000  Uiso   1.00
F533   F     0.98786   0.87809   0.01238   0.00000  Uiso   1.00
F534   F     0.77902   0.79253   0.09268   0.00000  Uiso   1.00
F535   F     0.88765   0.87413   0.40732   0.00000  Uiso   1.00
F536   F     0.91496   0.95729   0.19339   0.00000  Uiso   1.00
F537   F     0.75171   0.70938   0.30661   0.00000  Uiso   1.00
F538   F     0.91492   0.70854   0.19310   0.00000  Uiso   1.00
F539   F     0.75175   0.95813   0.30690   0.00000  Uiso   1.00
F540   F     0.97484   0.77932   0.19422   0.00000  Uiso   1.00
I541   I     0.69155   0.75868   0.07225   0.00000  Uiso   1.00
I542   I     0.97512   0.90798   0.42775   0.00000  Uiso   1.00
I543   I     0.77984   0.88533   0.12512   0.00000  Uiso   1.00
I544   I     0.88683   0.78134   0.37488   0.00000  Uiso   1.00
I545   I     0.98301   0.87249   0.11375   0.00000  Uiso   1.00
I546   I     0.68365   0.79418   0.38625   0.00000  Uiso   1.00
N547   N     0.71426   0.83334   0.25001   0.00000  Uiso   1.00
N548   N     0.95241   0.83332   0.24999   0.00000  Uiso   1.00
O549   O     0.79512   0.89442   0.25001   0.00000  Uiso   1.00
O550   O     0.87154   0.77225   0.25000   0.00000  Uiso   1.00
O551   O     0.87157   0.89441   0.25000   0.00000  Uiso   1.00
O552   O     0.79510   0.77226   0.25000   0.00000  Uiso   1.00
O553   O     0.77328   0.83334   0.31613   0.00000  Uiso   1.00
O554   O     0.89339   0.83333   0.18388   0.00000  Uiso   1.00
O555   O     0.84972   0.83333   0.31612   0.00000  Uiso   1.00
O556   O     0.81695   0.83334   0.18388   0.00000  Uiso   1.00
Zn557  Zn    0.78229   0.83334   0.25000   0.00000  Uiso   1.00
Zn558  Zn    0.88438   0.83333   0.25000   0.00000  Uiso   1.00
C559   C     0.16663   0.24663   0.75010   0.00000  Uiso   1.00
C560   C     0.12494   0.31209   0.77838   0.00000  Uiso   1.00
C561   C     0.16670   0.04260   0.74995   0.00000  Uiso   1.00
C562   C     0.16663   0.29073   0.75005   0.00000  Uiso   1.00
C563   C     0.32005   0.13960   0.72223   0.00000  Uiso   1.00
C564   C     0.01329   0.19373   0.77777   0.00000  Uiso   1.00
C565   C     0.03461   0.13954   0.72230   0.00000  Uiso   1.00
C566   C     0.29872   0.19379   0.77770   0.00000  Uiso   1.00
C567   C     0.13667   0.16211   0.83760   0.00000  Uiso   1.00
C568   C     0.19666   0.17122   0.66240   0.00000  Uiso   1.00
C569   C     0.11936   0.15189   0.88744   0.00000  Uiso   1.00
C570   C     0.16671   0.08671   0.74990   0.00000  Uiso   1.00
C571   C     0.21397   0.18144   0.61256   0.00000  Uiso   1.00
C572   C     0.05835   0.13374   0.96251   0.00000  Uiso   1.00
C573   C     0.27499   0.19959   0.53749   0.00000  Uiso   1.00
C574   C     0.07079   0.14144   0.91482   0.00000  Uiso   1.00
C575   C     0.26254   0.19190   0.58518   0.00000  Uiso   1.00
C576   C     0.15424   0.15005   0.90805   0.00000  Uiso   1.00
C577   C     0.17909   0.18328   0.59195   0.00000  Uiso   1.00
C578   C     0.13969   0.15464   0.95589   0.00000  Uiso   1.00
C579   C     0.19364   0.17869   0.54411   0.00000  Uiso   1.00
C580   C     0.09288   0.14012   0.98372   0.00000  Uiso   1.00
C581   C     0.11887   0.14038   0.54956   0.00000  Uiso   1.00
C582   C     0.24045   0.19321   0.51628   0.00000  Uiso   1.00
C583   C     0.17233   0.16971   0.97612   0.00000  Uiso   1.00
C584   C     0.16100   0.16362   0.52388   0.00000  Uiso   1.00
C585   C     0.21446   0.19296   0.95044   0.00000  Uiso   1.00
C586   C     0.08416   0.12994   0.53042   0.00000  Uiso   1.00
C587   C     0.24917   0.20339   0.96958   0.00000  Uiso   1.00
C588   C     0.20837   0.31168   0.72170   0.00000  Uiso   1.00
C589   C     0.12496   0.02166   0.77830   0.00000  Uiso   1.00
C590   C     0.20839   0.02124   0.72162   0.00000  Uiso   1.00
F591   F     0.01214   0.12191   0.98762   0.00000  Uiso   1.00
F592   F     0.02516   0.22068   0.80578   0.00000  Uiso   1.00
F593   F     0.06790   0.11227   0.69459   0.00000  Uiso   1.00
F594   F     0.26544   0.22106   0.80541   0.00000  Uiso   1.00
F595   F     0.32119   0.21143   0.51238   0.00000  Uiso   1.00
F596   F     0.11235   0.12587   0.59268   0.00000  Uiso   1.00
F597   F     0.22098   0.20747   0.90732   0.00000  Uiso   1.00
F598   F     0.24829   0.29062   0.69339   0.00000  Uiso   1.00
F599   F     0.08504   0.04271   0.80661   0.00000  Uiso   1.00
F600   F     0.24825   0.04187   0.69310   0.00000  Uiso   1.00
F601   F     0.08508   0.29146   0.80690   0.00000  Uiso   1.00
F602   F     0.30817   0.11265   0.69422   0.00000  Uiso   1.00
I603   I     0.02488   0.09202   0.57225   0.00000  Uiso   1.00
I604   I     0.30845   0.24131   0.92775   0.00000  Uiso   1.00
I605   I     0.11317   0.21866   0.62512   0.00000  Uiso   1.00
I606   I     0.22016   0.11467   0.87488   0.00000  Uiso   1.00
I607   I     0.31635   0.20582   0.61375   0.00000  Uiso   1.00
I608   I     0.01699   0.12751   0.88625   0.00000  Uiso   1.00
N609   N     0.04759   0.16668   0.75001   0.00000  Uiso   1.00
N610   N     0.28574   0.16666   0.74999   0.00000  Uiso   1.00
O611   O     0.12846   0.22775   0.75001   0.00000  Uiso   1.00
O612   O     0.20488   0.10558   0.75000   0.00000  Uiso   1.00
O613   O     0.20490   0.22774   0.75000   0.00000  Uiso   1.00
O614   O     0.12843   0.10559   0.75000   0.00000  Uiso   1.00
O615   O     0.10661   0.16667   0.81613   0.00000  Uiso   1.00
O616   O     0.22672   0.16666   0.68388   0.00000  Uiso   1.00
O617   O     0.18305   0.16666   0.81612   0.00000  Uiso   1.00
O618   O     0.15028   0.16667   0.68388   0.00000  Uiso   1.00
Zn619  Zn    0.11562   0.16667   0.75000   0.00000  Uiso   1.00
Zn620  Zn    0.21771   0.16666   0.75000   0.00000  Uiso   1.00
C621   C     0.49996   0.24663   0.75010   0.00000  Uiso   1.00
C622   C     0.45828   0.31209   0.77838   0.00000  Uiso   1.00
C623   C     0.50003   0.04260   0.74995   0.00000  Uiso   1.00
C624   C     0.49997   0.29073   0.75005   0.00000  Uiso   1.00
C625   C     0.65338   0.13960   0.72223   0.00000  Uiso   1.00
C626   C     0.34662   0.19373   0.77777   0.00000  Uiso   1.00
C627   C     0.36795   0.13954   0.72230   0.00000  Uiso   1.00
C628   C     0.63205   0.19379   0.77770   0.00000  Uiso   1.00
C629   C     0.47001   0.16211   0.83760   0.00000  Uiso   1.00
C630   C     0.52999   0.17122   0.66240   0.00000  Uiso   1.00
C631   C     0.45269   0.15189   0.88744   0.00000  Uiso   1.00
C632   C     0.50004   0.08671   0.74990   0.00000  Uiso   1.00
C633   C     0.54731   0.18144   0.61256   0.00000  Uiso   1.00
C634   C     0.39168   0.13374   0.96251   0.00000  Uiso   1.00
C635   C     0.60832   0.19959   0.53749   0.00000  Uiso   1.00
C636   C     0.40413   0.14144   0.91482   0.00000  Uiso   1.00
C637   C     0.59587   0.19190   0.58518   0.00000  Uiso   1.00
C638   C     0.48758   0.15005   0.90805   0.00000  Uiso   1.00
C639   C     0.51242   0.18328   0.59195   0.00000  Uiso   1.00
C640   C     0.47302   0.15464   0.95589   0.00000  Uiso   1.00
C641   C     0.52697   0.17869   0.54411   0.00000  Uiso   1.00
C642   C     0.42621   0.14012   0.98372   0.00000  Uiso   1.00
C643   C     0.45221   0.14038   0.54956   0.00000  Uiso   1.00
C644   C     0.57379   0.19321   0.51628   0.00000  Uiso   1.00
C645   C     0.50567   0.16971   0.97612   0.00000  Uiso   1.00
C646   C     0.49433   0.16362   0.52388   0.00000  Uiso   1.00
C647   C     0.54779   0.19296   0.95044   0.00000  Uiso   1.00
C648   C     0.41749   0.12994   0.53042   0.00000  Uiso   1.00
C649   C     0.58251   0.20339   0.96958   0.00000  Uiso   1.00
C650   C     0.54170   0.31168   0.72170   0.00000  Uiso   1.00
C651   C     0.45830   0.02166   0.77830   0.00000  Uiso   1.00
C652   C     0.54172   0.02124   0.72162   0.00000  Uiso   1.00
F653   F     0.34547   0.12191   0.98762   0.00000  Uiso   1.00
F654   F     0.35850   0.22068   0.80578   0.00000  Uiso   1.00
F655   F     0.40123   0.11227   0.69459   0.00000  Uiso   1.00
F656   F     0.59877   0.22106   0.80541   0.00000  Uiso   1.00
F657   F     0.65453   0.21143   0.51238   0.00000  Uiso   1.00
F658   F     0.44568   0.12587   0.59268   0.00000  Uiso   1.00
F659   F     0.55432   0.20747   0.90732   0.00000  Uiso   1.00
F660   F     0.58163   0.29062   0.69339   0.00000  Uiso   1.00
F661   F     0.41837   0.04271   0.80661   0.00000  Uiso   1.00
F662   F     0.58159   0.04187   0.69310   0.00000  Uiso   1.00
F663   F     0.41841   0.29146   0.80690   0.00000  Uiso   1.00
F664   F     0.64150   0.11265   0.69422   0.00000  Uiso   1.00
I665   I     0.35821   0.09202   0.57225   0.00000  Uiso   1.00
I666   I     0.64179   0.24131   0.92775   0.00000  Uiso   1.00
I667   I     0.44651   0.21866   0.62512   0.00000  Uiso   1.00
I668   I     0.55349   0.11467   0.87488   0.00000  Uiso   1.00
I669   I     0.64968   0.20582   0.61375   0.00000  Uiso   1.00
I670   I     0.35032   0.12751   0.88625   0.00000  Uiso   1.00
N671   N     0.38093   0.16668   0.75001   0.00000  Uiso   1.00
N672   N     0.61907   0.16666   0.74999   0.00000  Uiso   1.00
O673   O     0.46179   0.22775   0.75001   0.00000  Uiso   1.00
O674   O     0.53821   0.10558   0.75000   0.00000  Uiso   1.00
O675   O     0.53823   0.22774   0.75000   0.00000  Uiso   1.00
O676   O     0.46177   0.10559   0.75000   0.00000  Uiso   1.00
O677   O     0.43994   0.16667   0.81613   0.00000  Uiso   1.00
O678   O     0.56006   0.16666   0.68388   0.00000  Uiso   1.00
O679   O     0.51639   0.16666   0.81612   0.00000  Uiso   1.00
O680   O     0.48361   0.16667   0.68388   0.00000  Uiso   1.00
Zn681  Zn    0.44896   0.16667   0.75000   0.00000  Uiso   1.00
Zn682  Zn    0.55104   0.16666   0.75000   0.00000  Uiso   1.00
C683   C     0.83329   0.24663   0.75010   0.00000  Uiso   1.00
C684   C     0.79161   0.31209   0.77838   0.00000  Uiso   1.00
C685   C     0.83337   0.04260   0.74995   0.00000  Uiso   1.00
C686   C     0.83330   0.29073   0.75005   0.00000  Uiso   1.00
C687   C     0.98671   0.13960   0.72223   0.00000  Uiso   1.00
C688   C     0.67995   0.19373   0.77777   0.00000  Uiso   1.00
C689   C     0.70128   0.13954   0.72230   0.00000  Uiso   1.00
C690   C     0.96539   0.19379   0.77770   0.00000  Uiso   1.00
C691   C     0.80334   0.16211   0.83760   0.00000  Uiso   1.00
C692   C     0.86333   0.17122   0.66240   0.00000  Uiso   1.00
C693   C     0.78602   0.15189   0.88744   0.00000  Uiso   1.00
C694   C     0.83337   0.08671   0.74990   0.00000  Uiso   1.00
C695   C     0.88064   0.18144   0.61256   0.00000  Uiso   1.00
C696   C     0.72501   0.13374   0.96251   0.00000  Uiso   1.00
C697   C     0.94165   0.19959   0.53749   0.00000  Uiso   1.00
C698   C     0.73746   0.14144   0.91482   0.00000  Uiso   1.00
C699   C     0.92921   0.19190   0.58518   0.00000  Uiso   1.00
C700   C     0.82091   0.15005   0.90805   0.00000  Uiso   1.00
C701   C     0.84576   0.18328   0.59195   0.00000  Uiso   1.00
C702   C     0.80636   0.15464   0.95589   0.00000  Uiso   1.00
C703   C     0.86031   0.17869   0.54411   0.00000  Uiso   1.00
C704   C     0.75954   0.14012   0.98372   0.00000  Uiso   1.00
C705   C     0.78554   0.14038   0.54956   0.00000  Uiso   1.00
C706   C     0.90712   0.19321   0.51628   0.00000  Uiso   1.00
C707   C     0.83900   0.16971   0.97612   0.00000  Uiso   1.00
C708   C     0.82767   0.16362   0.52388   0.00000  Uiso   1.00
C709   C     0.88113   0.19296   0.95044   0.00000  Uiso   1.00
C710   C     0.75083   0.12994   0.53042   0.00000  Uiso   1.00
C711   C     0.91584   0.20339   0.96958   0.00000  Uiso   1.00
C712   C     0.87504   0.31168   0.72170   0.00000  Uiso   1.00
C713   C     0.79163   0.02166   0.77830   0.00000  Uiso   1.00
C714   C     0.87506   0.02124   0.72162   0.00000  Uiso   1.00
F715   F     0.67880   0.12191   0.98762   0.00000  Uiso   1.00
F716   F     0.69183   0.22068   0.80578   0.00000  Uiso   1.00
F717   F     0.73456   0.11227   0.69459   0.00000  Uiso   1.00
F718   F     0.93210   0.22106   0.80541   0.00000  Uiso   1.00
F719   F     0.98786   0.21143   0.51238   0.00000  Uiso   1.00
F720   F     0.77902   0.12587   0.59268   0.00000  Uiso   1.00
F721   F     0.88765   0.20747   0.90732   0.00000  Uiso   1.00
F722   F     0.91496   0.29062   0.69339   0.00000  Uiso   1.00
F723   F     0.75171   0.04271   0.80661   0.00000  Uiso   1.00
F724   F     0.91492   0.04187   0.69310   0.00000  Uiso   1.00
F725   F     0.75175   0.29146   0.80690   0.00000  Uiso   1.00
F726   F     0.97484   0.11265   0.69422   0.00000  Uiso   1.00
I727   I     0.69155   0.09202   0.57225   0.00000  Uiso   1.00
I728   I     0.97512   0.24131   0.92775   0.00000  Uiso   1.00
I729   I     0.77984   0.21866   0.62512   0.00000  Uiso   1.00
I730   I     0.88683   0.11467   0.87488   0.00000  Uiso   1.00
I731   I     0.98301   0.20582   0.61375   0.00000  Uiso   1.00
I732   I     0.68365   0.12751   0.88625   0.00000  Uiso   1.00
N733   N     0.71426   0.16668   0.75001   0.00000  Uiso   1.00
N734   N     0.95241   0.16666   0.74999   0.00000  Uiso   1.00
O735   O     0.79512   0.22775   0.75001   0.00000  Uiso   1.00
O736   O     0.87154   0.10558   0.75000   0.00000  Uiso   1.00
O737   O     0.87157   0.22774   0.75000   0.00000  Uiso   1.00
O738   O     0.79510   0.10559   0.75000   0.00000  Uiso   1.00
O739   O     0.77328   0.16667   0.81613   0.00000  Uiso   1.00
O740   O     0.89339   0.16666   0.68388   0.00000  Uiso   1.00
O741   O     0.84972   0.16666   0.81612   0.00000  Uiso   1.00
O742   O     0.81695   0.16667   0.68388   0.00000  Uiso   1.00
Zn743  Zn    0.78229   0.16667   0.75000   0.00000  Uiso   1.00
Zn744  Zn    0.88438   0.16666   0.75000   0.00000  Uiso   1.00
C745   C     0.16663   0.57996   0.75010   0.00000  Uiso   1.00
C746   C     0.12494   0.64542   0.77838   0.00000  Uiso   1.00
C747   C     0.16670   0.37594   0.74995   0.00000  Uiso   1.00
C748   C     0.16663   0.62406   0.75005   0.00000  Uiso   1.00
C749   C     0.32005   0.47294   0.72223   0.00000  Uiso   1.00
C750   C     0.01329   0.52706   0.77777   0.00000  Uiso   1.00
C751   C     0.03461   0.47288   0.72230   0.00000  Uiso   1.00
C752   C     0.29872   0.52712   0.77770   0.00000  Uiso   1.00
C753   C     0.13667   0.49544   0.83760   0.00000  Uiso   1.00
C754   C     0.19666   0.50456   0.66240   0.00000  Uiso   1.00
C755   C     0.11936   0.48523   0.88744   0.00000  Uiso   1.00
C756   C     0.16671   0.42004   0.74990   0.00000  Uiso   1.00
C757   C     0.21397   0.51477   0.61256   0.00000  Uiso   1.00
C758   C     0.05835   0.46707   0.96251   0.00000  Uiso   1.00
C759   C     0.27499   0.53293   0.53749   0.00000  Uiso   1.00
C760   C     0.07079   0.47477   0.91482   0.00000  Uiso   1.00
C761   C     0.26254   0.52523   0.58518   0.00000  Uiso   1.00
C762   C     0.15424   0.48339   0.90805   0.00000  Uiso   1.00
C763   C     0.17909   0.51661   0.59195   0.00000  Uiso   1.00
C764   C     0.13969   0.48797   0.95589   0.00000  Uiso   1.00
C765   C     0.19364   0.51203   0.54411   0.00000  Uiso   1.00
C766   C     0.09288   0.47346   0.98372   0.00000  Uiso   1.00
C767   C     0.11887   0.47371   0.54956   0.00000  Uiso   1.00
C768   C     0.24045   0.52654   0.51628   0.00000  Uiso   1.00
C769   C     0.17233   0.50304   0.97612   0.00000  Uiso   1.00
C770   C     0.16100   0.49696   0.52388   0.00000  Uiso   1.00
C771   C     0.21446   0.52629   0.95044   0.00000  Uiso   1.00
C772   C     0.08416   0.46327   0.53042   0.00000  Uiso   1.00
C773   C     0.24917   0.53673   0.96958   0.00000  Uiso   1.00
C774   C     0.20837   0.64501   0.72170   0.00000  Uiso   1.00
C775   C     0.12496   0.35499   0.77830   0.00000  Uiso   1.00
C776   C     0.20839   0.35458   0.72162   0.00000  Uiso   1.00
F777   F     0.01214   0.45524   0.98762   0.00000  Uiso   1.00
F778   F     0.02516   0.55402   0.80578   0.00000  Uiso   1.00
F779   F     0.06790   0.44560   0.69459   0.00000  Uiso   1.00
F780   F     0.26544   0.55440   0.80541   0.00000  Uiso   1.00
F781   F     0.32119   0.54476   0.51238   0.00000  Uiso   1.00
F782   F     0.11235   0.45920   0.59268   0.00000  Uiso   1.00
F783   F     0.22098   0.54080   0.90732   0.00000  Uiso   1.00
F784   F     0.24829   0.62396   0.69339   0.00000  Uiso   1.00
F785   F     0.08504   0.37604   0.80661   0.00000  Uiso   1.00
F786   F     0.24825   0.37521   0.69310   0.00000  Uiso   1.00
F787   F     0.08508   0.62479   0.80690   0.00000  Uiso   1.00
F788   F     0.30817   0.44598   0.69422   0.00000  Uiso   1.00
I789   I     0.02488   0.42535   0.57225   0.00000  Uiso   1.00
I790   I     0.30845   0.57465   0.92775   0.00000  Uiso   1.00
I791   I     0.11317   0.55200   0.62512   0.00000  Uiso   1.00
I792   I     0.22016   0.44800   0.87488   0.00000  Uiso   1.00
I793   I     0.31635   0.53915   0.61375   0.00000  Uiso   1.00
I794   I     0.01699   0.46085   0.88625   0.00000  Uiso   1.00
N795   N     0.04759   0.50001   0.75001   0.00000  Uiso   1.00
N796   N     0.28574   0.49999   0.74999   0.00000  Uiso   1.00
O797   O     0.12846   0.56108   0.75001   0.00000  Uiso   1.00
O798   O     0.20488   0.43892   0.75000   0.00000  Uiso   1.00
O799   O     0.20490   0.56107   0.75000   0.00000  Uiso   1.00
O800   O     0.12843   0.43893   0.75000   0.00000  Uiso   1.00
O801   O     0.10661   0.50001   0.81613   0.00000  Uiso   1.00
O802   O     0.22672   0.49999   0.68388   0.00000  Uiso   1.00
O803   O     0.18305   0.50000   0.81612   0.00000  Uiso   1.00
O804   O     0.15028   0.50000   0.68388   0.00000  Uiso   1.00
Zn805  Zn    0.11562   0.50001   0.75000   0.00000  Uiso   1.00
Zn806  Zn    0.21771   0.49999   0.75000   0.00000  Uiso   1.00
C807   C     0.49996   0.57996   0.75010   0.00000  Uiso   1.00
C808   C     0.45828   0.64542   0.77838   0.00000  Uiso   1.00
C809   C     0.50003   0.37594   0.74995   0.00000  Uiso   1.00
C810   C     0.49997   0.62406   0.75005   0.00000  Uiso   1.00
C811   C     0.65338   0.47294   0.72223   0.00000  Uiso   1.00
C812   C     0.34662   0.52706   0.77777   0.00000  Uiso   1.00
C813   C     0.36795   0.47288   0.72230   0.00000  Uiso   1.00
C814   C     0.63205   0.52712   0.77770   0.00000  Uiso   1.00
C815   C     0.47001   0.49544   0.83760   0.00000  Uiso   1.00
C816   C     0.52999   0.50456   0.66240   0.00000  Uiso   1.00
C817   C     0.45269   0.48523   0.88744   0.00000  Uiso   1.00
C818   C     0.50004   0.42004   0.74990   0.00000  Uiso   1.00
C819   C     0.54731   0.51477   0.61256   0.00000  Uiso   1.00
C820   C     0.39168   0.46707   0.96251   0.00000  Uiso   1.00
C821   C     0.60832   0.53293   0.53749   0.00000  Uiso   1.00
C822   C     0.40413   0.47477   0.91482   0.00000  Uiso   1.00
C823   C     0.59587   0.52523   0.58518   0.00000  Uiso   1.00
C824   C     0.48758   0.48339   0.90805   0.00000  Uiso   1.00
C825   C     0.51242   0.51661   0.59195   0.00000  Uiso   1.00
C826   C     0.47302   0.48797   0.95589   0.00000  Uiso   1.00
C827   C     0.52697   0.51203   0.54411   0.00000  Uiso   1.00
C828   C     0.42621   0.47346   0.98372   0.00000  Uiso   1.00
C829   C     0.45221   0.47371   0.54956   0.00000  Uiso   1.00
C830   C     0.57379   0.52654   0.51628   0.00000  Uiso   1.00
C831   C     0.50567   0.50304   0.97612   0.00000  Uiso   1.00
C832   C     0.49433   0.49696   0.52388   0.00000  Uiso   1.00
C833   C     0.54779   0.52629   0.95044   0.00000  Uiso   1.00
C834   C     0.41749   0.46327   0.53042   0.00000  Uiso   1.00
C835   C     0.58251   0.53673   0.96958   0.00000  Uiso   1.00
C836   C     0.54170   0.64501   0.72170   0.00000  Uiso   1.00
C837   C     0.45830   0.35499   0.77830   0.00000  Uiso   1.00
C838   C     0.54172   0.35458   0.72162   0.00000  Uiso   1.00
F839   F     0.34547   0.45524   0.98762   0.00000  Uiso   1.00
F840   F     0.35850   0.55402   0.80578   0.00000  Uiso   1.00
F841   F     0.40123   0.44560   0.69459   0.00000  Uiso   1.00
F842   F     0.59877   0.55440   0.80541   0.00000  Uiso   1.00
F843   F     0.65453   0.54476   0.51238   0.00000  Uiso   1.00
F844   F     0.44568   0.45920   0.59268   0.00000  Uiso   1.00
F845   F     0.55432   0.54080   0.90732   0.00000  Uiso   1.00
F846   F     0.58163   0.62396   0.69339   0.00000  Uiso   1.00
F847   F     0.41837   0.37604   0.80661   0.00000  Uiso   1.00
F848   F     0.58159   0.37521   0.69310   0.00000  Uiso   1.00
F849   F     0.41841   0.62479   0.80690   0.00000  Uiso   1.00
F850   F     0.64150   0.44598   0.69422   0.00000  Uiso   1.00
I851   I     0.35821   0.42535   0.57225   0.00000  Uiso   1.00
I852   I     0.64179   0.57465   0.92775   0.00000  Uiso   1.00
I853   I     0.44651   0.55200   0.62512   0.00000  Uiso   1.00
I854   I     0.55349   0.44800   0.87488   0.00000  Uiso   1.00
I855   I     0.64968   0.53915   0.61375   0.00000  Uiso   1.00
I856   I     0.35032   0.46085   0.88625   0.00000  Uiso   1.00
N857   N     0.38093   0.50001   0.75001   0.00000  Uiso   1.00
N858   N     0.61907   0.49999   0.74999   0.00000  Uiso   1.00
O859   O     0.46179   0.56108   0.75001   0.00000  Uiso   1.00
O860   O     0.53821   0.43892   0.75000   0.00000  Uiso   1.00
O861   O     0.53823   0.56107   0.75000   0.00000  Uiso   1.00
O862   O     0.46177   0.43893   0.75000   0.00000  Uiso   1.00
O863   O     0.43994   0.50001   0.81613   0.00000  Uiso   1.00
O864   O     0.56006   0.49999   0.68388   0.00000  Uiso   1.00
O865   O     0.51639   0.50000   0.81612   0.00000  Uiso   1.00
O866   O     0.48361   0.50000   0.68388   0.00000  Uiso   1.00
Zn867  Zn    0.44896   0.50001   0.75000   0.00000  Uiso   1.00
Zn868  Zn    0.55104   0.49999   0.75000   0.00000  Uiso   1.00
C869   C     0.83329   0.57996   0.75010   0.00000  Uiso   1.00
C870   C     0.79161   0.64542   0.77838   0.00000  Uiso   1.00
C871   C     0.83337   0.37594   0.74995   0.00000  Uiso   1.00
C872   C     0.83330   0.62406   0.75005   0.00000  Uiso   1.00
C873   C     0.98671   0.47294   0.72223   0.00000  Uiso   1.00
C874   C     0.67995   0.52706   0.77777   0.00000  Uiso   1.00
C875   C     0.70128   0.47288   0.72230   0.00000  Uiso   1.00
C876   C     0.96539   0.52712   0.77770   0.00000  Uiso   1.00
C877   C     0.80334   0.49544   0.83760   0.00000  Uiso   1.00
C878   C     0.86333   0.50456   0.66240   0.00000  Uiso   1.00
C879   C     0.78602   0.48523   0.88744   0.00000  Uiso   1.00
C880   C     0.83337   0.42004   0.74990   0.00000  Uiso   1.00
C881   C     0.88064   0.51477   0.61256   0.00000  Uiso   1.00
C882   C     0.72501   0.46707   0.96251   0.00000  Uiso   1.00
C883   C     0.94165   0.53293   0.53749   0.00000  Uiso   1.00
C884   C     0.73746   0.47477   0.91482   0.00000  Uiso   1.00
C885   C     0.92921   0.52523   0.58518   0.00000  Uiso   1.00
C886   C     0.82091   0.48339   0.90805   0.00000  Uiso   1.00
C887   C     0.84576   0.51661   0.59195   0.00000  Uiso   1.00
C888   C     0.80636   0.48797   0.95589   0.00000  Uiso   1.00
C889   C     0.86031   0.51203   0.54411   0.00000  Uiso   1.00
C890   C     0.75954   0.47346   0.98372   0.00000  Uiso   1.00
C891   C     0.78554   0.47371   0.54956   0.00000  Uiso   1.00
C892   C     0.90712   0.52654   0.51628   0.00000  Uiso   1.00
C893   C     0.83900   0.50304   0.97612   0.00000  Uiso   1.00
C894   C     0.82767   0.49696   0.52388   0.00000  Uiso   1.00
C895   C     0.88113   0.52629   0.95044   0.00000  Uiso   1.00
C896   C     0.75083   0.46327   0.53042   0.00000  Uiso   1.00
C897   C     0.91584   0.53673   0.96958   0.00000  Uiso   1.00
C898   C     0.87504   0.64501   0.72170   0.00000  Uiso   1.00
C899   C     0.79163   0.35499   0.77830   0.00000  Uiso   1.00
C900   C     0.87506   0.35458   0.72162   0.00000  Uiso   1.00
F901   F     0.67880   0.45524   0.98762   0.00000  Uiso   1.00
F902   F     0.69183   0.55402   0.80578   0.00000  Uiso   1.00
F903   F     0.73456   0.44560   0.69459   0.00000  Uiso   1.00
F904   F     0.93210   0.55440   0.80541   0.00000  Uiso   1.00
F905   F     0.98786   0.54476   0.51238   0.00000  Uiso   1.00
F906   F     0.77902   0.45920   0.59268   0.00000  Uiso   1.00
F907   F     0.88765   0.54080   0.90732   0.00000  Uiso   1.00
F908   F     0.91496   0.62396   0.69339   0.00000  Uiso   1.00
F909   F     0.75171   0.37604   0.80661   0.00000  Uiso   1.00
F910   F     0.91492   0.37521   0.69310   0.00000  Uiso   1.00
F911   F     0.75175   0.62479   0.80690   0.00000  Uiso   1.00
F912   F     0.97484   0.44598   0.69422   0.00000  Uiso   1.00
I913   I     0.69155   0.42535   0.57225   0.00000  Uiso   1.00
I914   I     0.97512   0.57465   0.92775   0.00000  Uiso   1.00
I915   I     0.77984   0.55200   0.62512   0.00000  Uiso   1.00
I916   I     0.88683   0.44800   0.87488   0.00000  Uiso   1.00
I917   I     0.98301   0.53915   0.61375   0.00000  Uiso   1.00
I918   I     0.68365   0.46085   0.88625   0.00000  Uiso   1.00
N919   N     0.71426   0.50001   0.75001   0.00000  Uiso   1.00
N920   N     0.95241   0.49999   0.74999   0.00000  Uiso   1.00
O921   O     0.79512   0.56108   0.75001   0.00000  Uiso   1.00
O922   O     0.87154   0.43892   0.75000   0.00000  Uiso   1.00
O923   O     0.87157   0.56107   0.75000   0.00000  Uiso   1.00
O924   O     0.79510   0.43893   0.75000   0.00000  Uiso   1.00
O925   O     0.77328   0.50001   0.81613   0.00000  Uiso   1.00
O926   O     0.89339   0.49999   0.68388   0.00000  Uiso   1.00
O927   O     0.84972   0.50000   0.81612   0.00000  Uiso   1.00
O928   O     0.81695   0.50000   0.68388   0.00000  Uiso   1.00
Zn929  Zn    0.78229   0.50001   0.75000   0.00000  Uiso   1.00
Zn930  Zn    0.88438   0.49999   0.75000   0.00000  Uiso   1.00
C931   C     0.16663   0.91329   0.75010   0.00000  Uiso   1.00
C932   C     0.12494   0.97875   0.77838   0.00000  Uiso   1.00
C933   C     0.16670   0.70927   0.74995   0.00000  Uiso   1.00
C934   C     0.16663   0.95740   0.75005   0.00000  Uiso   1.00
C935   C     0.32005   0.80627   0.72223   0.00000  Uiso   1.00
C936   C     0.01329   0.86040   0.77777   0.00000  Uiso   1.00
C937   C     0.03461   0.80621   0.72230   0.00000  Uiso   1.00
C938   C     0.29872   0.86046   0.77770   0.00000  Uiso   1.00
C939   C     0.13667   0.82878   0.83760   0.00000  Uiso   1.00
C940   C     0.19666   0.83789   0.66240   0.00000  Uiso   1.00
C941   C     0.11936   0.81856   0.88744   0.00000  Uiso   1.00
C942   C     0.16671   0.75337   0.74990   0.00000  Uiso   1.00
C943   C     0.21397   0.84811   0.61256   0.00000  Uiso   1.00
C944   C     0.05835   0.80041   0.96251   0.00000  Uiso   1.00
C945   C     0.27499   0.86626   0.53749   0.00000  Uiso   1.00
C946   C     0.07079   0.80810   0.91482   0.00000  Uiso   1.00
C947   C     0.26254   0.85856   0.58518   0.00000  Uiso   1.00
C948   C     0.15424   0.81672   0.90805   0.00000  Uiso   1.00
C949   C     0.17909   0.84995   0.59195   0.00000  Uiso   1.00
C950   C     0.13969   0.82131   0.95589   0.00000  Uiso   1.00
C951   C     0.19364   0.84536   0.54411   0.00000  Uiso   1.00
C952   C     0.09288   0.80679   0.98372   0.00000  Uiso   1.00
C953   C     0.11887   0.80704   0.54956   0.00000  Uiso   1.00
C954   C     0.24045   0.85988   0.51628   0.00000  Uiso   1.00
C955   C     0.17233   0.83638   0.97612   0.00000  Uiso   1.00
C956   C     0.16100   0.83029   0.52388   0.00000  Uiso   1.00
C957   C     0.21446   0.85962   0.95044   0.00000  Uiso   1.00
C958   C     0.08416   0.79661   0.53042   0.00000  Uiso   1.00
C959   C     0.24917   0.87006   0.96958   0.00000  Uiso   1.00
C960   C     0.20837   0.97834   0.72170   0.00000  Uiso   1.00
C961   C     0.12496   0.68832   0.77830   0.00000  Uiso   1.00
C962   C     0.20839   0.68791   0.72162   0.00000  Uiso   1.00
F963   F     0.01214   0.78857   0.98762   0.00000  Uiso   1.00
F964   F     0.02516   0.88735   0.80578   0.00000  Uiso   1.00
F965   F     0.06790   0.77894   0.69459   0.00000  Uiso   1.00
F966   F     0.26544   0.88773   0.80541   0.00000  Uiso   1.00
F967   F     0.32119   0.87809   0.51238   0.00000  Uiso   1.00
F968   F     0.11235   0.79253   0.59268   0.00000  Uiso   1.00
F969   F     0.22098   0.87413   0.90732   0.00000  Uiso   1.00
F970   F     0.24829   0.95729   0.69339   0.00000  Uiso   1.00
F971   F     0.08504   0.70938   0.80661   0.00000  Uiso   1.00
F972   F     0.24825   0.70854   0.69310   0.00000  Uiso   1.00
F973   F     0.08508   0.95813   0.80690   0.00000  Uiso   1.00
F974   F     0.30817   0.77932   0.69422   0.00000  Uiso   1.00
I975   I     0.02488   0.75868   0.57225   0.00000  Uiso   1.00
I976   I     0.30845   0.90798   0.92775   0.00000  Uiso   1.00
I977   I     0.11317   0.88533   0.62512   0.00000  Uiso   1.00
I978   I     0.22016   0.78134   0.87488   0.00000  Uiso   1.00
I979   I     0.31635   0.87249   0.61375   0.00000  Uiso   1.00
I980   I     0.01699   0.79418   0.88625   0.00000  Uiso   1.00
N981   N     0.04759   0.83334   0.75001   0.00000  Uiso   1.00
N982   N     0.28574   0.83332   0.74999   0.00000  Uiso   1.00
O983   O     0.12846   0.89442   0.75001   0.00000  Uiso   1.00
O984   O     0.20488   0.77225   0.75000   0.00000  Uiso   1.00
O985   O     0.20490   0.89441   0.75000   0.00000  Uiso   1.00
O986   O     0.12843   0.77226   0.75000   0.00000  Uiso   1.00
O987   O     0.10661   0.83334   0.81613   0.00000  Uiso   1.00
O988   O     0.22672   0.83333   0.68388   0.00000  Uiso   1.00
O989   O     0.18305   0.83333   0.81612   0.00000  Uiso   1.00
O990   O     0.15028   0.83334   0.68388   0.00000  Uiso   1.00
Zn991  Zn    0.11562   0.83334   0.75000   0.00000  Uiso   1.00
Zn992  Zn    0.21771   0.83333   0.75000   0.00000  Uiso   1.00
C993   C     0.49996   0.91329   0.75010   0.00000  Uiso   1.00
C994   C     0.45828   0.97875   0.77838   0.00000  Uiso   1.00
C995   C     0.50003   0.70927   0.74995   0.00000  Uiso   1.00
C996   C     0.49997   0.95740   0.75005   0.00000  Uiso   1.00
C997   C     0.65338   0.80627   0.72223   0.00000  Uiso   1.00
C998   C     0.34662   0.86040   0.77777   0.00000  Uiso   1.00
C999   C     0.36795   0.80621   0.72230   0.00000  Uiso   1.00
C1000  C     0.63205   0.86046   0.77770   0.00000  Uiso   1.00
C1001  C     0.47001   0.82878   0.83760   0.00000  Uiso   1.00
C1002  C     0.52999   0.83789   0.66240   0.00000  Uiso   1.00
C1003  C     0.45269   0.81856   0.88744   0.00000  Uiso   1.00
C1004  C     0.50004   0.75337   0.74990   0.00000  Uiso   1.00
C1005  C     0.54731   0.84811   0.61256   0.00000  Uiso   1.00
C1006  C     0.39168   0.80041   0.96251   0.00000  Uiso   1.00
C1007  C     0.60832   0.86626   0.53749   0.00000  Uiso   1.00
C1008  C     0.40413   0.80810   0.91482   0.00000  Uiso   1.00
C1009  C     0.59587   0.85856   0.58518   0.00000  Uiso   1.00
C1010  C     0.48758   0.81672   0.90805   0.00000  Uiso   1.00
C1011  C     0.51242   0.84995   0.59195   0.00000  Uiso   1.00
C1012  C     0.47302   0.82131   0.95589   0.00000  Uiso   1.00
C1013  C     0.52697   0.84536   0.54411   0.00000  Uiso   1.00
C1014  C     0.42621   0.80679   0.98372   0.00000  Uiso   1.00
C1015  C     0.45221   0.80704   0.54956   0.00000  Uiso   1.00
C1016  C     0.57379   0.85988   0.51628   0.00000  Uiso   1.00
C1017  C     0.50567   0.83638   0.97612   0.00000  Uiso   1.00
C1018  C     0.49433   0.83029   0.52388   0.00000  Uiso   1.00
C1019  C     0.54779   0.85962   0.95044   0.00000  Uiso   1.00
C1020  C     0.41749   0.79661   0.53042   0.00000  Uiso   1.00
C1021  C     0.58251   0.87006   0.96958   0.00000  Uiso   1.00
C1022  C     0.54170   0.97834   0.72170   0.00000  Uiso   1.00
C1023  C     0.45830   0.68832   0.77830   0.00000  Uiso   1.00
C1024  C     0.54172   0.68791   0.72162   0.00000  Uiso   1.00
F1025  F     0.34547   0.78857   0.98762   0.00000  Uiso   1.00
F1026  F     0.35850   0.88735   0.80578   0.00000  Uiso   1.00
F1027  F     0.40123   0.77894   0.69459   0.00000  Uiso   1.00
F1028  F     0.59877   0.88773   0.80541   0.00000  Uiso   1.00
F1029  F     0.65453   0.87809   0.51238   0.00000  Uiso   1.00
F1030  F     0.44568   0.79253   0.59268   0.00000  Uiso   1.00
F1031  F     0.55432   0.87413   0.90732   0.00000  Uiso   1.00
F1032  F     0.58163   0.95729   0.69339   0.00000  Uiso   1.00
F1033  F     0.41837   0.70938   0.80661   0.00000  Uiso   1.00
F1034  F     0.58159   0.70854   0.69310   0.00000  Uiso   1.00
F1035  F     0.41841   0.95813   0.80690   0.00000  Uiso   1.00
F1036  F     0.64150   0.77932   0.69422   0.00000  Uiso   1.00
I1037  I     0.35821   0.75868   0.57225   0.00000  Uiso   1.00
I1038  I     0.64179   0.90798   0.92775   0.00000  Uiso   1.00
I1039  I     0.44651   0.88533   0.62512   0.00000  Uiso   1.00
I1040  I     0.55349   0.78134   0.87488   0.00000  Uiso   1.00
I1041  I     0.64968   0.87249   0.61375   0.00000  Uiso   1.00
I1042  I     0.35032   0.79418   0.88625   0.00000  Uiso   1.00
N1043  N     0.38093   0.83334   0.75001   0.00000  Uiso   1.00
N1044  N     0.61907   0.83332   0.74999   0.00000  Uiso   1.00
O1045  O     0.46179   0.89442   0.75001   0.00000  Uiso   1.00
O1046  O     0.53821   0.77225   0.75000   0.00000  Uiso   1.00
O1047  O     0.53823   0.89441   0.75000   0.00000  Uiso   1.00
O1048  O     0.46177   0.77226   0.75000   0.00000  Uiso   1.00
O1049  O     0.43994   0.83334   0.81613   0.00000  Uiso   1.00
O1050  O     0.56006   0.83333   0.68388   0.00000  Uiso   1.00
O1051  O     0.51639   0.83333   0.81612   0.00000  Uiso   1.00
O1052  O     0.48361   0.83334   0.68388   0.00000  Uiso   1.00
Zn1053 Zn    0.44896   0.83334   0.75000   0.00000  Uiso   1.00
Zn1054 Zn    0.55104   0.83333   0.75000   0.00000  Uiso   1.00
C1055  C     0.83329   0.91329   0.75010   0.00000  Uiso   1.00
C1056  C     0.79161   0.97875   0.77838   0.00000  Uiso   1.00
C1057  C     0.83337   0.70927   0.74995   0.00000  Uiso   1.00
C1058  C     0.83330   0.95740   0.75005   0.00000  Uiso   1.00
C1059  C     0.98671   0.80627   0.72223   0.00000  Uiso   1.00
C1060  C     0.67995   0.86040   0.77777   0.00000  Uiso   1.00
C1061  C     0.70128   0.80621   0.72230   0.00000  Uiso   1.00
C1062  C     0.96539   0.86046   0.77770   0.00000  Uiso   1.00
C1063  C     0.80334   0.82878   0.83760   0.00000  Uiso   1.00
C1064  C     0.86333   0.83789   0.66240   0.00000  Uiso   1.00
C1065  C     0.78602   0.81856   0.88744   0.00000  Uiso   1.00
C1066  C     0.83337   0.75337   0.74990   0.00000  Uiso   1.00
C1067  C     0.88064   0.84811   0.61256   0.00000  Uiso   1.00
C1068  C     0.72501   0.80041   0.96251   0.00000  Uiso   1.00
C1069  C     0.94165   0.86626   0.53749   0.00000  Uiso   1.00
C1070  C     0.73746   0.80810   0.91482   0.00000  Uiso   1.00
C1071  C     0.92921   0.85856   0.58518   0.00000  Uiso   1.00
C1072  C     0.82091   0.81672   0.90805   0.00000  Uiso   1.00
C1073  C     0.84576   0.84995   0.59195   0.00000  Uiso   1.00
C1074  C     0.80636   0.82131   0.95589   0.00000  Uiso   1.00
C1075  C     0.86031   0.84536   0.54411   0.00000  Uiso   1.00
C1076  C     0.75954   0.80679   0.98372   0.00000  Uiso   1.00
C1077  C     0.78554   0.80704   0.54956   0.00000  Uiso   1.00
C1078  C     0.90712   0.85988   0.51628   0.00000  Uiso   1.00
C1079  C     0.83900   0.83638   0.97612   0.00000  Uiso   1.00
C1080  C     0.82767   0.83029   0.52388   0.00000  Uiso   1.00
C1081  C     0.88113   0.85962   0.95044   0.00000  Uiso   1.00
C1082  C     0.75083   0.79661   0.53042   0.00000  Uiso   1.00
C1083  C     0.91584   0.87006   0.96958   0.00000  Uiso   1.00
C1084  C     0.87504   0.97834   0.72170   0.00000  Uiso   1.00
C1085  C     0.79163   0.68832   0.77830   0.00000  Uiso   1.00
C1086  C     0.87506   0.68791   0.72162   0.00000  Uiso   1.00
F1087  F     0.67880   0.78857   0.98762   0.00000  Uiso   1.00
F1088  F     0.69183   0.88735   0.80578   0.00000  Uiso   1.00
F1089  F     0.73456   0.77894   0.69459   0.00000  Uiso   1.00
F1090  F     0.93210   0.88773   0.80541   0.00000  Uiso   1.00
F1091  F     0.98786   0.87809   0.51238   0.00000  Uiso   1.00
F1092  F     0.77902   0.79253   0.59268   0.00000  Uiso   1.00
F1093  F     0.88765   0.87413   0.90732   0.00000  Uiso   1.00
F1094  F     0.91496   0.95729   0.69339   0.00000  Uiso   1.00
F1095  F     0.75171   0.70938   0.80661   0.00000  Uiso   1.00
F1096  F     0.91492   0.70854   0.69310   0.00000  Uiso   1.00
F1097  F     0.75175   0.95813   0.80690   0.00000  Uiso   1.00
F1098  F     0.97484   0.77932   0.69422   0.00000  Uiso   1.00
I1099  I     0.69155   0.75868   0.57225   0.00000  Uiso   1.00
I1100  I     0.97512   0.90798   0.92775   0.00000  Uiso   1.00
I1101  I     0.77984   0.88533   0.62512   0.00000  Uiso   1.00
I1102  I     0.88683   0.78134   0.87488   0.00000  Uiso   1.00
I1103  I     0.98301   0.87249   0.61375   0.00000  Uiso   1.00
I1104  I     0.68365   0.79418   0.88625   0.00000  Uiso   1.00
N1105  N     0.71426   0.83334   0.75001   0.00000  Uiso   1.00
N1106  N     0.95241   0.83332   0.74999   0.00000  Uiso   1.00
O1107  O     0.79512   0.89442   0.75001   0.00000  Uiso   1.00
O1108  O     0.87154   0.77225   0.75000   0.00000  Uiso   1.00
O1109  O     0.87157   0.89441   0.75000   0.00000  Uiso   1.00
O1110  O     0.79510   0.77226   0.75000   0.00000  Uiso   1.00
O1111  O     0.77328   0.83334   0.81613   0.00000  Uiso   1.00
O1112  O     0.89339   0.83333   0.68388   0.00000  Uiso   1.00
O1113  O     0.84972   0.83333   0.81612   0.00000  Uiso   1.00
O1114  O     0.81695   0.83334   0.68388   0.00000  Uiso   1.00
Zn1115 Zn    0.78229   0.83334   0.75000   0.00000  Uiso   1.00
Zn1116 Zn    0.88438   0.83333   0.75000   0.00000  Uiso   1.00
loop_
_geom_bond_atom_site_label_1
_geom_bond_atom_site_label_2
_geom_bond_distance
_geom_bond_site_symmetry_2
_ccdc_geom_bond_type
C1     C4      1.411   .     S
C1     O55     1.281   .     A
C1     O53     1.281   .     A
C2     C4      1.397   .     A
C2     F43     1.359   .     S
C2     C217    1.373   .     S
C3     C31     1.397   .     A
C3     C32     1.397   .     A
C3     C12     1.411   .     S
C4     C30     1.397   .     A
C5     N52     1.366   .     A
C5     F44     1.354   .     S
C5     C69     1.416   .     S
C6     N51     1.366   .     A
C6     F34     1.354   .     S
C6     C132    1.416   1_455 S
C7     N51     1.367   .     A
C7     F35     1.355   .     S
C7     C129    1.416   1_455 S
C8     N52     1.367   .     A
C8     F36     1.355   .     S
C8     C68     1.416   .     S
C9     C11     1.472   .     S
C9     O57     1.298   .     A
C9     O59     1.294   .     A
C10    O60     1.294   .     A
C10    O58     1.298   .     A
C10    C13     1.472   .     S
C11    C18     1.398   .     A
C11    C16     1.414   .     A
C12    O56     1.281   .     A
C12    O54     1.281   .     A
C13    C17     1.414   .     A
C13    C19     1.398   .     A
C14    C22     1.415   .     A
C14    F33     1.355   .     S
C14    C16     1.405   .     A
C15    C24     1.415   .     A
C15    C17     1.405   .     A
C15    F37     1.355   .     S
C16    I50     2.130   .     S
C17    I49     2.130   .     S
C18    C20     1.387   .     A
C18    I48     2.156   .     S
C19    I47     2.156   .     S
C19    C21     1.387   .     A
C20    C22     1.415   .     A
C20    C25     1.412   .     A
C21    C26     1.412   .     A
C21    C24     1.415   .     A
C22    C586    1.410   .     S
C23    F38     1.359   .     S
C23    C28     1.399   .     A
C23    C26     1.420   .     A
C24    C587    1.410   1_554 S
C25    C27     1.420   .     A
C25    C584    1.403   .     S
C26    C583    1.403   1_554 S
C27    C29     1.399   .     A
C27    F39     1.359   .     S
C28    I45     2.138   .     S
C28    C580    1.410   1_554 S
C29    I46     2.138   .     S
C29    C582    1.410   .     S
C30    F40     1.359   .     S
C30    C218    1.373   .     S
C31    F41     1.359   .     S
C31    C374    1.373   1_545 S
C32    F42     1.359   .     S
C32    C402    1.373   1_545 S
N51    Zn61    2.010   .     S
N52    Zn62    2.010   .     S
O53    Zn61    1.991   .     S
O54    Zn62    1.991   .     S
O55    Zn62    1.990   .     S
O56    Zn61    1.990   .     S
O57    Zn61    1.962   .     S
O58    Zn62    1.962   .     S
O59    Zn62    1.921   .     S
O60    Zn61    1.921   .     S
C63    C66     1.411   .     S
C63    O117    1.281   .     A
C63    O115    1.281   .     A
C64    C66     1.397   .     A
C64    F105    1.359   .     S
C64    C279    1.373   .     S
C65    C93     1.397   .     A
C65    C94     1.397   .     A
C65    C74     1.411   .     S
C66    C92     1.397   .     A
C67    N114    1.366   .     A
C67    F106    1.354   .     S
C67    C131    1.416   .     S
C68    N113    1.366   .     A
C68    F96     1.354   .     S
C69    N113    1.367   .     A
C69    F97     1.355   .     S
C70    N114    1.367   .     A
C70    F98     1.355   .     S
C70    C130    1.416   .     S
C71    C73     1.472   .     S
C71    O119    1.298   .     A
C71    O121    1.294   .     A
C72    O122    1.294   .     A
C72    O120    1.298   .     A
C72    C75     1.472   .     S
C73    C80     1.398   .     A
C73    C78     1.414   .     A
C74    O118    1.281   .     A
C74    O116    1.281   .     A
C75    C79     1.414   .     A
C75    C81     1.398   .     A
C76    C84     1.415   .     A
C76    F95     1.355   .     S
C76    C78     1.405   .     A
C77    C86     1.415   .     A
C77    C79     1.405   .     A
C77    F99     1.355   .     S
C78    I112    2.130   .     S
C79    I111    2.130   .     S
C80    C82     1.387   .     A
C80    I110    2.156   .     S
C81    I109    2.156   .     S
C81    C83     1.387   .     A
C82    C84     1.415   .     A
C82    C87     1.412   .     A
C83    C88     1.412   .     A
C83    C86     1.415   .     A
C84    C648    1.410   .     S
C85    F100    1.359   .     S
C85    C90     1.399   .     A
C85    C88     1.420   .     A
C86    C649    1.410   1_554 S
C87    C89     1.420   .     A
C87    C646    1.403   .     S
C88    C645    1.403   1_554 S
C89    C91     1.399   .     A
C89    F101    1.359   .     S
C90    I107    2.138   .     S
C90    C642    1.410   1_554 S
C91    I108    2.138   .     S
C91    C644    1.410   .     S
C92    F102    1.359   .     S
C92    C280    1.373   .     S
C93    F103    1.359   .     S
C93    C436    1.373   1_545 S
C94    F104    1.359   .     S
C94    C464    1.373   1_545 S
N113   Zn123   2.010   .     S
N114   Zn124   2.010   .     S
O115   Zn123   1.991   .     S
O116   Zn124   1.991   .     S
O117   Zn124   1.990   .     S
O118   Zn123   1.990   .     S
O119   Zn123   1.962   .     S
O120   Zn124   1.962   .     S
O121   Zn124   1.921   .     S
O122   Zn123   1.921   .     S
C125   C128    1.411   .     S
C125   O179    1.281   .     A
C125   O177    1.281   .     A
C126   C128    1.397   .     A
C126   F167    1.359   .     S
C126   C341    1.373   .     S
C127   C155    1.397   .     A
C127   C156    1.397   .     A
C127   C136    1.411   .     S
C128   C154    1.397   .     A
C129   N176    1.366   .     A
C129   F168    1.354   .     S
C129   C7      1.416   1_655 S
C130   N175    1.366   .     A
C130   F158    1.354   .     S
C131   N175    1.367   .     A
C131   F159    1.355   .     S
C132   N176    1.367   .     A
C132   F160    1.355   .     S
C132   C6      1.416   1_655 S
C133   C135    1.472   .     S
C133   O181    1.298   .     A
C133   O183    1.294   .     A
C134   O184    1.294   .     A
C134   O182    1.298   .     A
C134   C137    1.472   .     S
C135   C142    1.398   .     A
C135   C140    1.414   .     A
C136   O180    1.281   .     A
C136   O178    1.281   .     A
C137   C141    1.414   .     A
C137   C143    1.398   .     A
C138   C146    1.415   .     A
C138   F157    1.355   .     S
C138   C140    1.405   .     A
C139   C148    1.415   .     A
C139   C141    1.405   .     A
C139   F161    1.355   .     S
C140   I174    2.130   .     S
C141   I173    2.130   .     S
C142   C144    1.387   .     A
C142   I172    2.156   .     S
C143   I171    2.156   .     S
C143   C145    1.387   .     A
C144   C146    1.415   .     A
C144   C149    1.412   .     A
C145   C150    1.412   .     A
C145   C148    1.415   .     A
C146   C710    1.410   .     S
C147   F162    1.359   .     S
C147   C152    1.399   .     A
C147   C150    1.420   .     A
C148   C711    1.410   1_554 S
C149   C151    1.420   .     A
C149   C708    1.403   .     S
C150   C707    1.403   1_554 S
C151   C153    1.399   .     A
C151   F163    1.359   .     S
C152   I169    2.138   .     S
C152   C704    1.410   1_554 S
C153   I170    2.138   .     S
C153   C706    1.410   .     S
C154   F164    1.359   .     S
C154   C342    1.373   .     S
C155   F165    1.359   .     S
C155   C498    1.373   1_545 S
C156   F166    1.359   .     S
C156   C526    1.373   1_545 S
N175   Zn185   2.010   .     S
N176   Zn186   2.010   .     S
O177   Zn185   1.991   .     S
O178   Zn186   1.991   .     S
O179   Zn186   1.990   .     S
O180   Zn185   1.990   .     S
O181   Zn185   1.962   .     S
O182   Zn186   1.962   .     S
O183   Zn186   1.921   .     S
O184   Zn185   1.921   .     S
C187   C190    1.411   .     S
C187   O241    1.281   .     A
C187   O239    1.281   .     A
C188   C190    1.397   .     A
C188   F229    1.359   .     S
C188   C403    1.373   .     S
C189   C217    1.397   .     A
C189   C218    1.397   .     A
C189   C198    1.411   .     S
C190   C216    1.397   .     A
C191   N238    1.366   .     A
C191   F230    1.354   .     S
C191   C255    1.416   .     S
C192   N237    1.366   .     A
C192   F220    1.354   .     S
C192   C318    1.416   1_455 S
C193   N237    1.367   .     A
C193   F221    1.355   .     S
C193   C315    1.416   1_455 S
C194   N238    1.367   .     A
C194   F222    1.355   .     S
C194   C254    1.416   .     S
C195   C197    1.472   .     S
C195   O243    1.298   .     A
C195   O245    1.294   .     A
C196   O246    1.294   .     A
C196   O244    1.298   .     A
C196   C199    1.472   .     S
C197   C204    1.398   .     A
C197   C202    1.414   .     A
C198   O242    1.281   .     A
C198   O240    1.281   .     A
C199   C203    1.414   .     A
C199   C205    1.398   .     A
C200   C208    1.415   .     A
C200   F219    1.355   .     S
C200   C202    1.405   .     A
C201   C210    1.415   .     A
C201   C203    1.405   .     A
C201   F223    1.355   .     S
C202   I236    2.130   .     S
C203   I235    2.130   .     S
C204   C206    1.387   .     A
C204   I234    2.156   .     S
C205   I233    2.156   .     S
C205   C207    1.387   .     A
C206   C208    1.415   .     A
C206   C211    1.412   .     A
C207   C212    1.412   .     A
C207   C210    1.415   .     A
C208   C772    1.410   .     S
C209   F224    1.359   .     S
C209   C214    1.399   .     A
C209   C212    1.420   .     A
C210   C773    1.410   1_554 S
C211   C213    1.420   .     A
C211   C770    1.403   .     S
C212   C769    1.403   1_554 S
C213   C215    1.399   .     A
C213   F225    1.359   .     S
C214   I231    2.138   .     S
C214   C766    1.410   1_554 S
C215   I232    2.138   .     S
C215   C768    1.410   .     S
C216   F226    1.359   .     S
C216   C404    1.373   .     S
C217   F227    1.359   .     S
C218   F228    1.359   .     S
N237   Zn247   2.010   .     S
N238   Zn248   2.010   .     S
O239   Zn247   1.991   .     S
O240   Zn248   1.991   .     S
O241   Zn248   1.990   .     S
O242   Zn247   1.990   .     S
O243   Zn247   1.962   .     S
O244   Zn248   1.962   .     S
O245   Zn248   1.921   .     S
O246   Zn247   1.921   .     S
C249   C252    1.411   .     S
C249   O303    1.281   .     A
C249   O301    1.281   .     A
C250   C252    1.397   .     A
C250   F291    1.359   .     S
C250   C465    1.373   .     S
C251   C279    1.397   .     A
C251   C280    1.397   .     A
C251   C260    1.411   .     S
C252   C278    1.397   .     A
C253   N300    1.366   .     A
C253   F292    1.354   .     S
C253   C317    1.416   .     S
C254   N299    1.366   .     A
C254   F282    1.354   .     S
C255   N299    1.367   .     A
C255   F283    1.355   .     S
C256   N300    1.367   .     A
C256   F284    1.355   .     S
C256   C316    1.416   .     S
C257   C259    1.472   .     S
C257   O305    1.298   .     A
C257   O307    1.294   .     A
C258   O308    1.294   .     A
C258   O306    1.298   .     A
C258   C261    1.472   .     S
C259   C266    1.398   .     A
C259   C264    1.414   .     A
C260   O304    1.281   .     A
C260   O302    1.281   .     A
C261   C265    1.414   .     A
C261   C267    1.398   .     A
C262   C270    1.415   .     A
C262   F281    1.355   .     S
C262   C264    1.405   .     A
C263   C272    1.415   .     A
C263   C265    1.405   .     A
C263   F285    1.355   .     S
C264   I298    2.130   .     S
C265   I297    2.130   .     S
C266   C268    1.387   .     A
C266   I296    2.156   .     S
C267   I295    2.156   .     S
C267   C269    1.387   .     A
C268   C270    1.415   .     A
C268   C273    1.412   .     A
C269   C274    1.412   .     A
C269   C272    1.415   .     A
C270   C834    1.410   .     S
C271   F286    1.359   .     S
C271   C276    1.399   .     A
C271   C274    1.420   .     A
C272   C835    1.410   1_554 S
C273   C275    1.420   .     A
C273   C832    1.403   .     S
C274   C831    1.403   1_554 S
C275   C277    1.399   .     A
C275   F287    1.359   .     S
C276   I293    2.138   .     S
C276   C828    1.410   1_554 S
C277   I294    2.138   .     S
C277   C830    1.410   .     S
C278   F288    1.359   .     S
C278   C466    1.373   .     S
C279   F289    1.359   .     S
C280   F290    1.359   .     S
N299   Zn309   2.010   .     S
N300   Zn310   2.010   .     S
O301   Zn309   1.991   .     S
O302   Zn310   1.991   .     S
O303   Zn310   1.990   .     S
O304   Zn309   1.990   .     S
O305   Zn309   1.962   .     S
O306   Zn310   1.962   .     S
O307   Zn310   1.921   .     S
O308   Zn309   1.921   .     S
C311   C314    1.411   .     S
C311   O365    1.281   .     A
C311   O363    1.281   .     A
C312   C314    1.397   .     A
C312   F353    1.359   .     S
C312   C527    1.373   .     S
C313   C341    1.397   .     A
C313   C342    1.397   .     A
C313   C322    1.411   .     S
C314   C340    1.397   .     A
C315   N362    1.366   .     A
C315   F354    1.354   .     S
C315   C193    1.416   1_655 S
C316   N361    1.366   .     A
C316   F344    1.354   .     S
C317   N361    1.367   .     A
C317   F345    1.355   .     S
C318   N362    1.367   .     A
C318   F346    1.355   .     S
C318   C192    1.416   1_655 S
C319   C321    1.472   .     S
C319   O367    1.298   .     A
C319   O369    1.294   .     A
C320   O370    1.294   .     A
C320   O368    1.298   .     A
C320   C323    1.472   .     S
C321   C328    1.398   .     A
C321   C326    1.414   .     A
C322   O366    1.281   .     A
C322   O364    1.281   .     A
C323   C327    1.414   .     A
C323   C329    1.398   .     A
C324   C332    1.415   .     A
C324   F343    1.355   .     S
C324   C326    1.405   .     A
C325   C334    1.415   .     A
C325   C327    1.405   .     A
C325   F347    1.355   .     S
C326   I360    2.130   .     S
C327   I359    2.130   .     S
C328   C330    1.387   .     A
C328   I358    2.156   .     S
C329   I357    2.156   .     S
C329   C331    1.387   .     A
C330   C332    1.415   .     A
C330   C335    1.412   .     A
C331   C336    1.412   .     A
C331   C334    1.415   .     A
C332   C896    1.410   .     S
C333   F348    1.359   .     S
C333   C338    1.399   .     A
C333   C336    1.420   .     A
C334   C897    1.410   1_554 S
C335   C337    1.420   .     A
C335   C894    1.403   .     S
C336   C893    1.403   1_554 S
C337   C339    1.399   .     A
C337   F349    1.359   .     S
C338   I355    2.138   .     S
C338   C890    1.410   1_554 S
C339   I356    2.138   .     S
C339   C892    1.410   .     S
C340   F350    1.359   .     S
C340   C528    1.373   .     S
C341   F351    1.359   .     S
C342   F352    1.359   .     S
N361   Zn371   2.010   .     S
N362   Zn372   2.010   .     S
O363   Zn371   1.991   .     S
O364   Zn372   1.991   .     S
O365   Zn372   1.990   .     S
O366   Zn371   1.990   .     S
O367   Zn371   1.962   .     S
O368   Zn372   1.962   .     S
O369   Zn372   1.921   .     S
O370   Zn371   1.921   .     S
C373   C376    1.411   .     S
C373   O427    1.281   .     A
C373   O425    1.281   .     A
C374   C376    1.397   .     A
C374   F415    1.359   .     S
C374   C31     1.373   1_565 S
C375   C403    1.397   .     A
C375   C404    1.397   .     A
C375   C384    1.411   .     S
C376   C402    1.397   .     A
C377   N424    1.366   .     A
C377   F416    1.354   .     S
C377   C441    1.416   .     S
C378   N423    1.366   .     A
C378   F406    1.354   .     S
C378   C504    1.416   1_455 S
C379   N423    1.367   .     A
C379   F407    1.355   .     S
C379   C501    1.416   1_455 S
C380   N424    1.367   .     A
C380   F408    1.355   .     S
C380   C440    1.416   .     S
C381   C383    1.472   .     S
C381   O429    1.298   .     A
C381   O431    1.294   .     A
C382   O432    1.294   .     A
C382   O430    1.298   .     A
C382   C385    1.472   .     S
C383   C390    1.398   .     A
C383   C388    1.414   .     A
C384   O428    1.281   .     A
C384   O426    1.281   .     A
C385   C389    1.414   .     A
C385   C391    1.398   .     A
C386   C394    1.415   .     A
C386   F405    1.355   .     S
C386   C388    1.405   .     A
C387   C396    1.415   .     A
C387   C389    1.405   .     A
C387   F409    1.355   .     S
C388   I422    2.130   .     S
C389   I421    2.130   .     S
C390   C392    1.387   .     A
C390   I420    2.156   .     S
C391   I419    2.156   .     S
C391   C393    1.387   .     A
C392   C394    1.415   .     A
C392   C397    1.412   .     A
C393   C398    1.412   .     A
C393   C396    1.415   .     A
C394   C958    1.410   .     S
C395   F410    1.359   .     S
C395   C400    1.399   .     A
C395   C398    1.420   .     A
C396   C959    1.410   1_554 S
C397   C399    1.420   .     A
C397   C956    1.403   .     S
C398   C955    1.403   1_554 S
C399   C401    1.399   .     A
C399   F411    1.359   .     S
C400   I417    2.138   .     S
C400   C952    1.410   1_554 S
C401   I418    2.138   .     S
C401   C954    1.410   .     S
C402   F412    1.359   .     S
C402   C32     1.373   1_565 S
C403   F413    1.359   .     S
C404   F414    1.359   .     S
N423   Zn433   2.010   .     S
N424   Zn434   2.010   .     S
O425   Zn433   1.991   .     S
O426   Zn434   1.991   .     S
O427   Zn434   1.990   .     S
O428   Zn433   1.990   .     S
O429   Zn433   1.962   .     S
O430   Zn434   1.962   .     S
O431   Zn434   1.921   .     S
O432   Zn433   1.921   .     S
C435   C438    1.411   .     S
C435   O489    1.281   .     A
C435   O487    1.281   .     A
C436   C438    1.397   .     A
C436   F477    1.359   .     S
C436   C93     1.373   1_565 S
C437   C465    1.397   .     A
C437   C466    1.397   .     A
C437   C446    1.411   .     S
C438   C464    1.397   .     A
C439   N486    1.366   .     A
C439   F478    1.354   .     S
C439   C503    1.416   .     S
C440   N485    1.366   .     A
C440   F468    1.354   .     S
C441   N485    1.367   .     A
C441   F469    1.355   .     S
C442   N486    1.367   .     A
C442   F470    1.355   .     S
C442   C502    1.416   .     S
C443   C445    1.472   .     S
C443   O491    1.298   .     A
C443   O493    1.294   .     A
C444   O494    1.294   .     A
C444   O492    1.298   .     A
C444   C447    1.472   .     S
C445   C452    1.398   .     A
C445   C450    1.414   .     A
C446   O490    1.281   .     A
C446   O488    1.281   .     A
C447   C451    1.414   .     A
C447   C453    1.398   .     A
C448   C456    1.415   .     A
C448   F467    1.355   .     S
C448   C450    1.405   .     A
C449   C458    1.415   .     A
C449   C451    1.405   .     A
C449   F471    1.355   .     S
C450   I484    2.130   .     S
C451   I483    2.130   .     S
C452   C454    1.387   .     A
C452   I482    2.156   .     S
C453   I481    2.156   .     S
C453   C455    1.387   .     A
C454   C456    1.415   .     A
C454   C459    1.412   .     A
C455   C460    1.412   .     A
C455   C458    1.415   .     A
C456   C1020   1.410   .     S
C457   F472    1.359   .     S
C457   C462    1.399   .     A
C457   C460    1.420   .     A
C458   C1021   1.410   1_554 S
C459   C461    1.420   .     A
C459   C1018   1.403   .     S
C460   C1017   1.403   1_554 S
C461   C463    1.399   .     A
C461   F473    1.359   .     S
C462   I479    2.138   .     S
C462   C1014   1.410   1_554 S
C463   I480    2.138   .     S
C463   C1016   1.410   .     S
C464   F474    1.359   .     S
C464   C94     1.373   1_565 S
C465   F475    1.359   .     S
C466   F476    1.359   .     S
N485   Zn495   2.010   .     S
N486   Zn496   2.010   .     S
O487   Zn495   1.991   .     S
O488   Zn496   1.991   .     S
O489   Zn496   1.990   .     S
O490   Zn495   1.990   .     S
O491   Zn495   1.962   .     S
O492   Zn496   1.962   .     S
O493   Zn496   1.921   .     S
O494   Zn495   1.921   .     S
C497   C500    1.411   .     S
C497   O551    1.281   .     A
C497   O549    1.281   .     A
C498   C500    1.397   .     A
C498   F539    1.359   .     S
C498   C155    1.373   1_565 S
C499   C527    1.397   .     A
C499   C528    1.397   .     A
C499   C508    1.411   .     S
C500   C526    1.397   .     A
C501   N548    1.366   .     A
C501   F540    1.354   .     S
C501   C379    1.416   1_655 S
C502   N547    1.366   .     A
C502   F530    1.354   .     S
C503   N547    1.367   .     A
C503   F531    1.355   .     S
C504   N548    1.367   .     A
C504   F532    1.355   .     S
C504   C378    1.416   1_655 S
C505   C507    1.472   .     S
C505   O553    1.298   .     A
C505   O555    1.294   .     A
C506   O556    1.294   .     A
C506   O554    1.298   .     A
C506   C509    1.472   .     S
C507   C514    1.398   .     A
C507   C512    1.414   .     A
C508   O552    1.281   .     A
C508   O550    1.281   .     A
C509   C513    1.414   .     A
C509   C515    1.398   .     A
C510   C518    1.415   .     A
C510   F529    1.355   .     S
C510   C512    1.405   .     A
C511   C520    1.415   .     A
C511   C513    1.405   .     A
C511   F533    1.355   .     S
C512   I546    2.130   .     S
C513   I545    2.130   .     S
C514   C516    1.387   .     A
C514   I544    2.156   .     S
C515   I543    2.156   .     S
C515   C517    1.387   .     A
C516   C518    1.415   .     A
C516   C521    1.412   .     A
C517   C522    1.412   .     A
C517   C520    1.415   .     A
C518   C1082   1.410   .     S
C519   F534    1.359   .     S
C519   C524    1.399   .     A
C519   C522    1.420   .     A
C520   C1083   1.410   1_554 S
C521   C523    1.420   .     A
C521   C1080   1.403   .     S
C522   C1079   1.403   1_554 S
C523   C525    1.399   .     A
C523   F535    1.359   .     S
C524   I541    2.138   .     S
C524   C1076   1.410   1_554 S
C525   I542    2.138   .     S
C525   C1078   1.410   .     S
C526   F536    1.359   .     S
C526   C156    1.373   1_565 S
C527   F537    1.359   .     S
C528   F538    1.359   .     S
N547   Zn557   2.010   .     S
N548   Zn558   2.010   .     S
O549   Zn557   1.991   .     S
O550   Zn558   1.991   .     S
O551   Zn558   1.990   .     S
O552   Zn557   1.990   .     S
O553   Zn557   1.962   .     S
O554   Zn558   1.962   .     S
O555   Zn558   1.921   .     S
O556   Zn557   1.921   .     S
C559   C562    1.411   .     S
C559   O613    1.281   .     A
C559   O611    1.281   .     A
C560   C562    1.397   .     A
C560   F601    1.359   .     S
C560   C775    1.373   .     S
C561   C589    1.397   .     A
C561   C590    1.397   .     A
C561   C570    1.411   .     S
C562   C588    1.397   .     A
C563   N610    1.366   .     A
C563   F602    1.354   .     S
C563   C627    1.416   .     S
C564   N609    1.366   .     A
C564   F592    1.354   .     S
C564   C690    1.416   1_455 S
C565   N609    1.367   .     A
C565   F593    1.355   .     S
C565   C687    1.416   1_455 S
C566   N610    1.367   .     A
C566   F594    1.355   .     S
C566   C626    1.416   .     S
C567   C569    1.472   .     S
C567   O615    1.298   .     A
C567   O617    1.294   .     A
C568   O618    1.294   .     A
C568   O616    1.298   .     A
C568   C571    1.472   .     S
C569   C576    1.398   .     A
C569   C574    1.414   .     A
C570   O614    1.281   .     A
C570   O612    1.281   .     A
C571   C575    1.414   .     A
C571   C577    1.398   .     A
C572   C580    1.415   .     A
C572   F591    1.355   .     S
C572   C574    1.405   .     A
C573   C582    1.415   .     A
C573   C575    1.405   .     A
C573   F595    1.355   .     S
C574   I608    2.130   .     S
C575   I607    2.130   .     S
C576   C578    1.387   .     A
C576   I606    2.156   .     S
C577   I605    2.156   .     S
C577   C579    1.387   .     A
C578   C580    1.415   .     A
C578   C583    1.412   .     A
C579   C584    1.412   .     A
C579   C582    1.415   .     A
C580   C28     1.410   1_556 S
C581   F596    1.359   .     S
C581   C586    1.399   .     A
C581   C584    1.420   .     A
C583   C585    1.420   .     A
C583   C26     1.403   1_556 S
C585   C587    1.399   .     A
C585   F597    1.359   .     S
C586   I603    2.138   .     S
C587   I604    2.138   .     S
C587   C24     1.410   1_556 S
C588   F598    1.359   .     S
C588   C776    1.373   .     S
C589   F599    1.359   .     S
C589   C932    1.373   1_545 S
C590   F600    1.359   .     S
C590   C960    1.373   1_545 S
N609   Zn619   2.010   .     S
N610   Zn620   2.010   .     S
O611   Zn619   1.991   .     S
O612   Zn620   1.991   .     S
O613   Zn620   1.990   .     S
O614   Zn619   1.990   .     S
O615   Zn619   1.962   .     S
O616   Zn620   1.962   .     S
O617   Zn620   1.921   .     S
O618   Zn619   1.921   .     S
C621   C624    1.411   .     S
C621   O675    1.281   .     A
C621   O673    1.281   .     A
C622   C624    1.397   .     A
C622   F663    1.359   .     S
C622   C837    1.373   .     S
C623   C651    1.397   .     A
C623   C652    1.397   .     A
C623   C632    1.411   .     S
C624   C650    1.397   .     A
C625   N672    1.366   .     A
C625   F664    1.354   .     S
C625   C689    1.416   .     S
C626   N671    1.366   .     A
C626   F654    1.354   .     S
C627   N671    1.367   .     A
C627   F655    1.355   .     S
C628   N672    1.367   .     A
C628   F656    1.355   .     S
C628   C688    1.416   .     S
C629   C631    1.472   .     S
C629   O677    1.298   .     A
C629   O679    1.294   .     A
C630   O680    1.294   .     A
C630   O678    1.298   .     A
C630   C633    1.472   .     S
C631   C638    1.398   .     A
C631   C636    1.414   .     A
C632   O676    1.281   .     A
C632   O674    1.281   .     A
C633   C637    1.414   .     A
C633   C639    1.398   .     A
C634   C642    1.415   .     A
C634   F653    1.355   .     S
C634   C636    1.405   .     A
C635   C644    1.415   .     A
C635   C637    1.405   .     A
C635   F657    1.355   .     S
C636   I670    2.130   .     S
C637   I669    2.130   .     S
C638   C640    1.387   .     A
C638   I668    2.156   .     S
C639   I667    2.156   .     S
C639   C641    1.387   .     A
C640   C642    1.415   .     A
C640   C645    1.412   .     A
C641   C646    1.412   .     A
C641   C644    1.415   .     A
C642   C90     1.410   1_556 S
C643   F658    1.359   .     S
C643   C648    1.399   .     A
C643   C646    1.420   .     A
C645   C647    1.420   .     A
C645   C88     1.403   1_556 S
C647   C649    1.399   .     A
C647   F659    1.359   .     S
C648   I665    2.138   .     S
C649   I666    2.138   .     S
C649   C86     1.410   1_556 S
C650   F660    1.359   .     S
C650   C838    1.373   .     S
C651   F661    1.359   .     S
C651   C994    1.373   1_545 S
C652   F662    1.359   .     S
C652   C1022   1.373   1_545 S
N671   Zn681   2.010   .     S
N672   Zn682   2.010   .     S
O673   Zn681   1.991   .     S
O674   Zn682   1.991   .     S
O675   Zn682   1.990   .     S
O676   Zn681   1.990   .     S
O677   Zn681   1.962   .     S
O678   Zn682   1.962   .     S
O679   Zn682   1.921   .     S
O680   Zn681   1.921   .     S
C683   C686    1.411   .     S
C683   O737    1.281   .     A
C683   O735    1.281   .     A
C684   C686    1.397   .     A
C684   F725    1.359   .     S
C684   C899    1.373   .     S
C685   C713    1.397   .     A
C685   C714    1.397   .     A
C685   C694    1.411   .     S
C686   C712    1.397   .     A
C687   N734    1.366   .     A
C687   F726    1.354   .     S
C687   C565    1.416   1_655 S
C688   N733    1.366   .     A
C688   F716    1.354   .     S
C689   N733    1.367   .     A
C689   F717    1.355   .     S
C690   N734    1.367   .     A
C690   F718    1.355   .     S
C690   C564    1.416   1_655 S
C691   C693    1.472   .     S
C691   O739    1.298   .     A
C691   O741    1.294   .     A
C692   O742    1.294   .     A
C692   O740    1.298   .     A
C692   C695    1.472   .     S
C693   C700    1.398   .     A
C693   C698    1.414   .     A
C694   O738    1.281   .     A
C694   O736    1.281   .     A
C695   C699    1.414   .     A
C695   C701    1.398   .     A
C696   C704    1.415   .     A
C696   F715    1.355   .     S
C696   C698    1.405   .     A
C697   C706    1.415   .     A
C697   C699    1.405   .     A
C697   F719    1.355   .     S
C698   I732    2.130   .     S
C699   I731    2.130   .     S
C700   C702    1.387   .     A
C700   I730    2.156   .     S
C701   I729    2.156   .     S
C701   C703    1.387   .     A
C702   C704    1.415   .     A
C702   C707    1.412   .     A
C703   C708    1.412   .     A
C703   C706    1.415   .     A
C704   C152    1.410   1_556 S
C705   F720    1.359   .     S
C705   C710    1.399   .     A
C705   C708    1.420   .     A
C707   C709    1.420   .     A
C707   C150    1.403   1_556 S
C709   C711    1.399   .     A
C709   F721    1.359   .     S
C710   I727    2.138   .     S
C711   I728    2.138   .     S
C711   C148    1.410   1_556 S
C712   F722    1.359   .     S
C712   C900    1.373   .     S
C713   F723    1.359   .     S
C713   C1056   1.373   1_545 S
C714   F724    1.359   .     S
C714   C1084   1.373   1_545 S
N733   Zn743   2.010   .     S
N734   Zn744   2.010   .     S
O735   Zn743   1.991   .     S
O736   Zn744   1.991   .     S
O737   Zn744   1.990   .     S
O738   Zn743   1.990   .     S
O739   Zn743   1.962   .     S
O740   Zn744   1.962   .     S
O741   Zn744   1.921   .     S
O742   Zn743   1.921   .     S
C745   C748    1.411   .     S
C745   O799    1.281   .     A
C745   O797    1.281   .     A
C746   C748    1.397   .     A
C746   F787    1.359   .     S
C746   C961    1.373   .     S
C747   C775    1.397   .     A
C747   C776    1.397   .     A
C747   C756    1.411   .     S
C748   C774    1.397   .     A
C749   N796    1.366   .     A
C749   F788    1.354   .     S
C749   C813    1.416   .     S
C750   N795    1.366   .     A
C750   F778    1.354   .     S
C750   C876    1.416   1_455 S
C751   N795    1.367   .     A
C751   F779    1.355   .     S
C751   C873    1.416   1_455 S
C752   N796    1.367   .     A
C752   F780    1.355   .     S
C752   C812    1.416   .     S
C753   C755    1.472   .     S
C753   O801    1.298   .     A
C753   O803    1.294   .     A
C754   O804    1.294   .     A
C754   O802    1.298   .     A
C754   C757    1.472   .     S
C755   C762    1.398   .     A
C755   C760    1.414   .     A
C756   O800    1.281   .     A
C756   O798    1.281   .     A
C757   C761    1.414   .     A
C757   C763    1.398   .     A
C758   C766    1.415   .     A
C758   F777    1.355   .     S
C758   C760    1.405   .     A
C759   C768    1.415   .     A
C759   C761    1.405   .     A
C759   F781    1.355   .     S
C760   I794    2.130   .     S
C761   I793    2.130   .     S
C762   C764    1.387   .     A
C762   I792    2.156   .     S
C763   I791    2.156   .     S
C763   C765    1.387   .     A
C764   C766    1.415   .     A
C764   C769    1.412   .     A
C765   C770    1.412   .     A
C765   C768    1.415   .     A
C766   C214    1.410   1_556 S
C767   F782    1.359   .     S
C767   C772    1.399   .     A
C767   C770    1.420   .     A
C769   C771    1.420   .     A
C769   C212    1.403   1_556 S
C771   C773    1.399   .     A
C771   F783    1.359   .     S
C772   I789    2.138   .     S
C773   I790    2.138   .     S
C773   C210    1.410   1_556 S
C774   F784    1.359   .     S
C774   C962    1.373   .     S
C775   F785    1.359   .     S
C776   F786    1.359   .     S
N795   Zn805   2.010   .     S
N796   Zn806   2.010   .     S
O797   Zn805   1.991   .     S
O798   Zn806   1.991   .     S
O799   Zn806   1.990   .     S
O800   Zn805   1.990   .     S
O801   Zn805   1.962   .     S
O802   Zn806   1.962   .     S
O803   Zn806   1.921   .     S
O804   Zn805   1.921   .     S
C807   C810    1.411   .     S
C807   O861    1.281   .     A
C807   O859    1.281   .     A
C808   C810    1.397   .     A
C808   F849    1.359   .     S
C808   C1023   1.373   .     S
C809   C837    1.397   .     A
C809   C838    1.397   .     A
C809   C818    1.411   .     S
C810   C836    1.397   .     A
C811   N858    1.366   .     A
C811   F850    1.354   .     S
C811   C875    1.416   .     S
C812   N857    1.366   .     A
C812   F840    1.354   .     S
C813   N857    1.367   .     A
C813   F841    1.355   .     S
C814   N858    1.367   .     A
C814   F842    1.355   .     S
C814   C874    1.416   .     S
C815   C817    1.472   .     S
C815   O863    1.298   .     A
C815   O865    1.294   .     A
C816   O866    1.294   .     A
C816   O864    1.298   .     A
C816   C819    1.472   .     S
C817   C824    1.398   .     A
C817   C822    1.414   .     A
C818   O862    1.281   .     A
C818   O860    1.281   .     A
C819   C823    1.414   .     A
C819   C825    1.398   .     A
C820   C828    1.415   .     A
C820   F839    1.355   .     S
C820   C822    1.405   .     A
C821   C830    1.415   .     A
C821   C823    1.405   .     A
C821   F843    1.355   .     S
C822   I856    2.130   .     S
C823   I855    2.130   .     S
C824   C826    1.387   .     A
C824   I854    2.156   .     S
C825   I853    2.156   .     S
C825   C827    1.387   .     A
C826   C828    1.415   .     A
C826   C831    1.412   .     A
C827   C832    1.412   .     A
C827   C830    1.415   .     A
C828   C276    1.410   1_556 S
C829   F844    1.359   .     S
C829   C834    1.399   .     A
C829   C832    1.420   .     A
C831   C833    1.420   .     A
C831   C274    1.403   1_556 S
C833   C835    1.399   .     A
C833   F845    1.359   .     S
C834   I851    2.138   .     S
C835   I852    2.138   .     S
C835   C272    1.410   1_556 S
C836   F846    1.359   .     S
C836   C1024   1.373   .     S
C837   F847    1.359   .     S
C838   F848    1.359   .     S
N857   Zn867   2.010   .     S
N858   Zn868   2.010   .     S
O859   Zn867   1.991   .     S
O860   Zn868   1.991   .     S
O861   Zn868   1.990   .     S
O862   Zn867   1.990   .     S
O863   Zn867   1.962   .     S
O864   Zn868   1.962   .     S
O865   Zn868   1.921   .     S
O866   Zn867   1.921   .     S
C869   C872    1.411   .     S
C869   O923    1.281   .     A
C869   O921    1.281   .     A
C870   C872    1.397   .     A
C870   F911    1.359   .     S
C870   C1085   1.373   .     S
C871   C899    1.397   .     A
C871   C900    1.397   .     A
C871   C880    1.411   .     S
C872   C898    1.397   .     A
C873   N920    1.366   .     A
C873   F912    1.354   .     S
C873   C751    1.416   1_655 S
C874   N919    1.366   .     A
C874   F902    1.354   .     S
C875   N919    1.367   .     A
C875   F903    1.355   .     S
C876   N920    1.367   .     A
C876   F904    1.355   .     S
C876   C750    1.416   1_655 S
C877   C879    1.472   .     S
C877   O925    1.298   .     A
C877   O927    1.294   .     A
C878   O928    1.294   .     A
C878   O926    1.298   .     A
C878   C881    1.472   .     S
C879   C886    1.398   .     A
C879   C884    1.414   .     A
C880   O924    1.281   .     A
C880   O922    1.281   .     A
C881   C885    1.414   .     A
C881   C887    1.398   .     A
C882   C890    1.415   .     A
C882   F901    1.355   .     S
C882   C884    1.405   .     A
C883   C892    1.415   .     A
C883   C885    1.405   .     A
C883   F905    1.355   .     S
C884   I918    2.130   .     S
C885   I917    2.130   .     S
C886   C888    1.387   .     A
C886   I916    2.156   .     S
C887   I915    2.156   .     S
C887   C889    1.387   .     A
C888   C890    1.415   .     A
C888   C893    1.412   .     A
C889   C894    1.412   .     A
C889   C892    1.415   .     A
C890   C338    1.410   1_556 S
C891   F906    1.359   .     S
C891   C896    1.399   .     A
C891   C894    1.420   .     A
C893   C895    1.420   .     A
C893   C336    1.403   1_556 S
C895   C897    1.399   .     A
C895   F907    1.359   .     S
C896   I913    2.138   .     S
C897   I914    2.138   .     S
C897   C334    1.410   1_556 S
C898   F908    1.359   .     S
C898   C1086   1.373   .     S
C899   F909    1.359   .     S
C900   F910    1.359   .     S
N919   Zn929   2.010   .     S
N920   Zn930   2.010   .     S
O921   Zn929   1.991   .     S
O922   Zn930   1.991   .     S
O923   Zn930   1.990   .     S
O924   Zn929   1.990   .     S
O925   Zn929   1.962   .     S
O926   Zn930   1.962   .     S
O927   Zn930   1.921   .     S
O928   Zn929   1.921   .     S
C931   C934    1.411   .     S
C931   O985    1.281   .     A
C931   O983    1.281   .     A
C932   C934    1.397   .     A
C932   F973    1.359   .     S
C932   C589    1.373   1_565 S
C933   C961    1.397   .     A
C933   C962    1.397   .     A
C933   C942    1.411   .     S
C934   C960    1.397   .     A
C935   N982    1.366   .     A
C935   F974    1.354   .     S
C935   C999    1.416   .     S
C936   N981    1.366   .     A
C936   F964    1.354   .     S
C936   C1062   1.416   1_455 S
C937   N981    1.367   .     A
C937   F965    1.355   .     S
C937   C1059   1.416   1_455 S
C938   N982    1.367   .     A
C938   F966    1.355   .     S
C938   C998    1.416   .     S
C939   C941    1.472   .     S
C939   O987    1.298   .     A
C939   O989    1.294   .     A
C940   O990    1.294   .     A
C940   O988    1.298   .     A
C940   C943    1.472   .     S
C941   C948    1.398   .     A
C941   C946    1.414   .     A
C942   O986    1.281   .     A
C942   O984    1.281   .     A
C943   C947    1.414   .     A
C943   C949    1.398   .     A
C944   C952    1.415   .     A
C944   F963    1.355   .     S
C944   C946    1.405   .     A
C945   C954    1.415   .     A
C945   C947    1.405   .     A
C945   F967    1.355   .     S
C946   I980    2.130   .     S
C947   I979    2.130   .     S
C948   C950    1.387   .     A
C948   I978    2.156   .     S
C949   I977    2.156   .     S
C949   C951    1.387   .     A
C950   C952    1.415   .     A
C950   C955    1.412   .     A
C951   C956    1.412   .     A
C951   C954    1.415   .     A
C952   C400    1.410   1_556 S
C953   F968    1.359   .     S
C953   C958    1.399   .     A
C953   C956    1.420   .     A
C955   C957    1.420   .     A
C955   C398    1.403   1_556 S
C957   C959    1.399   .     A
C957   F969    1.359   .     S
C958   I975    2.138   .     S
C959   I976    2.138   .     S
C959   C396    1.410   1_556 S
C960   F970    1.359   .     S
C960   C590    1.373   1_565 S
C961   F971    1.359   .     S
C962   F972    1.359   .     S
N981   Zn991   2.010   .     S
N982   Zn992   2.010   .     S
O983   Zn991   1.991   .     S
O984   Zn992   1.991   .     S
O985   Zn992   1.990   .     S
O986   Zn991   1.990   .     S
O987   Zn991   1.962   .     S
O988   Zn992   1.962   .     S
O989   Zn992   1.921   .     S
O990   Zn991   1.921   .     S
C993   C996    1.411   .     S
C993   O1047   1.281   .     A
C993   O1045   1.281   .     A
C994   C996    1.397   .     A
C994   F1035   1.359   .     S
C994   C651    1.373   1_565 S
C995   C1023   1.397   .     A
C995   C1024   1.397   .     A
C995   C1004   1.411   .     S
C996   C1022   1.397   .     A
C997   N1044   1.366   .     A
C997   F1036   1.354   .     S
C997   C1061   1.416   .     S
C998   N1043   1.366   .     A
C998   F1026   1.354   .     S
C999   N1043   1.367   .     A
C999   F1027   1.355   .     S
C1000  N1044   1.367   .     A
C1000  F1028   1.355   .     S
C1000  C1060   1.416   .     S
C1001  C1003   1.472   .     S
C1001  O1049   1.298   .     A
C1001  O1051   1.294   .     A
C1002  O1052   1.294   .     A
C1002  O1050   1.298   .     A
C1002  C1005   1.472   .     S
C1003  C1010   1.398   .     A
C1003  C1008   1.414   .     A
C1004  O1048   1.281   .     A
C1004  O1046   1.281   .     A
C1005  C1009   1.414   .     A
C1005  C1011   1.398   .     A
C1006  C1014   1.415   .     A
C1006  F1025   1.355   .     S
C1006  C1008   1.405   .     A
C1007  C1016   1.415   .     A
C1007  C1009   1.405   .     A
C1007  F1029   1.355   .     S
C1008  I1042   2.130   .     S
C1009  I1041   2.130   .     S
C1010  C1012   1.387   .     A
C1010  I1040   2.156   .     S
C1011  I1039   2.156   .     S
C1011  C1013   1.387   .     A
C1012  C1014   1.415   .     A
C1012  C1017   1.412   .     A
C1013  C1018   1.412   .     A
C1013  C1016   1.415   .     A
C1014  C462    1.410   1_556 S
C1015  F1030   1.359   .     S
C1015  C1020   1.399   .     A
C1015  C1018   1.420   .     A
C1017  C1019   1.420   .     A
C1017  C460    1.403   1_556 S
C1019  C1021   1.399   .     A
C1019  F1031   1.359   .     S
C1020  I1037   2.138   .     S
C1021  I1038   2.138   .     S
C1021  C458    1.410   1_556 S
C1022  F1032   1.359   .     S
C1022  C652    1.373   1_565 S
C1023  F1033   1.359   .     S
C1024  F1034   1.359   .     S
N1043  Zn1053  2.010   .     S
N1044  Zn1054  2.010   .     S
O1045  Zn1053  1.991   .     S
O1046  Zn1054  1.991   .     S
O1047  Zn1054  1.990   .     S
O1048  Zn1053  1.990   .     S
O1049  Zn1053  1.962   .     S
O1050  Zn1054  1.962   .     S
O1051  Zn1054  1.921   .     S
O1052  Zn1053  1.921   .     S
C1055  C1058   1.411   .     S
C1055  O1109   1.281   .     A
C1055  O1107   1.281   .     A
C1056  C1058   1.397   .     A
C1056  F1097   1.359   .     S
C1056  C713    1.373   1_565 S
C1057  C1085   1.397   .     A
C1057  C1086   1.397   .     A
C1057  C1066   1.411   .     S
C1058  C1084   1.397   .     A
C1059  N1106   1.366   .     A
C1059  F1098   1.354   .     S
C1059  C937    1.416   1_655 S
C1060  N1105   1.366   .     A
C1060  F1088   1.354   .     S
C1061  N1105   1.367   .     A
C1061  F1089   1.355   .     S
C1062  N1106   1.367   .     A
C1062  F1090   1.355   .     S
C1062  C936    1.416   1_655 S
C1063  C1065   1.472   .     S
C1063  O1111   1.298   .     A
C1063  O1113   1.294   .     A
C1064  O1114   1.294   .     A
C1064  O1112   1.298   .     A
C1064  C1067   1.472   .     S
C1065  C1072   1.398   .     A
C1065  C1070   1.414   .     A
C1066  O1110   1.281   .     A
C1066  O1108   1.281   .     A
C1067  C1071   1.414   .     A
C1067  C1073   1.398   .     A
C1068  C1076   1.415   .     A
C1068  F1087   1.355   .     S
C1068  C1070   1.405   .     A
C1069  C1078   1.415   .     A
C1069  C1071   1.405   .     A
C1069  F1091   1.355   .     S
C1070  I1104   2.130   .     S
C1071  I1103   2.130   .     S
C1072  C1074   1.387   .     A
C1072  I1102   2.156   .     S
C1073  I1101   2.156   .     S
C1073  C1075   1.387   .     A
C1074  C1076   1.415   .     A
C1074  C1079   1.412   .     A
C1075  C1080   1.412   .     A
C1075  C1078   1.415   .     A
C1076  C524    1.410   1_556 S
C1077  F1092   1.359   .     S
C1077  C1082   1.399   .     A
C1077  C1080   1.420   .     A
C1079  C1081   1.420   .     A
C1079  C522    1.403   1_556 S
C1081  C1083   1.399   .     A
C1081  F1093   1.359   .     S
C1082  I1099   2.138   .     S
C1083  I1100   2.138   .     S
C1083  C520    1.410   1_556 S
C1084  F1094   1.359   .     S
C1084  C714    1.373   1_565 S
C1085  F1095   1.359   .     S
C1086  F1096   1.359   .     S
N1105  Zn1115  2.010   .     S
N1106  Zn1116  2.010   .     S
O1107  Zn1115  1.991   .     S
O1108  Zn1116  1.991   .     S
O1109  Zn1116  1.990   .     S
O1110  Zn1115  1.990   .     S
O1111  Zn1115  1.962   .     S
O1112  Zn1116  1.962   .     S
O1113  Zn1116  1.921   .     S
O1114  Zn1115  1.921   .     S
