data_str_m3_o1_o5_pcu_sym.13
_audit_creation_date              2020-01-03
_audit_creation_method            'Materials Studio'
_symmetry_space_group_name_H-M    'P1'
_symmetry_Int_Tables_number       1
_symmetry_cell_setting            triclinic
loop_
_symmetry_equiv_pos_as_xyz
  x,y,z
_cell_length_a                    31.9492
_cell_length_b                    29.6083
_cell_length_c                    26.7310
_cell_angle_alpha                 90.1485
_cell_angle_beta                  90.1292
_cell_angle_gamma                 90.0103
loop_
_atom_site_label
_atom_site_type_symbol
_atom_site_fract_x
_atom_site_fract_y
_atom_site_fract_z
_atom_site_U_iso_or_equiv
_atom_site_adp_type
_atom_site_occupancy
C1     C     0.08675   0.16667   0.16664   0.00000  Uiso   1.00
C2     C     0.02178   0.18514   0.20806   0.00000  Uiso   1.00
C3     C     0.29071   0.16664   0.16669   0.00000  Uiso   1.00
C4     C     0.04262   0.16669   0.16664   0.00000  Uiso   1.00
C5     C     0.19312   0.02403   0.19722   0.00000  Uiso   1.00
C6     C     0.14021   0.30931   0.13612   0.00000  Uiso   1.00
C7     C     0.14022   0.02387   0.13611   0.00000  Uiso   1.00
C8     C     0.19312   0.30946   0.19722   0.00000  Uiso   1.00
C9     C     0.24658   0.16666   0.16669   0.00000  Uiso   1.00
C10    C     0.16664   0.16664   0.07290   0.00000  Uiso   1.00
C11    C     0.16669   0.16669   0.26044   0.00000  Uiso   1.00
C12    C     0.16666   0.16663   0.02179   0.00000  Uiso   1.00
C13    C     0.16668   0.16670   0.31154   0.00000  Uiso   1.00
C14    C     0.02160   0.14826   0.12523   0.00000  Uiso   1.00
C15    C     0.31173   0.18508   0.20810   0.00000  Uiso   1.00
C16    C     0.31156   0.14819   0.12527   0.00000  Uiso   1.00
H17    H     0.21431   0.04217   0.22168   0.00000  Uiso   1.00
H18    H     0.11902   0.29116   0.11166   0.00000  Uiso   1.00
H19    H     0.11905   0.04188   0.11164   0.00000  Uiso   1.00
H20    H     0.21428   0.29146   0.22170   0.00000  Uiso   1.00
I21    I     0.05551   0.12252   0.06202   0.00000  Uiso   1.00
I22    I     0.27782   0.21081   0.27131   0.00000  Uiso   1.00
I23    I     0.27738   0.12199   0.06230   0.00000  Uiso   1.00
I24    I     0.05596   0.21134   0.27103   0.00000  Uiso   1.00
N25    N     0.16667   0.28573   0.16667   0.00000  Uiso   1.00
N26    N     0.16667   0.04760   0.16667   0.00000  Uiso   1.00
O27    O     0.10559   0.20487   0.16666   0.00000  Uiso   1.00
O28    O     0.22774   0.12846   0.16667   0.00000  Uiso   1.00
O29    O     0.22774   0.20487   0.16667   0.00000  Uiso   1.00
O30    O     0.10559   0.12846   0.16666   0.00000  Uiso   1.00
O31    O     0.16667   0.20488   0.09511   0.00000  Uiso   1.00
O32    O     0.16666   0.12845   0.23822   0.00000  Uiso   1.00
O33    O     0.16666   0.20488   0.23822   0.00000  Uiso   1.00
O34    O     0.16667   0.12845   0.09511   0.00000  Uiso   1.00
Zn35   Zn    0.16667   0.21771   0.16667   0.00000  Uiso   1.00
Zn36   Zn    0.16667   0.11563   0.16667   0.00000  Uiso   1.00
C37    C     0.42009   0.16667   0.16664   0.00000  Uiso   1.00
C38    C     0.35511   0.18514   0.20806   0.00000  Uiso   1.00
C39    C     0.62404   0.16664   0.16669   0.00000  Uiso   1.00
C40    C     0.37596   0.16669   0.16664   0.00000  Uiso   1.00
C41    C     0.52646   0.02403   0.19722   0.00000  Uiso   1.00
C42    C     0.47354   0.30931   0.13612   0.00000  Uiso   1.00
C43    C     0.47355   0.02387   0.13611   0.00000  Uiso   1.00
C44    C     0.52645   0.30946   0.19722   0.00000  Uiso   1.00
C45    C     0.57991   0.16666   0.16669   0.00000  Uiso   1.00
C46    C     0.49998   0.16664   0.07290   0.00000  Uiso   1.00
C47    C     0.50002   0.16669   0.26044   0.00000  Uiso   1.00
C48    C     0.49999   0.16663   0.02179   0.00000  Uiso   1.00
C49    C     0.50001   0.16670   0.31154   0.00000  Uiso   1.00
C50    C     0.35493   0.14826   0.12523   0.00000  Uiso   1.00
C51    C     0.64507   0.18508   0.20810   0.00000  Uiso   1.00
C52    C     0.64489   0.14819   0.12527   0.00000  Uiso   1.00
H53    H     0.54764   0.04217   0.22168   0.00000  Uiso   1.00
H54    H     0.45236   0.29116   0.11166   0.00000  Uiso   1.00
H55    H     0.45238   0.04188   0.11164   0.00000  Uiso   1.00
H56    H     0.54761   0.29146   0.22170   0.00000  Uiso   1.00
I57    I     0.38885   0.12252   0.06202   0.00000  Uiso   1.00
I58    I     0.61115   0.21081   0.27131   0.00000  Uiso   1.00
I59    I     0.61071   0.12199   0.06230   0.00000  Uiso   1.00
I60    I     0.38929   0.21134   0.27103   0.00000  Uiso   1.00
N61    N     0.50000   0.28573   0.16667   0.00000  Uiso   1.00
N62    N     0.50000   0.04760   0.16667   0.00000  Uiso   1.00
O63    O     0.43892   0.20487   0.16666   0.00000  Uiso   1.00
O64    O     0.56108   0.12846   0.16667   0.00000  Uiso   1.00
O65    O     0.56108   0.20487   0.16667   0.00000  Uiso   1.00
O66    O     0.43892   0.12846   0.16666   0.00000  Uiso   1.00
O67    O     0.50000   0.20488   0.09511   0.00000  Uiso   1.00
O68    O     0.50000   0.12845   0.23822   0.00000  Uiso   1.00
O69    O     0.50000   0.20488   0.23822   0.00000  Uiso   1.00
O70    O     0.50000   0.12845   0.09511   0.00000  Uiso   1.00
Zn71   Zn    0.50000   0.21771   0.16667   0.00000  Uiso   1.00
Zn72   Zn    0.50000   0.11563   0.16667   0.00000  Uiso   1.00
C73    C     0.75342   0.16667   0.16664   0.00000  Uiso   1.00
C74    C     0.68844   0.18514   0.20806   0.00000  Uiso   1.00
C75    C     0.95738   0.16664   0.16669   0.00000  Uiso   1.00
C76    C     0.70929   0.16669   0.16664   0.00000  Uiso   1.00
C77    C     0.85979   0.02403   0.19722   0.00000  Uiso   1.00
C78    C     0.80687   0.30931   0.13612   0.00000  Uiso   1.00
C79    C     0.80688   0.02387   0.13611   0.00000  Uiso   1.00
C80    C     0.85978   0.30946   0.19722   0.00000  Uiso   1.00
C81    C     0.91325   0.16666   0.16669   0.00000  Uiso   1.00
C82    C     0.83331   0.16664   0.07290   0.00000  Uiso   1.00
C83    C     0.83335   0.16669   0.26044   0.00000  Uiso   1.00
C84    C     0.83332   0.16663   0.02179   0.00000  Uiso   1.00
C85    C     0.83334   0.16670   0.31154   0.00000  Uiso   1.00
C86    C     0.68827   0.14826   0.12523   0.00000  Uiso   1.00
C87    C     0.97840   0.18508   0.20810   0.00000  Uiso   1.00
C88    C     0.97822   0.14819   0.12527   0.00000  Uiso   1.00
H89    H     0.88097   0.04217   0.22168   0.00000  Uiso   1.00
H90    H     0.78569   0.29116   0.11166   0.00000  Uiso   1.00
H91    H     0.78572   0.04188   0.11164   0.00000  Uiso   1.00
H92    H     0.88095   0.29146   0.22170   0.00000  Uiso   1.00
I93    I     0.72218   0.12252   0.06202   0.00000  Uiso   1.00
I94    I     0.94448   0.21081   0.27131   0.00000  Uiso   1.00
I95    I     0.94404   0.12199   0.06230   0.00000  Uiso   1.00
I96    I     0.72262   0.21134   0.27103   0.00000  Uiso   1.00
N97    N     0.83333   0.28573   0.16667   0.00000  Uiso   1.00
N98    N     0.83333   0.04760   0.16667   0.00000  Uiso   1.00
O99    O     0.77226   0.20487   0.16666   0.00000  Uiso   1.00
O100   O     0.89441   0.12846   0.16667   0.00000  Uiso   1.00
O101   O     0.89441   0.20487   0.16667   0.00000  Uiso   1.00
O102   O     0.77226   0.12846   0.16666   0.00000  Uiso   1.00
O103   O     0.83334   0.20488   0.09511   0.00000  Uiso   1.00
O104   O     0.83333   0.12845   0.23822   0.00000  Uiso   1.00
O105   O     0.83333   0.20488   0.23822   0.00000  Uiso   1.00
O106   O     0.83334   0.12845   0.09511   0.00000  Uiso   1.00
Zn107  Zn    0.83333   0.21771   0.16667   0.00000  Uiso   1.00
Zn108  Zn    0.83333   0.11563   0.16667   0.00000  Uiso   1.00
C109   C     0.08675   0.50000   0.16664   0.00000  Uiso   1.00
C110   C     0.02178   0.51848   0.20806   0.00000  Uiso   1.00
C111   C     0.29071   0.49998   0.16669   0.00000  Uiso   1.00
C112   C     0.04262   0.50002   0.16664   0.00000  Uiso   1.00
C113   C     0.19312   0.35736   0.19722   0.00000  Uiso   1.00
C114   C     0.14021   0.64264   0.13612   0.00000  Uiso   1.00
C115   C     0.14022   0.35720   0.13611   0.00000  Uiso   1.00
C116   C     0.19312   0.64280   0.19722   0.00000  Uiso   1.00
C117   C     0.24658   0.50000   0.16669   0.00000  Uiso   1.00
C118   C     0.16664   0.49997   0.07290   0.00000  Uiso   1.00
C119   C     0.16669   0.50003   0.26044   0.00000  Uiso   1.00
C120   C     0.16666   0.49996   0.02179   0.00000  Uiso   1.00
C121   C     0.16668   0.50003   0.31154   0.00000  Uiso   1.00
C122   C     0.02160   0.48159   0.12523   0.00000  Uiso   1.00
C123   C     0.31173   0.51841   0.20810   0.00000  Uiso   1.00
C124   C     0.31156   0.48152   0.12527   0.00000  Uiso   1.00
H125   H     0.21431   0.37551   0.22168   0.00000  Uiso   1.00
H126   H     0.11902   0.62449   0.11166   0.00000  Uiso   1.00
H127   H     0.11905   0.37521   0.11164   0.00000  Uiso   1.00
H128   H     0.21428   0.62479   0.22170   0.00000  Uiso   1.00
I129   I     0.05551   0.45585   0.06202   0.00000  Uiso   1.00
I130   I     0.27782   0.54415   0.27131   0.00000  Uiso   1.00
I131   I     0.27738   0.45533   0.06230   0.00000  Uiso   1.00
I132   I     0.05596   0.54467   0.27103   0.00000  Uiso   1.00
N133   N     0.16667   0.61907   0.16667   0.00000  Uiso   1.00
N134   N     0.16667   0.38093   0.16667   0.00000  Uiso   1.00
O135   O     0.10559   0.53821   0.16666   0.00000  Uiso   1.00
O136   O     0.22774   0.46179   0.16667   0.00000  Uiso   1.00
O137   O     0.22774   0.53821   0.16667   0.00000  Uiso   1.00
O138   O     0.10559   0.46179   0.16666   0.00000  Uiso   1.00
O139   O     0.16667   0.53821   0.09511   0.00000  Uiso   1.00
O140   O     0.16666   0.46179   0.23822   0.00000  Uiso   1.00
O141   O     0.16666   0.53821   0.23822   0.00000  Uiso   1.00
O142   O     0.16667   0.46179   0.09511   0.00000  Uiso   1.00
Zn143  Zn    0.16667   0.55104   0.16667   0.00000  Uiso   1.00
Zn144  Zn    0.16667   0.44896   0.16667   0.00000  Uiso   1.00
C145   C     0.42009   0.50000   0.16664   0.00000  Uiso   1.00
C146   C     0.35511   0.51848   0.20806   0.00000  Uiso   1.00
C147   C     0.62404   0.49998   0.16669   0.00000  Uiso   1.00
C148   C     0.37596   0.50002   0.16664   0.00000  Uiso   1.00
C149   C     0.52646   0.35736   0.19722   0.00000  Uiso   1.00
C150   C     0.47354   0.64264   0.13612   0.00000  Uiso   1.00
C151   C     0.47355   0.35720   0.13611   0.00000  Uiso   1.00
C152   C     0.52645   0.64280   0.19722   0.00000  Uiso   1.00
C153   C     0.57991   0.50000   0.16669   0.00000  Uiso   1.00
C154   C     0.49998   0.49997   0.07290   0.00000  Uiso   1.00
C155   C     0.50002   0.50003   0.26044   0.00000  Uiso   1.00
C156   C     0.49999   0.49996   0.02179   0.00000  Uiso   1.00
C157   C     0.50001   0.50003   0.31154   0.00000  Uiso   1.00
C158   C     0.35493   0.48159   0.12523   0.00000  Uiso   1.00
C159   C     0.64507   0.51841   0.20810   0.00000  Uiso   1.00
C160   C     0.64489   0.48152   0.12527   0.00000  Uiso   1.00
H161   H     0.54764   0.37551   0.22168   0.00000  Uiso   1.00
H162   H     0.45236   0.62449   0.11166   0.00000  Uiso   1.00
H163   H     0.45238   0.37521   0.11164   0.00000  Uiso   1.00
H164   H     0.54761   0.62479   0.22170   0.00000  Uiso   1.00
I165   I     0.38885   0.45585   0.06202   0.00000  Uiso   1.00
I166   I     0.61115   0.54415   0.27131   0.00000  Uiso   1.00
I167   I     0.61071   0.45533   0.06230   0.00000  Uiso   1.00
I168   I     0.38929   0.54467   0.27103   0.00000  Uiso   1.00
N169   N     0.50000   0.61907   0.16667   0.00000  Uiso   1.00
N170   N     0.50000   0.38093   0.16667   0.00000  Uiso   1.00
O171   O     0.43892   0.53821   0.16666   0.00000  Uiso   1.00
O172   O     0.56108   0.46179   0.16667   0.00000  Uiso   1.00
O173   O     0.56108   0.53821   0.16667   0.00000  Uiso   1.00
O174   O     0.43892   0.46179   0.16666   0.00000  Uiso   1.00
O175   O     0.50000   0.53821   0.09511   0.00000  Uiso   1.00
O176   O     0.50000   0.46179   0.23822   0.00000  Uiso   1.00
O177   O     0.50000   0.53821   0.23822   0.00000  Uiso   1.00
O178   O     0.50000   0.46179   0.09511   0.00000  Uiso   1.00
Zn179  Zn    0.50000   0.55104   0.16667   0.00000  Uiso   1.00
Zn180  Zn    0.50000   0.44896   0.16667   0.00000  Uiso   1.00
C181   C     0.75342   0.50000   0.16664   0.00000  Uiso   1.00
C182   C     0.68844   0.51848   0.20806   0.00000  Uiso   1.00
C183   C     0.95738   0.49998   0.16669   0.00000  Uiso   1.00
C184   C     0.70929   0.50002   0.16664   0.00000  Uiso   1.00
C185   C     0.85979   0.35736   0.19722   0.00000  Uiso   1.00
C186   C     0.80687   0.64264   0.13612   0.00000  Uiso   1.00
C187   C     0.80688   0.35720   0.13611   0.00000  Uiso   1.00
C188   C     0.85978   0.64280   0.19722   0.00000  Uiso   1.00
C189   C     0.91325   0.50000   0.16669   0.00000  Uiso   1.00
C190   C     0.83331   0.49997   0.07290   0.00000  Uiso   1.00
C191   C     0.83335   0.50003   0.26044   0.00000  Uiso   1.00
C192   C     0.83332   0.49996   0.02179   0.00000  Uiso   1.00
C193   C     0.83334   0.50003   0.31154   0.00000  Uiso   1.00
C194   C     0.68827   0.48159   0.12523   0.00000  Uiso   1.00
C195   C     0.97840   0.51841   0.20810   0.00000  Uiso   1.00
C196   C     0.97822   0.48152   0.12527   0.00000  Uiso   1.00
H197   H     0.88097   0.37551   0.22168   0.00000  Uiso   1.00
H198   H     0.78569   0.62449   0.11166   0.00000  Uiso   1.00
H199   H     0.78572   0.37521   0.11164   0.00000  Uiso   1.00
H200   H     0.88095   0.62479   0.22170   0.00000  Uiso   1.00
I201   I     0.72218   0.45585   0.06202   0.00000  Uiso   1.00
I202   I     0.94448   0.54415   0.27131   0.00000  Uiso   1.00
I203   I     0.94404   0.45533   0.06230   0.00000  Uiso   1.00
I204   I     0.72262   0.54467   0.27103   0.00000  Uiso   1.00
N205   N     0.83333   0.61907   0.16667   0.00000  Uiso   1.00
N206   N     0.83333   0.38093   0.16667   0.00000  Uiso   1.00
O207   O     0.77226   0.53821   0.16666   0.00000  Uiso   1.00
O208   O     0.89441   0.46179   0.16667   0.00000  Uiso   1.00
O209   O     0.89441   0.53821   0.16667   0.00000  Uiso   1.00
O210   O     0.77226   0.46179   0.16666   0.00000  Uiso   1.00
O211   O     0.83334   0.53821   0.09511   0.00000  Uiso   1.00
O212   O     0.83333   0.46179   0.23822   0.00000  Uiso   1.00
O213   O     0.83333   0.53821   0.23822   0.00000  Uiso   1.00
O214   O     0.83334   0.46179   0.09511   0.00000  Uiso   1.00
Zn215  Zn    0.83333   0.55104   0.16667   0.00000  Uiso   1.00
Zn216  Zn    0.83333   0.44896   0.16667   0.00000  Uiso   1.00
C217   C     0.08675   0.83334   0.16664   0.00000  Uiso   1.00
C218   C     0.02178   0.85181   0.20806   0.00000  Uiso   1.00
C219   C     0.29071   0.83331   0.16669   0.00000  Uiso   1.00
C220   C     0.04262   0.83336   0.16664   0.00000  Uiso   1.00
C221   C     0.19312   0.69069   0.19722   0.00000  Uiso   1.00
C222   C     0.14021   0.97597   0.13612   0.00000  Uiso   1.00
C223   C     0.14022   0.69054   0.13611   0.00000  Uiso   1.00
C224   C     0.19312   0.97613   0.19722   0.00000  Uiso   1.00
C225   C     0.24658   0.83333   0.16669   0.00000  Uiso   1.00
C226   C     0.16664   0.83331   0.07290   0.00000  Uiso   1.00
C227   C     0.16669   0.83336   0.26044   0.00000  Uiso   1.00
C228   C     0.16666   0.83330   0.02179   0.00000  Uiso   1.00
C229   C     0.16668   0.83337   0.31154   0.00000  Uiso   1.00
C230   C     0.02160   0.81492   0.12523   0.00000  Uiso   1.00
C231   C     0.31173   0.85174   0.20810   0.00000  Uiso   1.00
C232   C     0.31156   0.81486   0.12527   0.00000  Uiso   1.00
H233   H     0.21431   0.70884   0.22168   0.00000  Uiso   1.00
H234   H     0.11902   0.95783   0.11166   0.00000  Uiso   1.00
H235   H     0.11905   0.70854   0.11164   0.00000  Uiso   1.00
H236   H     0.21428   0.95812   0.22170   0.00000  Uiso   1.00
I237   I     0.05551   0.78919   0.06202   0.00000  Uiso   1.00
I238   I     0.27782   0.87748   0.27131   0.00000  Uiso   1.00
I239   I     0.27738   0.78866   0.06230   0.00000  Uiso   1.00
I240   I     0.05596   0.87801   0.27103   0.00000  Uiso   1.00
N241   N     0.16667   0.95240   0.16667   0.00000  Uiso   1.00
N242   N     0.16667   0.71427   0.16667   0.00000  Uiso   1.00
O243   O     0.10559   0.87154   0.16666   0.00000  Uiso   1.00
O244   O     0.22774   0.79513   0.16667   0.00000  Uiso   1.00
O245   O     0.22774   0.87154   0.16667   0.00000  Uiso   1.00
O246   O     0.10559   0.79513   0.16666   0.00000  Uiso   1.00
O247   O     0.16667   0.87155   0.09511   0.00000  Uiso   1.00
O248   O     0.16666   0.79512   0.23822   0.00000  Uiso   1.00
O249   O     0.16666   0.87155   0.23822   0.00000  Uiso   1.00
O250   O     0.16667   0.79512   0.09511   0.00000  Uiso   1.00
Zn251  Zn    0.16667   0.88437   0.16667   0.00000  Uiso   1.00
Zn252  Zn    0.16667   0.78229   0.16667   0.00000  Uiso   1.00
C253   C     0.42009   0.83334   0.16664   0.00000  Uiso   1.00
C254   C     0.35511   0.85181   0.20806   0.00000  Uiso   1.00
C255   C     0.62404   0.83331   0.16669   0.00000  Uiso   1.00
C256   C     0.37596   0.83336   0.16664   0.00000  Uiso   1.00
C257   C     0.52646   0.69069   0.19722   0.00000  Uiso   1.00
C258   C     0.47354   0.97597   0.13612   0.00000  Uiso   1.00
C259   C     0.47355   0.69054   0.13611   0.00000  Uiso   1.00
C260   C     0.52645   0.97613   0.19722   0.00000  Uiso   1.00
C261   C     0.57991   0.83333   0.16669   0.00000  Uiso   1.00
C262   C     0.49998   0.83331   0.07290   0.00000  Uiso   1.00
C263   C     0.50002   0.83336   0.26044   0.00000  Uiso   1.00
C264   C     0.49999   0.83330   0.02179   0.00000  Uiso   1.00
C265   C     0.50001   0.83337   0.31154   0.00000  Uiso   1.00
C266   C     0.35493   0.81492   0.12523   0.00000  Uiso   1.00
C267   C     0.64507   0.85174   0.20810   0.00000  Uiso   1.00
C268   C     0.64489   0.81486   0.12527   0.00000  Uiso   1.00
H269   H     0.54764   0.70884   0.22168   0.00000  Uiso   1.00
H270   H     0.45236   0.95783   0.11166   0.00000  Uiso   1.00
H271   H     0.45238   0.70854   0.11164   0.00000  Uiso   1.00
H272   H     0.54761   0.95812   0.22170   0.00000  Uiso   1.00
I273   I     0.38885   0.78919   0.06202   0.00000  Uiso   1.00
I274   I     0.61115   0.87748   0.27131   0.00000  Uiso   1.00
I275   I     0.61071   0.78866   0.06230   0.00000  Uiso   1.00
I276   I     0.38929   0.87801   0.27103   0.00000  Uiso   1.00
N277   N     0.50000   0.95240   0.16667   0.00000  Uiso   1.00
N278   N     0.50000   0.71427   0.16667   0.00000  Uiso   1.00
O279   O     0.43892   0.87154   0.16666   0.00000  Uiso   1.00
O280   O     0.56108   0.79513   0.16667   0.00000  Uiso   1.00
O281   O     0.56108   0.87154   0.16667   0.00000  Uiso   1.00
O282   O     0.43892   0.79513   0.16666   0.00000  Uiso   1.00
O283   O     0.50000   0.87155   0.09511   0.00000  Uiso   1.00
O284   O     0.50000   0.79512   0.23822   0.00000  Uiso   1.00
O285   O     0.50000   0.87155   0.23822   0.00000  Uiso   1.00
O286   O     0.50000   0.79512   0.09511   0.00000  Uiso   1.00
Zn287  Zn    0.50000   0.88437   0.16667   0.00000  Uiso   1.00
Zn288  Zn    0.50000   0.78229   0.16667   0.00000  Uiso   1.00
C289   C     0.75342   0.83334   0.16664   0.00000  Uiso   1.00
C290   C     0.68844   0.85181   0.20806   0.00000  Uiso   1.00
C291   C     0.95738   0.83331   0.16669   0.00000  Uiso   1.00
C292   C     0.70929   0.83336   0.16664   0.00000  Uiso   1.00
C293   C     0.85979   0.69069   0.19722   0.00000  Uiso   1.00
C294   C     0.80687   0.97597   0.13612   0.00000  Uiso   1.00
C295   C     0.80688   0.69054   0.13611   0.00000  Uiso   1.00
C296   C     0.85978   0.97613   0.19722   0.00000  Uiso   1.00
C297   C     0.91325   0.83333   0.16669   0.00000  Uiso   1.00
C298   C     0.83331   0.83331   0.07290   0.00000  Uiso   1.00
C299   C     0.83335   0.83336   0.26044   0.00000  Uiso   1.00
C300   C     0.83332   0.83330   0.02179   0.00000  Uiso   1.00
C301   C     0.83334   0.83337   0.31154   0.00000  Uiso   1.00
C302   C     0.68827   0.81492   0.12523   0.00000  Uiso   1.00
C303   C     0.97840   0.85174   0.20810   0.00000  Uiso   1.00
C304   C     0.97822   0.81486   0.12527   0.00000  Uiso   1.00
H305   H     0.88097   0.70884   0.22168   0.00000  Uiso   1.00
H306   H     0.78569   0.95783   0.11166   0.00000  Uiso   1.00
H307   H     0.78572   0.70854   0.11164   0.00000  Uiso   1.00
H308   H     0.88095   0.95812   0.22170   0.00000  Uiso   1.00
I309   I     0.72218   0.78919   0.06202   0.00000  Uiso   1.00
I310   I     0.94448   0.87748   0.27131   0.00000  Uiso   1.00
I311   I     0.94404   0.78866   0.06230   0.00000  Uiso   1.00
I312   I     0.72262   0.87801   0.27103   0.00000  Uiso   1.00
N313   N     0.83333   0.95240   0.16667   0.00000  Uiso   1.00
N314   N     0.83333   0.71427   0.16667   0.00000  Uiso   1.00
O315   O     0.77226   0.87154   0.16666   0.00000  Uiso   1.00
O316   O     0.89441   0.79513   0.16667   0.00000  Uiso   1.00
O317   O     0.89441   0.87154   0.16667   0.00000  Uiso   1.00
O318   O     0.77226   0.79513   0.16666   0.00000  Uiso   1.00
O319   O     0.83334   0.87155   0.09511   0.00000  Uiso   1.00
O320   O     0.83333   0.79512   0.23822   0.00000  Uiso   1.00
O321   O     0.83333   0.87155   0.23822   0.00000  Uiso   1.00
O322   O     0.83334   0.79512   0.09511   0.00000  Uiso   1.00
Zn323  Zn    0.83333   0.88437   0.16667   0.00000  Uiso   1.00
Zn324  Zn    0.83333   0.78229   0.16667   0.00000  Uiso   1.00
C325   C     0.08675   0.16667   0.49997   0.00000  Uiso   1.00
C326   C     0.02178   0.18514   0.54139   0.00000  Uiso   1.00
C327   C     0.29071   0.16664   0.50002   0.00000  Uiso   1.00
C328   C     0.04262   0.16669   0.49998   0.00000  Uiso   1.00
C329   C     0.19312   0.02403   0.53055   0.00000  Uiso   1.00
C330   C     0.14021   0.30931   0.46945   0.00000  Uiso   1.00
C331   C     0.14022   0.02387   0.46944   0.00000  Uiso   1.00
C332   C     0.19312   0.30946   0.53056   0.00000  Uiso   1.00
C333   C     0.24658   0.16666   0.50003   0.00000  Uiso   1.00
C334   C     0.16664   0.16664   0.40623   0.00000  Uiso   1.00
C335   C     0.16669   0.16669   0.59377   0.00000  Uiso   1.00
C336   C     0.16666   0.16663   0.35513   0.00000  Uiso   1.00
C337   C     0.16668   0.16670   0.64487   0.00000  Uiso   1.00
C338   C     0.02160   0.14826   0.45856   0.00000  Uiso   1.00
C339   C     0.31173   0.18508   0.54144   0.00000  Uiso   1.00
C340   C     0.31156   0.14819   0.45861   0.00000  Uiso   1.00
H341   H     0.21431   0.04217   0.55501   0.00000  Uiso   1.00
H342   H     0.11902   0.29116   0.44499   0.00000  Uiso   1.00
H343   H     0.11905   0.04188   0.44497   0.00000  Uiso   1.00
H344   H     0.21428   0.29146   0.55503   0.00000  Uiso   1.00
I345   I     0.05551   0.12252   0.39536   0.00000  Uiso   1.00
I346   I     0.27782   0.21081   0.60465   0.00000  Uiso   1.00
I347   I     0.27738   0.12199   0.39564   0.00000  Uiso   1.00
I348   I     0.05596   0.21134   0.60436   0.00000  Uiso   1.00
N349   N     0.16667   0.28573   0.50000   0.00000  Uiso   1.00
N350   N     0.16667   0.04760   0.50000   0.00000  Uiso   1.00
O351   O     0.10559   0.20487   0.50000   0.00000  Uiso   1.00
O352   O     0.22774   0.12846   0.50000   0.00000  Uiso   1.00
O353   O     0.22774   0.20487   0.50000   0.00000  Uiso   1.00
O354   O     0.10559   0.12846   0.50000   0.00000  Uiso   1.00
O355   O     0.16667   0.20488   0.42845   0.00000  Uiso   1.00
O356   O     0.16666   0.12845   0.57155   0.00000  Uiso   1.00
O357   O     0.16666   0.20488   0.57155   0.00000  Uiso   1.00
O358   O     0.16667   0.12845   0.42845   0.00000  Uiso   1.00
Zn359  Zn    0.16667   0.21771   0.50000   0.00000  Uiso   1.00
Zn360  Zn    0.16667   0.11563   0.50000   0.00000  Uiso   1.00
C361   C     0.42009   0.16667   0.49997   0.00000  Uiso   1.00
C362   C     0.35511   0.18514   0.54139   0.00000  Uiso   1.00
C363   C     0.62404   0.16664   0.50002   0.00000  Uiso   1.00
C364   C     0.37596   0.16669   0.49998   0.00000  Uiso   1.00
C365   C     0.52646   0.02403   0.53055   0.00000  Uiso   1.00
C366   C     0.47354   0.30931   0.46945   0.00000  Uiso   1.00
C367   C     0.47355   0.02387   0.46944   0.00000  Uiso   1.00
C368   C     0.52645   0.30946   0.53056   0.00000  Uiso   1.00
C369   C     0.57991   0.16666   0.50003   0.00000  Uiso   1.00
C370   C     0.49998   0.16664   0.40623   0.00000  Uiso   1.00
C371   C     0.50002   0.16669   0.59377   0.00000  Uiso   1.00
C372   C     0.49999   0.16663   0.35513   0.00000  Uiso   1.00
C373   C     0.50001   0.16670   0.64487   0.00000  Uiso   1.00
C374   C     0.35493   0.14826   0.45856   0.00000  Uiso   1.00
C375   C     0.64507   0.18508   0.54144   0.00000  Uiso   1.00
C376   C     0.64489   0.14819   0.45861   0.00000  Uiso   1.00
H377   H     0.54764   0.04217   0.55501   0.00000  Uiso   1.00
H378   H     0.45236   0.29116   0.44499   0.00000  Uiso   1.00
H379   H     0.45238   0.04188   0.44497   0.00000  Uiso   1.00
H380   H     0.54761   0.29146   0.55503   0.00000  Uiso   1.00
I381   I     0.38885   0.12252   0.39536   0.00000  Uiso   1.00
I382   I     0.61115   0.21081   0.60465   0.00000  Uiso   1.00
I383   I     0.61071   0.12199   0.39564   0.00000  Uiso   1.00
I384   I     0.38929   0.21134   0.60436   0.00000  Uiso   1.00
N385   N     0.50000   0.28573   0.50000   0.00000  Uiso   1.00
N386   N     0.50000   0.04760   0.50000   0.00000  Uiso   1.00
O387   O     0.43892   0.20487   0.50000   0.00000  Uiso   1.00
O388   O     0.56108   0.12846   0.50000   0.00000  Uiso   1.00
O389   O     0.56108   0.20487   0.50000   0.00000  Uiso   1.00
O390   O     0.43892   0.12846   0.50000   0.00000  Uiso   1.00
O391   O     0.50000   0.20488   0.42845   0.00000  Uiso   1.00
O392   O     0.50000   0.12845   0.57155   0.00000  Uiso   1.00
O393   O     0.50000   0.20488   0.57155   0.00000  Uiso   1.00
O394   O     0.50000   0.12845   0.42845   0.00000  Uiso   1.00
Zn395  Zn    0.50000   0.21771   0.50000   0.00000  Uiso   1.00
Zn396  Zn    0.50000   0.11563   0.50000   0.00000  Uiso   1.00
C397   C     0.75342   0.16667   0.49997   0.00000  Uiso   1.00
C398   C     0.68844   0.18514   0.54139   0.00000  Uiso   1.00
C399   C     0.95738   0.16664   0.50002   0.00000  Uiso   1.00
C400   C     0.70929   0.16669   0.49998   0.00000  Uiso   1.00
C401   C     0.85979   0.02403   0.53055   0.00000  Uiso   1.00
C402   C     0.80687   0.30931   0.46945   0.00000  Uiso   1.00
C403   C     0.80688   0.02387   0.46944   0.00000  Uiso   1.00
C404   C     0.85978   0.30946   0.53056   0.00000  Uiso   1.00
C405   C     0.91325   0.16666   0.50003   0.00000  Uiso   1.00
C406   C     0.83331   0.16664   0.40623   0.00000  Uiso   1.00
C407   C     0.83335   0.16669   0.59377   0.00000  Uiso   1.00
C408   C     0.83332   0.16663   0.35513   0.00000  Uiso   1.00
C409   C     0.83334   0.16670   0.64487   0.00000  Uiso   1.00
C410   C     0.68827   0.14826   0.45856   0.00000  Uiso   1.00
C411   C     0.97840   0.18508   0.54144   0.00000  Uiso   1.00
C412   C     0.97822   0.14819   0.45861   0.00000  Uiso   1.00
H413   H     0.88097   0.04217   0.55501   0.00000  Uiso   1.00
H414   H     0.78569   0.29116   0.44499   0.00000  Uiso   1.00
H415   H     0.78572   0.04188   0.44497   0.00000  Uiso   1.00
H416   H     0.88095   0.29146   0.55503   0.00000  Uiso   1.00
I417   I     0.72218   0.12252   0.39536   0.00000  Uiso   1.00
I418   I     0.94448   0.21081   0.60465   0.00000  Uiso   1.00
I419   I     0.94404   0.12199   0.39564   0.00000  Uiso   1.00
I420   I     0.72262   0.21134   0.60436   0.00000  Uiso   1.00
N421   N     0.83333   0.28573   0.50000   0.00000  Uiso   1.00
N422   N     0.83333   0.04760   0.50000   0.00000  Uiso   1.00
O423   O     0.77226   0.20487   0.50000   0.00000  Uiso   1.00
O424   O     0.89441   0.12846   0.50000   0.00000  Uiso   1.00
O425   O     0.89441   0.20487   0.50000   0.00000  Uiso   1.00
O426   O     0.77226   0.12846   0.50000   0.00000  Uiso   1.00
O427   O     0.83334   0.20488   0.42845   0.00000  Uiso   1.00
O428   O     0.83333   0.12845   0.57155   0.00000  Uiso   1.00
O429   O     0.83333   0.20488   0.57155   0.00000  Uiso   1.00
O430   O     0.83334   0.12845   0.42845   0.00000  Uiso   1.00
Zn431  Zn    0.83333   0.21771   0.50000   0.00000  Uiso   1.00
Zn432  Zn    0.83333   0.11563   0.50000   0.00000  Uiso   1.00
C433   C     0.08675   0.50000   0.49997   0.00000  Uiso   1.00
C434   C     0.02178   0.51848   0.54139   0.00000  Uiso   1.00
C435   C     0.29071   0.49998   0.50002   0.00000  Uiso   1.00
C436   C     0.04262   0.50002   0.49998   0.00000  Uiso   1.00
C437   C     0.19312   0.35736   0.53055   0.00000  Uiso   1.00
C438   C     0.14021   0.64264   0.46945   0.00000  Uiso   1.00
C439   C     0.14022   0.35720   0.46944   0.00000  Uiso   1.00
C440   C     0.19312   0.64280   0.53056   0.00000  Uiso   1.00
C441   C     0.24658   0.50000   0.50003   0.00000  Uiso   1.00
C442   C     0.16664   0.49997   0.40623   0.00000  Uiso   1.00
C443   C     0.16669   0.50003   0.59377   0.00000  Uiso   1.00
C444   C     0.16666   0.49996   0.35513   0.00000  Uiso   1.00
C445   C     0.16668   0.50003   0.64487   0.00000  Uiso   1.00
C446   C     0.02160   0.48159   0.45856   0.00000  Uiso   1.00
C447   C     0.31173   0.51841   0.54144   0.00000  Uiso   1.00
C448   C     0.31156   0.48152   0.45861   0.00000  Uiso   1.00
H449   H     0.21431   0.37551   0.55501   0.00000  Uiso   1.00
H450   H     0.11902   0.62449   0.44499   0.00000  Uiso   1.00
H451   H     0.11905   0.37521   0.44497   0.00000  Uiso   1.00
H452   H     0.21428   0.62479   0.55503   0.00000  Uiso   1.00
I453   I     0.05551   0.45585   0.39536   0.00000  Uiso   1.00
I454   I     0.27782   0.54415   0.60465   0.00000  Uiso   1.00
I455   I     0.27738   0.45533   0.39564   0.00000  Uiso   1.00
I456   I     0.05596   0.54467   0.60436   0.00000  Uiso   1.00
N457   N     0.16667   0.61907   0.50000   0.00000  Uiso   1.00
N458   N     0.16667   0.38093   0.50000   0.00000  Uiso   1.00
O459   O     0.10559   0.53821   0.50000   0.00000  Uiso   1.00
O460   O     0.22774   0.46179   0.50000   0.00000  Uiso   1.00
O461   O     0.22774   0.53821   0.50000   0.00000  Uiso   1.00
O462   O     0.10559   0.46179   0.50000   0.00000  Uiso   1.00
O463   O     0.16667   0.53821   0.42845   0.00000  Uiso   1.00
O464   O     0.16666   0.46179   0.57155   0.00000  Uiso   1.00
O465   O     0.16666   0.53821   0.57155   0.00000  Uiso   1.00
O466   O     0.16667   0.46179   0.42845   0.00000  Uiso   1.00
Zn467  Zn    0.16667   0.55104   0.50000   0.00000  Uiso   1.00
Zn468  Zn    0.16667   0.44896   0.50000   0.00000  Uiso   1.00
C469   C     0.42009   0.50000   0.49997   0.00000  Uiso   1.00
C470   C     0.35511   0.51848   0.54139   0.00000  Uiso   1.00
C471   C     0.62404   0.49998   0.50002   0.00000  Uiso   1.00
C472   C     0.37596   0.50002   0.49998   0.00000  Uiso   1.00
C473   C     0.52646   0.35736   0.53055   0.00000  Uiso   1.00
C474   C     0.47354   0.64264   0.46945   0.00000  Uiso   1.00
C475   C     0.47355   0.35720   0.46944   0.00000  Uiso   1.00
C476   C     0.52645   0.64280   0.53056   0.00000  Uiso   1.00
C477   C     0.57991   0.50000   0.50003   0.00000  Uiso   1.00
C478   C     0.49998   0.49997   0.40623   0.00000  Uiso   1.00
C479   C     0.50002   0.50003   0.59377   0.00000  Uiso   1.00
C480   C     0.49999   0.49996   0.35513   0.00000  Uiso   1.00
C481   C     0.50001   0.50003   0.64487   0.00000  Uiso   1.00
C482   C     0.35493   0.48159   0.45856   0.00000  Uiso   1.00
C483   C     0.64507   0.51841   0.54144   0.00000  Uiso   1.00
C484   C     0.64489   0.48152   0.45861   0.00000  Uiso   1.00
H485   H     0.54764   0.37551   0.55501   0.00000  Uiso   1.00
H486   H     0.45236   0.62449   0.44499   0.00000  Uiso   1.00
H487   H     0.45238   0.37521   0.44497   0.00000  Uiso   1.00
H488   H     0.54761   0.62479   0.55503   0.00000  Uiso   1.00
I489   I     0.38885   0.45585   0.39536   0.00000  Uiso   1.00
I490   I     0.61115   0.54415   0.60465   0.00000  Uiso   1.00
I491   I     0.61071   0.45533   0.39564   0.00000  Uiso   1.00
I492   I     0.38929   0.54467   0.60436   0.00000  Uiso   1.00
N493   N     0.50000   0.61907   0.50000   0.00000  Uiso   1.00
N494   N     0.50000   0.38093   0.50000   0.00000  Uiso   1.00
O495   O     0.43892   0.53821   0.50000   0.00000  Uiso   1.00
O496   O     0.56108   0.46179   0.50000   0.00000  Uiso   1.00
O497   O     0.56108   0.53821   0.50000   0.00000  Uiso   1.00
O498   O     0.43892   0.46179   0.50000   0.00000  Uiso   1.00
O499   O     0.50000   0.53821   0.42845   0.00000  Uiso   1.00
O500   O     0.50000   0.46179   0.57155   0.00000  Uiso   1.00
O501   O     0.50000   0.53821   0.57155   0.00000  Uiso   1.00
O502   O     0.50000   0.46179   0.42845   0.00000  Uiso   1.00
Zn503  Zn    0.50000   0.55104   0.50000   0.00000  Uiso   1.00
Zn504  Zn    0.50000   0.44896   0.50000   0.00000  Uiso   1.00
C505   C     0.75342   0.50000   0.49997   0.00000  Uiso   1.00
C506   C     0.68844   0.51848   0.54139   0.00000  Uiso   1.00
C507   C     0.95738   0.49998   0.50002   0.00000  Uiso   1.00
C508   C     0.70929   0.50002   0.49998   0.00000  Uiso   1.00
C509   C     0.85979   0.35736   0.53055   0.00000  Uiso   1.00
C510   C     0.80687   0.64264   0.46945   0.00000  Uiso   1.00
C511   C     0.80688   0.35720   0.46944   0.00000  Uiso   1.00
C512   C     0.85978   0.64280   0.53056   0.00000  Uiso   1.00
C513   C     0.91325   0.50000   0.50003   0.00000  Uiso   1.00
C514   C     0.83331   0.49997   0.40623   0.00000  Uiso   1.00
C515   C     0.83335   0.50003   0.59377   0.00000  Uiso   1.00
C516   C     0.83332   0.49996   0.35513   0.00000  Uiso   1.00
C517   C     0.83334   0.50003   0.64487   0.00000  Uiso   1.00
C518   C     0.68827   0.48159   0.45856   0.00000  Uiso   1.00
C519   C     0.97840   0.51841   0.54144   0.00000  Uiso   1.00
C520   C     0.97822   0.48152   0.45861   0.00000  Uiso   1.00
H521   H     0.88097   0.37551   0.55501   0.00000  Uiso   1.00
H522   H     0.78569   0.62449   0.44499   0.00000  Uiso   1.00
H523   H     0.78572   0.37521   0.44497   0.00000  Uiso   1.00
H524   H     0.88095   0.62479   0.55503   0.00000  Uiso   1.00
I525   I     0.72218   0.45585   0.39536   0.00000  Uiso   1.00
I526   I     0.94448   0.54415   0.60465   0.00000  Uiso   1.00
I527   I     0.94404   0.45533   0.39564   0.00000  Uiso   1.00
I528   I     0.72262   0.54467   0.60436   0.00000  Uiso   1.00
N529   N     0.83333   0.61907   0.50000   0.00000  Uiso   1.00
N530   N     0.83333   0.38093   0.50000   0.00000  Uiso   1.00
O531   O     0.77226   0.53821   0.50000   0.00000  Uiso   1.00
O532   O     0.89441   0.46179   0.50000   0.00000  Uiso   1.00
O533   O     0.89441   0.53821   0.50000   0.00000  Uiso   1.00
O534   O     0.77226   0.46179   0.50000   0.00000  Uiso   1.00
O535   O     0.83334   0.53821   0.42845   0.00000  Uiso   1.00
O536   O     0.83333   0.46179   0.57155   0.00000  Uiso   1.00
O537   O     0.83333   0.53821   0.57155   0.00000  Uiso   1.00
O538   O     0.83334   0.46179   0.42845   0.00000  Uiso   1.00
Zn539  Zn    0.83333   0.55104   0.50000   0.00000  Uiso   1.00
Zn540  Zn    0.83333   0.44896   0.50000   0.00000  Uiso   1.00
C541   C     0.08675   0.83334   0.49997   0.00000  Uiso   1.00
C542   C     0.02178   0.85181   0.54139   0.00000  Uiso   1.00
C543   C     0.29071   0.83331   0.50002   0.00000  Uiso   1.00
C544   C     0.04262   0.83336   0.49998   0.00000  Uiso   1.00
C545   C     0.19312   0.69069   0.53055   0.00000  Uiso   1.00
C546   C     0.14021   0.97597   0.46945   0.00000  Uiso   1.00
C547   C     0.14022   0.69054   0.46944   0.00000  Uiso   1.00
C548   C     0.19312   0.97613   0.53056   0.00000  Uiso   1.00
C549   C     0.24658   0.83333   0.50003   0.00000  Uiso   1.00
C550   C     0.16664   0.83331   0.40623   0.00000  Uiso   1.00
C551   C     0.16669   0.83336   0.59377   0.00000  Uiso   1.00
C552   C     0.16666   0.83330   0.35513   0.00000  Uiso   1.00
C553   C     0.16668   0.83337   0.64487   0.00000  Uiso   1.00
C554   C     0.02160   0.81492   0.45856   0.00000  Uiso   1.00
C555   C     0.31173   0.85174   0.54144   0.00000  Uiso   1.00
C556   C     0.31156   0.81486   0.45861   0.00000  Uiso   1.00
H557   H     0.21431   0.70884   0.55501   0.00000  Uiso   1.00
H558   H     0.11902   0.95783   0.44499   0.00000  Uiso   1.00
H559   H     0.11905   0.70854   0.44497   0.00000  Uiso   1.00
H560   H     0.21428   0.95812   0.55503   0.00000  Uiso   1.00
I561   I     0.05551   0.78919   0.39536   0.00000  Uiso   1.00
I562   I     0.27782   0.87748   0.60465   0.00000  Uiso   1.00
I563   I     0.27738   0.78866   0.39564   0.00000  Uiso   1.00
I564   I     0.05596   0.87801   0.60436   0.00000  Uiso   1.00
N565   N     0.16667   0.95240   0.50000   0.00000  Uiso   1.00
N566   N     0.16667   0.71427   0.50000   0.00000  Uiso   1.00
O567   O     0.10559   0.87154   0.50000   0.00000  Uiso   1.00
O568   O     0.22774   0.79513   0.50000   0.00000  Uiso   1.00
O569   O     0.22774   0.87154   0.50000   0.00000  Uiso   1.00
O570   O     0.10559   0.79513   0.50000   0.00000  Uiso   1.00
O571   O     0.16667   0.87155   0.42845   0.00000  Uiso   1.00
O572   O     0.16666   0.79512   0.57155   0.00000  Uiso   1.00
O573   O     0.16666   0.87155   0.57155   0.00000  Uiso   1.00
O574   O     0.16667   0.79512   0.42845   0.00000  Uiso   1.00
Zn575  Zn    0.16667   0.88437   0.50000   0.00000  Uiso   1.00
Zn576  Zn    0.16667   0.78229   0.50000   0.00000  Uiso   1.00
C577   C     0.42009   0.83334   0.49997   0.00000  Uiso   1.00
C578   C     0.35511   0.85181   0.54139   0.00000  Uiso   1.00
C579   C     0.62404   0.83331   0.50002   0.00000  Uiso   1.00
C580   C     0.37596   0.83336   0.49998   0.00000  Uiso   1.00
C581   C     0.52646   0.69069   0.53055   0.00000  Uiso   1.00
C582   C     0.47354   0.97597   0.46945   0.00000  Uiso   1.00
C583   C     0.47355   0.69054   0.46944   0.00000  Uiso   1.00
C584   C     0.52645   0.97613   0.53056   0.00000  Uiso   1.00
C585   C     0.57991   0.83333   0.50003   0.00000  Uiso   1.00
C586   C     0.49998   0.83331   0.40623   0.00000  Uiso   1.00
C587   C     0.50002   0.83336   0.59377   0.00000  Uiso   1.00
C588   C     0.49999   0.83330   0.35513   0.00000  Uiso   1.00
C589   C     0.50001   0.83337   0.64487   0.00000  Uiso   1.00
C590   C     0.35493   0.81492   0.45856   0.00000  Uiso   1.00
C591   C     0.64507   0.85174   0.54144   0.00000  Uiso   1.00
C592   C     0.64489   0.81486   0.45861   0.00000  Uiso   1.00
H593   H     0.54764   0.70884   0.55501   0.00000  Uiso   1.00
H594   H     0.45236   0.95783   0.44499   0.00000  Uiso   1.00
H595   H     0.45238   0.70854   0.44497   0.00000  Uiso   1.00
H596   H     0.54761   0.95812   0.55503   0.00000  Uiso   1.00
I597   I     0.38885   0.78919   0.39536   0.00000  Uiso   1.00
I598   I     0.61115   0.87748   0.60465   0.00000  Uiso   1.00
I599   I     0.61071   0.78866   0.39564   0.00000  Uiso   1.00
I600   I     0.38929   0.87801   0.60436   0.00000  Uiso   1.00
N601   N     0.50000   0.95240   0.50000   0.00000  Uiso   1.00
N602   N     0.50000   0.71427   0.50000   0.00000  Uiso   1.00
O603   O     0.43892   0.87154   0.50000   0.00000  Uiso   1.00
O604   O     0.56108   0.79513   0.50000   0.00000  Uiso   1.00
O605   O     0.56108   0.87154   0.50000   0.00000  Uiso   1.00
O606   O     0.43892   0.79513   0.50000   0.00000  Uiso   1.00
O607   O     0.50000   0.87155   0.42845   0.00000  Uiso   1.00
O608   O     0.50000   0.79512   0.57155   0.00000  Uiso   1.00
O609   O     0.50000   0.87155   0.57155   0.00000  Uiso   1.00
O610   O     0.50000   0.79512   0.42845   0.00000  Uiso   1.00
Zn611  Zn    0.50000   0.88437   0.50000   0.00000  Uiso   1.00
Zn612  Zn    0.50000   0.78229   0.50000   0.00000  Uiso   1.00
C613   C     0.75342   0.83334   0.49997   0.00000  Uiso   1.00
C614   C     0.68844   0.85181   0.54139   0.00000  Uiso   1.00
C615   C     0.95738   0.83331   0.50002   0.00000  Uiso   1.00
C616   C     0.70929   0.83336   0.49998   0.00000  Uiso   1.00
C617   C     0.85979   0.69069   0.53055   0.00000  Uiso   1.00
C618   C     0.80687   0.97597   0.46945   0.00000  Uiso   1.00
C619   C     0.80688   0.69054   0.46944   0.00000  Uiso   1.00
C620   C     0.85978   0.97613   0.53056   0.00000  Uiso   1.00
C621   C     0.91325   0.83333   0.50003   0.00000  Uiso   1.00
C622   C     0.83331   0.83331   0.40623   0.00000  Uiso   1.00
C623   C     0.83335   0.83336   0.59377   0.00000  Uiso   1.00
C624   C     0.83332   0.83330   0.35513   0.00000  Uiso   1.00
C625   C     0.83334   0.83337   0.64487   0.00000  Uiso   1.00
C626   C     0.68827   0.81492   0.45856   0.00000  Uiso   1.00
C627   C     0.97840   0.85174   0.54144   0.00000  Uiso   1.00
C628   C     0.97822   0.81486   0.45861   0.00000  Uiso   1.00
H629   H     0.88097   0.70884   0.55501   0.00000  Uiso   1.00
H630   H     0.78569   0.95783   0.44499   0.00000  Uiso   1.00
H631   H     0.78572   0.70854   0.44497   0.00000  Uiso   1.00
H632   H     0.88095   0.95812   0.55503   0.00000  Uiso   1.00
I633   I     0.72218   0.78919   0.39536   0.00000  Uiso   1.00
I634   I     0.94448   0.87748   0.60465   0.00000  Uiso   1.00
I635   I     0.94404   0.78866   0.39564   0.00000  Uiso   1.00
I636   I     0.72262   0.87801   0.60436   0.00000  Uiso   1.00
N637   N     0.83333   0.95240   0.50000   0.00000  Uiso   1.00
N638   N     0.83333   0.71427   0.50000   0.00000  Uiso   1.00
O639   O     0.77226   0.87154   0.50000   0.00000  Uiso   1.00
O640   O     0.89441   0.79513   0.50000   0.00000  Uiso   1.00
O641   O     0.89441   0.87154   0.50000   0.00000  Uiso   1.00
O642   O     0.77226   0.79513   0.50000   0.00000  Uiso   1.00
O643   O     0.83334   0.87155   0.42845   0.00000  Uiso   1.00
O644   O     0.83333   0.79512   0.57155   0.00000  Uiso   1.00
O645   O     0.83333   0.87155   0.57155   0.00000  Uiso   1.00
O646   O     0.83334   0.79512   0.42845   0.00000  Uiso   1.00
Zn647  Zn    0.83333   0.88437   0.50000   0.00000  Uiso   1.00
Zn648  Zn    0.83333   0.78229   0.50000   0.00000  Uiso   1.00
C649   C     0.08675   0.16667   0.83331   0.00000  Uiso   1.00
C650   C     0.02178   0.18514   0.87473   0.00000  Uiso   1.00
C651   C     0.29071   0.16664   0.83336   0.00000  Uiso   1.00
C652   C     0.04262   0.16669   0.83331   0.00000  Uiso   1.00
C653   C     0.19312   0.02403   0.86388   0.00000  Uiso   1.00
C654   C     0.14021   0.30931   0.80278   0.00000  Uiso   1.00
C655   C     0.14022   0.02387   0.80278   0.00000  Uiso   1.00
C656   C     0.19312   0.30946   0.86389   0.00000  Uiso   1.00
C657   C     0.24658   0.16666   0.83336   0.00000  Uiso   1.00
C658   C     0.16664   0.16664   0.73956   0.00000  Uiso   1.00
C659   C     0.16669   0.16669   0.92710   0.00000  Uiso   1.00
C660   C     0.16666   0.16663   0.68846   0.00000  Uiso   1.00
C661   C     0.16668   0.16670   0.97821   0.00000  Uiso   1.00
C662   C     0.02160   0.14826   0.79190   0.00000  Uiso   1.00
C663   C     0.31173   0.18508   0.87477   0.00000  Uiso   1.00
C664   C     0.31156   0.14819   0.79194   0.00000  Uiso   1.00
H665   H     0.21431   0.04217   0.88834   0.00000  Uiso   1.00
H666   H     0.11902   0.29116   0.77832   0.00000  Uiso   1.00
H667   H     0.11905   0.04188   0.77830   0.00000  Uiso   1.00
H668   H     0.21428   0.29146   0.88837   0.00000  Uiso   1.00
I669   I     0.05551   0.12252   0.72869   0.00000  Uiso   1.00
I670   I     0.27782   0.21081   0.93798   0.00000  Uiso   1.00
I671   I     0.27738   0.12199   0.72897   0.00000  Uiso   1.00
I672   I     0.05596   0.21134   0.93770   0.00000  Uiso   1.00
N673   N     0.16667   0.28573   0.83333   0.00000  Uiso   1.00
N674   N     0.16667   0.04760   0.83333   0.00000  Uiso   1.00
O675   O     0.10559   0.20487   0.83333   0.00000  Uiso   1.00
O676   O     0.22774   0.12846   0.83334   0.00000  Uiso   1.00
O677   O     0.22774   0.20487   0.83334   0.00000  Uiso   1.00
O678   O     0.10559   0.12846   0.83333   0.00000  Uiso   1.00
O679   O     0.16667   0.20488   0.76178   0.00000  Uiso   1.00
O680   O     0.16666   0.12845   0.90489   0.00000  Uiso   1.00
O681   O     0.16666   0.20488   0.90489   0.00000  Uiso   1.00
O682   O     0.16667   0.12845   0.76178   0.00000  Uiso   1.00
Zn683  Zn    0.16667   0.21771   0.83333   0.00000  Uiso   1.00
Zn684  Zn    0.16667   0.11563   0.83333   0.00000  Uiso   1.00
C685   C     0.42009   0.16667   0.83331   0.00000  Uiso   1.00
C686   C     0.35511   0.18514   0.87473   0.00000  Uiso   1.00
C687   C     0.62404   0.16664   0.83336   0.00000  Uiso   1.00
C688   C     0.37596   0.16669   0.83331   0.00000  Uiso   1.00
C689   C     0.52646   0.02403   0.86388   0.00000  Uiso   1.00
C690   C     0.47354   0.30931   0.80278   0.00000  Uiso   1.00
C691   C     0.47355   0.02387   0.80278   0.00000  Uiso   1.00
C692   C     0.52645   0.30946   0.86389   0.00000  Uiso   1.00
C693   C     0.57991   0.16666   0.83336   0.00000  Uiso   1.00
C694   C     0.49998   0.16664   0.73956   0.00000  Uiso   1.00
C695   C     0.50002   0.16669   0.92710   0.00000  Uiso   1.00
C696   C     0.49999   0.16663   0.68846   0.00000  Uiso   1.00
C697   C     0.50001   0.16670   0.97821   0.00000  Uiso   1.00
C698   C     0.35493   0.14826   0.79190   0.00000  Uiso   1.00
C699   C     0.64507   0.18508   0.87477   0.00000  Uiso   1.00
C700   C     0.64489   0.14819   0.79194   0.00000  Uiso   1.00
H701   H     0.54764   0.04217   0.88834   0.00000  Uiso   1.00
H702   H     0.45236   0.29116   0.77832   0.00000  Uiso   1.00
H703   H     0.45238   0.04188   0.77830   0.00000  Uiso   1.00
H704   H     0.54761   0.29146   0.88837   0.00000  Uiso   1.00
I705   I     0.38885   0.12252   0.72869   0.00000  Uiso   1.00
I706   I     0.61115   0.21081   0.93798   0.00000  Uiso   1.00
I707   I     0.61071   0.12199   0.72897   0.00000  Uiso   1.00
I708   I     0.38929   0.21134   0.93770   0.00000  Uiso   1.00
N709   N     0.50000   0.28573   0.83333   0.00000  Uiso   1.00
N710   N     0.50000   0.04760   0.83333   0.00000  Uiso   1.00
O711   O     0.43892   0.20487   0.83333   0.00000  Uiso   1.00
O712   O     0.56108   0.12846   0.83334   0.00000  Uiso   1.00
O713   O     0.56108   0.20487   0.83334   0.00000  Uiso   1.00
O714   O     0.43892   0.12846   0.83333   0.00000  Uiso   1.00
O715   O     0.50000   0.20488   0.76178   0.00000  Uiso   1.00
O716   O     0.50000   0.12845   0.90489   0.00000  Uiso   1.00
O717   O     0.50000   0.20488   0.90489   0.00000  Uiso   1.00
O718   O     0.50000   0.12845   0.76178   0.00000  Uiso   1.00
Zn719  Zn    0.50000   0.21771   0.83333   0.00000  Uiso   1.00
Zn720  Zn    0.50000   0.11563   0.83333   0.00000  Uiso   1.00
C721   C     0.75342   0.16667   0.83331   0.00000  Uiso   1.00
C722   C     0.68844   0.18514   0.87473   0.00000  Uiso   1.00
C723   C     0.95738   0.16664   0.83336   0.00000  Uiso   1.00
C724   C     0.70929   0.16669   0.83331   0.00000  Uiso   1.00
C725   C     0.85979   0.02403   0.86388   0.00000  Uiso   1.00
C726   C     0.80687   0.30931   0.80278   0.00000  Uiso   1.00
C727   C     0.80688   0.02387   0.80278   0.00000  Uiso   1.00
C728   C     0.85978   0.30946   0.86389   0.00000  Uiso   1.00
C729   C     0.91325   0.16666   0.83336   0.00000  Uiso   1.00
C730   C     0.83331   0.16664   0.73956   0.00000  Uiso   1.00
C731   C     0.83335   0.16669   0.92710   0.00000  Uiso   1.00
C732   C     0.83332   0.16663   0.68846   0.00000  Uiso   1.00
C733   C     0.83334   0.16670   0.97821   0.00000  Uiso   1.00
C734   C     0.68827   0.14826   0.79190   0.00000  Uiso   1.00
C735   C     0.97840   0.18508   0.87477   0.00000  Uiso   1.00
C736   C     0.97822   0.14819   0.79194   0.00000  Uiso   1.00
H737   H     0.88097   0.04217   0.88834   0.00000  Uiso   1.00
H738   H     0.78569   0.29116   0.77832   0.00000  Uiso   1.00
H739   H     0.78572   0.04188   0.77830   0.00000  Uiso   1.00
H740   H     0.88095   0.29146   0.88837   0.00000  Uiso   1.00
I741   I     0.72218   0.12252   0.72869   0.00000  Uiso   1.00
I742   I     0.94448   0.21081   0.93798   0.00000  Uiso   1.00
I743   I     0.94404   0.12199   0.72897   0.00000  Uiso   1.00
I744   I     0.72262   0.21134   0.93770   0.00000  Uiso   1.00
N745   N     0.83333   0.28573   0.83333   0.00000  Uiso   1.00
N746   N     0.83333   0.04760   0.83333   0.00000  Uiso   1.00
O747   O     0.77226   0.20487   0.83333   0.00000  Uiso   1.00
O748   O     0.89441   0.12846   0.83334   0.00000  Uiso   1.00
O749   O     0.89441   0.20487   0.83334   0.00000  Uiso   1.00
O750   O     0.77226   0.12846   0.83333   0.00000  Uiso   1.00
O751   O     0.83334   0.20488   0.76178   0.00000  Uiso   1.00
O752   O     0.83333   0.12845   0.90489   0.00000  Uiso   1.00
O753   O     0.83333   0.20488   0.90489   0.00000  Uiso   1.00
O754   O     0.83334   0.12845   0.76178   0.00000  Uiso   1.00
Zn755  Zn    0.83333   0.21771   0.83333   0.00000  Uiso   1.00
Zn756  Zn    0.83333   0.11563   0.83333   0.00000  Uiso   1.00
C757   C     0.08675   0.50000   0.83331   0.00000  Uiso   1.00
C758   C     0.02178   0.51848   0.87473   0.00000  Uiso   1.00
C759   C     0.29071   0.49998   0.83336   0.00000  Uiso   1.00
C760   C     0.04262   0.50002   0.83331   0.00000  Uiso   1.00
C761   C     0.19312   0.35736   0.86388   0.00000  Uiso   1.00
C762   C     0.14021   0.64264   0.80278   0.00000  Uiso   1.00
C763   C     0.14022   0.35720   0.80278   0.00000  Uiso   1.00
C764   C     0.19312   0.64280   0.86389   0.00000  Uiso   1.00
C765   C     0.24658   0.50000   0.83336   0.00000  Uiso   1.00
C766   C     0.16664   0.49997   0.73956   0.00000  Uiso   1.00
C767   C     0.16669   0.50003   0.92710   0.00000  Uiso   1.00
C768   C     0.16666   0.49996   0.68846   0.00000  Uiso   1.00
C769   C     0.16668   0.50003   0.97821   0.00000  Uiso   1.00
C770   C     0.02160   0.48159   0.79190   0.00000  Uiso   1.00
C771   C     0.31173   0.51841   0.87477   0.00000  Uiso   1.00
C772   C     0.31156   0.48152   0.79194   0.00000  Uiso   1.00
H773   H     0.21431   0.37551   0.88834   0.00000  Uiso   1.00
H774   H     0.11902   0.62449   0.77832   0.00000  Uiso   1.00
H775   H     0.11905   0.37521   0.77830   0.00000  Uiso   1.00
H776   H     0.21428   0.62479   0.88837   0.00000  Uiso   1.00
I777   I     0.05551   0.45585   0.72869   0.00000  Uiso   1.00
I778   I     0.27782   0.54415   0.93798   0.00000  Uiso   1.00
I779   I     0.27738   0.45533   0.72897   0.00000  Uiso   1.00
I780   I     0.05596   0.54467   0.93770   0.00000  Uiso   1.00
N781   N     0.16667   0.61907   0.83333   0.00000  Uiso   1.00
N782   N     0.16667   0.38093   0.83333   0.00000  Uiso   1.00
O783   O     0.10559   0.53821   0.83333   0.00000  Uiso   1.00
O784   O     0.22774   0.46179   0.83334   0.00000  Uiso   1.00
O785   O     0.22774   0.53821   0.83334   0.00000  Uiso   1.00
O786   O     0.10559   0.46179   0.83333   0.00000  Uiso   1.00
O787   O     0.16667   0.53821   0.76178   0.00000  Uiso   1.00
O788   O     0.16666   0.46179   0.90489   0.00000  Uiso   1.00
O789   O     0.16666   0.53821   0.90489   0.00000  Uiso   1.00
O790   O     0.16667   0.46179   0.76178   0.00000  Uiso   1.00
Zn791  Zn    0.16667   0.55104   0.83333   0.00000  Uiso   1.00
Zn792  Zn    0.16667   0.44896   0.83333   0.00000  Uiso   1.00
C793   C     0.42009   0.50000   0.83331   0.00000  Uiso   1.00
C794   C     0.35511   0.51848   0.87473   0.00000  Uiso   1.00
C795   C     0.62404   0.49998   0.83336   0.00000  Uiso   1.00
C796   C     0.37596   0.50002   0.83331   0.00000  Uiso   1.00
C797   C     0.52646   0.35736   0.86388   0.00000  Uiso   1.00
C798   C     0.47354   0.64264   0.80278   0.00000  Uiso   1.00
C799   C     0.47355   0.35720   0.80278   0.00000  Uiso   1.00
C800   C     0.52645   0.64280   0.86389   0.00000  Uiso   1.00
C801   C     0.57991   0.50000   0.83336   0.00000  Uiso   1.00
C802   C     0.49998   0.49997   0.73956   0.00000  Uiso   1.00
C803   C     0.50002   0.50003   0.92710   0.00000  Uiso   1.00
C804   C     0.49999   0.49996   0.68846   0.00000  Uiso   1.00
C805   C     0.50001   0.50003   0.97821   0.00000  Uiso   1.00
C806   C     0.35493   0.48159   0.79190   0.00000  Uiso   1.00
C807   C     0.64507   0.51841   0.87477   0.00000  Uiso   1.00
C808   C     0.64489   0.48152   0.79194   0.00000  Uiso   1.00
H809   H     0.54764   0.37551   0.88834   0.00000  Uiso   1.00
H810   H     0.45236   0.62449   0.77832   0.00000  Uiso   1.00
H811   H     0.45238   0.37521   0.77830   0.00000  Uiso   1.00
H812   H     0.54761   0.62479   0.88837   0.00000  Uiso   1.00
I813   I     0.38885   0.45585   0.72869   0.00000  Uiso   1.00
I814   I     0.61115   0.54415   0.93798   0.00000  Uiso   1.00
I815   I     0.61071   0.45533   0.72897   0.00000  Uiso   1.00
I816   I     0.38929   0.54467   0.93770   0.00000  Uiso   1.00
N817   N     0.50000   0.61907   0.83333   0.00000  Uiso   1.00
N818   N     0.50000   0.38093   0.83333   0.00000  Uiso   1.00
O819   O     0.43892   0.53821   0.83333   0.00000  Uiso   1.00
O820   O     0.56108   0.46179   0.83334   0.00000  Uiso   1.00
O821   O     0.56108   0.53821   0.83334   0.00000  Uiso   1.00
O822   O     0.43892   0.46179   0.83333   0.00000  Uiso   1.00
O823   O     0.50000   0.53821   0.76178   0.00000  Uiso   1.00
O824   O     0.50000   0.46179   0.90489   0.00000  Uiso   1.00
O825   O     0.50000   0.53821   0.90489   0.00000  Uiso   1.00
O826   O     0.50000   0.46179   0.76178   0.00000  Uiso   1.00
Zn827  Zn    0.50000   0.55104   0.83333   0.00000  Uiso   1.00
Zn828  Zn    0.50000   0.44896   0.83333   0.00000  Uiso   1.00
C829   C     0.75342   0.50000   0.83331   0.00000  Uiso   1.00
C830   C     0.68844   0.51848   0.87473   0.00000  Uiso   1.00
C831   C     0.95738   0.49998   0.83336   0.00000  Uiso   1.00
C832   C     0.70929   0.50002   0.83331   0.00000  Uiso   1.00
C833   C     0.85979   0.35736   0.86388   0.00000  Uiso   1.00
C834   C     0.80687   0.64264   0.80278   0.00000  Uiso   1.00
C835   C     0.80688   0.35720   0.80278   0.00000  Uiso   1.00
C836   C     0.85978   0.64280   0.86389   0.00000  Uiso   1.00
C837   C     0.91325   0.50000   0.83336   0.00000  Uiso   1.00
C838   C     0.83331   0.49997   0.73956   0.00000  Uiso   1.00
C839   C     0.83335   0.50003   0.92710   0.00000  Uiso   1.00
C840   C     0.83332   0.49996   0.68846   0.00000  Uiso   1.00
C841   C     0.83334   0.50003   0.97821   0.00000  Uiso   1.00
C842   C     0.68827   0.48159   0.79190   0.00000  Uiso   1.00
C843   C     0.97840   0.51841   0.87477   0.00000  Uiso   1.00
C844   C     0.97822   0.48152   0.79194   0.00000  Uiso   1.00
H845   H     0.88097   0.37551   0.88834   0.00000  Uiso   1.00
H846   H     0.78569   0.62449   0.77832   0.00000  Uiso   1.00
H847   H     0.78572   0.37521   0.77830   0.00000  Uiso   1.00
H848   H     0.88095   0.62479   0.88837   0.00000  Uiso   1.00
I849   I     0.72218   0.45585   0.72869   0.00000  Uiso   1.00
I850   I     0.94448   0.54415   0.93798   0.00000  Uiso   1.00
I851   I     0.94404   0.45533   0.72897   0.00000  Uiso   1.00
I852   I     0.72262   0.54467   0.93770   0.00000  Uiso   1.00
N853   N     0.83333   0.61907   0.83333   0.00000  Uiso   1.00
N854   N     0.83333   0.38093   0.83333   0.00000  Uiso   1.00
O855   O     0.77226   0.53821   0.83333   0.00000  Uiso   1.00
O856   O     0.89441   0.46179   0.83334   0.00000  Uiso   1.00
O857   O     0.89441   0.53821   0.83334   0.00000  Uiso   1.00
O858   O     0.77226   0.46179   0.83333   0.00000  Uiso   1.00
O859   O     0.83334   0.53821   0.76178   0.00000  Uiso   1.00
O860   O     0.83333   0.46179   0.90489   0.00000  Uiso   1.00
O861   O     0.83333   0.53821   0.90489   0.00000  Uiso   1.00
O862   O     0.83334   0.46179   0.76178   0.00000  Uiso   1.00
Zn863  Zn    0.83333   0.55104   0.83333   0.00000  Uiso   1.00
Zn864  Zn    0.83333   0.44896   0.83333   0.00000  Uiso   1.00
C865   C     0.08675   0.83334   0.83331   0.00000  Uiso   1.00
C866   C     0.02178   0.85181   0.87473   0.00000  Uiso   1.00
C867   C     0.29071   0.83331   0.83336   0.00000  Uiso   1.00
C868   C     0.04262   0.83336   0.83331   0.00000  Uiso   1.00
C869   C     0.19312   0.69069   0.86388   0.00000  Uiso   1.00
C870   C     0.14021   0.97597   0.80278   0.00000  Uiso   1.00
C871   C     0.14022   0.69054   0.80278   0.00000  Uiso   1.00
C872   C     0.19312   0.97613   0.86389   0.00000  Uiso   1.00
C873   C     0.24658   0.83333   0.83336   0.00000  Uiso   1.00
C874   C     0.16664   0.83331   0.73956   0.00000  Uiso   1.00
C875   C     0.16669   0.83336   0.92710   0.00000  Uiso   1.00
C876   C     0.16666   0.83330   0.68846   0.00000  Uiso   1.00
C877   C     0.16668   0.83337   0.97821   0.00000  Uiso   1.00
C878   C     0.02160   0.81492   0.79190   0.00000  Uiso   1.00
C879   C     0.31173   0.85174   0.87477   0.00000  Uiso   1.00
C880   C     0.31156   0.81486   0.79194   0.00000  Uiso   1.00
H881   H     0.21431   0.70884   0.88834   0.00000  Uiso   1.00
H882   H     0.11902   0.95783   0.77832   0.00000  Uiso   1.00
H883   H     0.11905   0.70854   0.77830   0.00000  Uiso   1.00
H884   H     0.21428   0.95812   0.88837   0.00000  Uiso   1.00
I885   I     0.05551   0.78919   0.72869   0.00000  Uiso   1.00
I886   I     0.27782   0.87748   0.93798   0.00000  Uiso   1.00
I887   I     0.27738   0.78866   0.72897   0.00000  Uiso   1.00
I888   I     0.05596   0.87801   0.93770   0.00000  Uiso   1.00
N889   N     0.16667   0.95240   0.83333   0.00000  Uiso   1.00
N890   N     0.16667   0.71427   0.83333   0.00000  Uiso   1.00
O891   O     0.10559   0.87154   0.83333   0.00000  Uiso   1.00
O892   O     0.22774   0.79513   0.83334   0.00000  Uiso   1.00
O893   O     0.22774   0.87154   0.83334   0.00000  Uiso   1.00
O894   O     0.10559   0.79513   0.83333   0.00000  Uiso   1.00
O895   O     0.16667   0.87155   0.76178   0.00000  Uiso   1.00
O896   O     0.16666   0.79512   0.90489   0.00000  Uiso   1.00
O897   O     0.16666   0.87155   0.90489   0.00000  Uiso   1.00
O898   O     0.16667   0.79512   0.76178   0.00000  Uiso   1.00
Zn899  Zn    0.16667   0.88437   0.83333   0.00000  Uiso   1.00
Zn900  Zn    0.16667   0.78229   0.83333   0.00000  Uiso   1.00
C901   C     0.42009   0.83334   0.83331   0.00000  Uiso   1.00
C902   C     0.35511   0.85181   0.87473   0.00000  Uiso   1.00
C903   C     0.62404   0.83331   0.83336   0.00000  Uiso   1.00
C904   C     0.37596   0.83336   0.83331   0.00000  Uiso   1.00
C905   C     0.52646   0.69069   0.86388   0.00000  Uiso   1.00
C906   C     0.47354   0.97597   0.80278   0.00000  Uiso   1.00
C907   C     0.47355   0.69054   0.80278   0.00000  Uiso   1.00
C908   C     0.52645   0.97613   0.86389   0.00000  Uiso   1.00
C909   C     0.57991   0.83333   0.83336   0.00000  Uiso   1.00
C910   C     0.49998   0.83331   0.73956   0.00000  Uiso   1.00
C911   C     0.50002   0.83336   0.92710   0.00000  Uiso   1.00
C912   C     0.49999   0.83330   0.68846   0.00000  Uiso   1.00
C913   C     0.50001   0.83337   0.97821   0.00000  Uiso   1.00
C914   C     0.35493   0.81492   0.79190   0.00000  Uiso   1.00
C915   C     0.64507   0.85174   0.87477   0.00000  Uiso   1.00
C916   C     0.64489   0.81486   0.79194   0.00000  Uiso   1.00
H917   H     0.54764   0.70884   0.88834   0.00000  Uiso   1.00
H918   H     0.45236   0.95783   0.77832   0.00000  Uiso   1.00
H919   H     0.45238   0.70854   0.77830   0.00000  Uiso   1.00
H920   H     0.54761   0.95812   0.88837   0.00000  Uiso   1.00
I921   I     0.38885   0.78919   0.72869   0.00000  Uiso   1.00
I922   I     0.61115   0.87748   0.93798   0.00000  Uiso   1.00
I923   I     0.61071   0.78866   0.72897   0.00000  Uiso   1.00
I924   I     0.38929   0.87801   0.93770   0.00000  Uiso   1.00
N925   N     0.50000   0.95240   0.83333   0.00000  Uiso   1.00
N926   N     0.50000   0.71427   0.83333   0.00000  Uiso   1.00
O927   O     0.43892   0.87154   0.83333   0.00000  Uiso   1.00
O928   O     0.56108   0.79513   0.83334   0.00000  Uiso   1.00
O929   O     0.56108   0.87154   0.83334   0.00000  Uiso   1.00
O930   O     0.43892   0.79513   0.83333   0.00000  Uiso   1.00
O931   O     0.50000   0.87155   0.76178   0.00000  Uiso   1.00
O932   O     0.50000   0.79512   0.90489   0.00000  Uiso   1.00
O933   O     0.50000   0.87155   0.90489   0.00000  Uiso   1.00
O934   O     0.50000   0.79512   0.76178   0.00000  Uiso   1.00
Zn935  Zn    0.50000   0.88437   0.83333   0.00000  Uiso   1.00
Zn936  Zn    0.50000   0.78229   0.83333   0.00000  Uiso   1.00
C937   C     0.75342   0.83334   0.83331   0.00000  Uiso   1.00
C938   C     0.68844   0.85181   0.87473   0.00000  Uiso   1.00
C939   C     0.95738   0.83331   0.83336   0.00000  Uiso   1.00
C940   C     0.70929   0.83336   0.83331   0.00000  Uiso   1.00
C941   C     0.85979   0.69069   0.86388   0.00000  Uiso   1.00
C942   C     0.80687   0.97597   0.80278   0.00000  Uiso   1.00
C943   C     0.80688   0.69054   0.80278   0.00000  Uiso   1.00
C944   C     0.85978   0.97613   0.86389   0.00000  Uiso   1.00
C945   C     0.91325   0.83333   0.83336   0.00000  Uiso   1.00
C946   C     0.83331   0.83331   0.73956   0.00000  Uiso   1.00
C947   C     0.83335   0.83336   0.92710   0.00000  Uiso   1.00
C948   C     0.83332   0.83330   0.68846   0.00000  Uiso   1.00
C949   C     0.83334   0.83337   0.97821   0.00000  Uiso   1.00
C950   C     0.68827   0.81492   0.79190   0.00000  Uiso   1.00
C951   C     0.97840   0.85174   0.87477   0.00000  Uiso   1.00
C952   C     0.97822   0.81486   0.79194   0.00000  Uiso   1.00
H953   H     0.88097   0.70884   0.88834   0.00000  Uiso   1.00
H954   H     0.78569   0.95783   0.77832   0.00000  Uiso   1.00
H955   H     0.78572   0.70854   0.77830   0.00000  Uiso   1.00
H956   H     0.88095   0.95812   0.88837   0.00000  Uiso   1.00
I957   I     0.72218   0.78919   0.72869   0.00000  Uiso   1.00
I958   I     0.94448   0.87748   0.93798   0.00000  Uiso   1.00
I959   I     0.94404   0.78866   0.72897   0.00000  Uiso   1.00
I960   I     0.72262   0.87801   0.93770   0.00000  Uiso   1.00
N961   N     0.83333   0.95240   0.83333   0.00000  Uiso   1.00
N962   N     0.83333   0.71427   0.83333   0.00000  Uiso   1.00
O963   O     0.77226   0.87154   0.83333   0.00000  Uiso   1.00
O964   O     0.89441   0.79513   0.83334   0.00000  Uiso   1.00
O965   O     0.89441   0.87154   0.83334   0.00000  Uiso   1.00
O966   O     0.77226   0.79513   0.83333   0.00000  Uiso   1.00
O967   O     0.83334   0.87155   0.76178   0.00000  Uiso   1.00
O968   O     0.83333   0.79512   0.90489   0.00000  Uiso   1.00
O969   O     0.83333   0.87155   0.90489   0.00000  Uiso   1.00
O970   O     0.83334   0.79512   0.76178   0.00000  Uiso   1.00
Zn971  Zn    0.83333   0.88437   0.83333   0.00000  Uiso   1.00
Zn972  Zn    0.83333   0.78229   0.83333   0.00000  Uiso   1.00
loop_
_geom_bond_atom_site_label_1
_geom_bond_atom_site_label_2
_geom_bond_distance
_geom_bond_site_symmetry_2
_ccdc_geom_bond_type
C1     C4      1.410   .     S
C1     O30     1.282   .     A
C1     O27     1.281   .     A
C2     C4      1.403   .     A
C2     I24     2.148   .     S
C2     C87     1.386   1_455 S
C3     C9      1.410   .     S
C3     C15     1.403   .     A
C3     C16     1.403   .     A
C4     C14     1.403   .     A
C5     H17     1.082   .     S
C5     N26     1.367   .     A
C5     C224    1.418   1_545 S
C6     H18     1.082   .     S
C6     N25     1.367   .     A
C6     C115    1.418   .     S
C7     N26     1.367   .     A
C7     H19     1.081   .     S
C7     C222    1.418   1_545 S
C8     N25     1.367   .     A
C8     H20     1.081   .     S
C8     C113    1.418   .     S
C9     O29     1.282   .     A
C9     O28     1.281   .     A
C10    O34     1.279   .     A
C10    C12     1.366   .     S
C10    O31     1.277   .     A
C11    C13     1.366   .     S
C11    O32     1.277   .     A
C11    O33     1.279   .     A
C12    C661    1.165   1_554 S
C13    C336    1.165   .     S
C14    I21     2.147   .     S
C14    C88     1.386   1_455 S
C15    I22     2.147   .     S
C15    C38     1.386   .     S
C16    I23     2.148   .     S
C16    C50     1.386   .     S
N25    Zn35    2.014   .     S
N26    Zn36    2.014   .     S
O27    Zn35    1.988   .     S
O28    Zn36    1.988   .     S
O29    Zn35    1.988   .     S
O30    Zn36    1.988   .     S
O31    Zn35    1.949   .     S
O32    Zn36    1.949   .     S
O33    Zn35    1.951   .     S
O34    Zn36    1.951   .     S
C37    C40     1.410   .     S
C37    O66     1.282   .     A
C37    O63     1.281   .     A
C38    C40     1.403   .     A
C38    I60     2.148   .     S
C39    C45     1.410   .     S
C39    C51     1.403   .     A
C39    C52     1.403   .     A
C40    C50     1.403   .     A
C41    H53     1.082   .     S
C41    N62     1.367   .     A
C41    C260    1.418   1_545 S
C42    H54     1.082   .     S
C42    N61     1.367   .     A
C42    C151    1.418   .     S
C43    N62     1.367   .     A
C43    H55     1.081   .     S
C43    C258    1.418   1_545 S
C44    N61     1.367   .     A
C44    H56     1.081   .     S
C44    C149    1.418   .     S
C45    O65     1.282   .     A
C45    O64     1.281   .     A
C46    O70     1.279   .     A
C46    C48     1.366   .     S
C46    O67     1.277   .     A
C47    C49     1.366   .     S
C47    O68     1.277   .     A
C47    O69     1.279   .     A
C48    C697    1.165   1_554 S
C49    C372    1.165   .     S
C50    I57     2.147   .     S
C51    I58     2.147   .     S
C51    C74     1.386   .     S
C52    I59     2.148   .     S
C52    C86     1.386   .     S
N61    Zn71    2.014   .     S
N62    Zn72    2.014   .     S
O63    Zn71    1.988   .     S
O64    Zn72    1.988   .     S
O65    Zn71    1.988   .     S
O66    Zn72    1.988   .     S
O67    Zn71    1.949   .     S
O68    Zn72    1.949   .     S
O69    Zn71    1.951   .     S
O70    Zn72    1.951   .     S
C73    C76     1.410   .     S
C73    O102    1.282   .     A
C73    O99     1.281   .     A
C74    C76     1.403   .     A
C74    I96     2.148   .     S
C75    C81     1.410   .     S
C75    C87     1.403   .     A
C75    C88     1.403   .     A
C76    C86     1.403   .     A
C77    H89     1.082   .     S
C77    N98     1.367   .     A
C77    C296    1.418   1_545 S
C78    H90     1.082   .     S
C78    N97     1.367   .     A
C78    C187    1.418   .     S
C79    N98     1.367   .     A
C79    H91     1.081   .     S
C79    C294    1.418   1_545 S
C80    N97     1.367   .     A
C80    H92     1.081   .     S
C80    C185    1.418   .     S
C81    O101    1.282   .     A
C81    O100    1.281   .     A
C82    O106    1.279   .     A
C82    C84     1.366   .     S
C82    O103    1.277   .     A
C83    C85     1.366   .     S
C83    O104    1.277   .     A
C83    O105    1.279   .     A
C84    C733    1.165   1_554 S
C85    C408    1.165   .     S
C86    I93     2.147   .     S
C87    I94     2.147   .     S
C87    C2      1.386   1_655 S
C88    I95     2.148   .     S
C88    C14     1.386   1_655 S
N97    Zn107   2.014   .     S
N98    Zn108   2.014   .     S
O99    Zn107   1.988   .     S
O100   Zn108   1.988   .     S
O101   Zn107   1.988   .     S
O102   Zn108   1.988   .     S
O103   Zn107   1.949   .     S
O104   Zn108   1.949   .     S
O105   Zn107   1.951   .     S
O106   Zn108   1.951   .     S
C109   C112    1.410   .     S
C109   O138    1.282   .     A
C109   O135    1.281   .     A
C110   C112    1.403   .     A
C110   I132    2.148   .     S
C110   C195    1.386   1_455 S
C111   C117    1.410   .     S
C111   C123    1.403   .     A
C111   C124    1.403   .     A
C112   C122    1.403   .     A
C113   H125    1.082   .     S
C113   N134    1.367   .     A
C114   H126    1.082   .     S
C114   N133    1.367   .     A
C114   C223    1.418   .     S
C115   N134    1.367   .     A
C115   H127    1.081   .     S
C116   N133    1.367   .     A
C116   H128    1.081   .     S
C116   C221    1.418   .     S
C117   O137    1.282   .     A
C117   O136    1.281   .     A
C118   O142    1.279   .     A
C118   C120    1.366   .     S
C118   O139    1.277   .     A
C119   C121    1.366   .     S
C119   O140    1.277   .     A
C119   O141    1.279   .     A
C120   C769    1.165   1_554 S
C121   C444    1.165   .     S
C122   I129    2.147   .     S
C122   C196    1.386   1_455 S
C123   I130    2.147   .     S
C123   C146    1.386   .     S
C124   I131    2.148   .     S
C124   C158    1.386   .     S
N133   Zn143   2.014   .     S
N134   Zn144   2.014   .     S
O135   Zn143   1.988   .     S
O136   Zn144   1.988   .     S
O137   Zn143   1.988   .     S
O138   Zn144   1.988   .     S
O139   Zn143   1.949   .     S
O140   Zn144   1.949   .     S
O141   Zn143   1.951   .     S
O142   Zn144   1.951   .     S
C145   C148    1.410   .     S
C145   O174    1.282   .     A
C145   O171    1.281   .     A
C146   C148    1.403   .     A
C146   I168    2.148   .     S
C147   C153    1.410   .     S
C147   C159    1.403   .     A
C147   C160    1.403   .     A
C148   C158    1.403   .     A
C149   H161    1.082   .     S
C149   N170    1.367   .     A
C150   H162    1.082   .     S
C150   N169    1.367   .     A
C150   C259    1.418   .     S
C151   N170    1.367   .     A
C151   H163    1.081   .     S
C152   N169    1.367   .     A
C152   H164    1.081   .     S
C152   C257    1.418   .     S
C153   O173    1.282   .     A
C153   O172    1.281   .     A
C154   O178    1.279   .     A
C154   C156    1.366   .     S
C154   O175    1.277   .     A
C155   C157    1.366   .     S
C155   O176    1.277   .     A
C155   O177    1.279   .     A
C156   C805    1.165   1_554 S
C157   C480    1.165   .     S
C158   I165    2.147   .     S
C159   I166    2.147   .     S
C159   C182    1.386   .     S
C160   I167    2.148   .     S
C160   C194    1.386   .     S
N169   Zn179   2.014   .     S
N170   Zn180   2.014   .     S
O171   Zn179   1.988   .     S
O172   Zn180   1.988   .     S
O173   Zn179   1.988   .     S
O174   Zn180   1.988   .     S
O175   Zn179   1.949   .     S
O176   Zn180   1.949   .     S
O177   Zn179   1.951   .     S
O178   Zn180   1.951   .     S
C181   C184    1.410   .     S
C181   O210    1.282   .     A
C181   O207    1.281   .     A
C182   C184    1.403   .     A
C182   I204    2.148   .     S
C183   C189    1.410   .     S
C183   C195    1.403   .     A
C183   C196    1.403   .     A
C184   C194    1.403   .     A
C185   H197    1.082   .     S
C185   N206    1.367   .     A
C186   H198    1.082   .     S
C186   N205    1.367   .     A
C186   C295    1.418   .     S
C187   N206    1.367   .     A
C187   H199    1.081   .     S
C188   N205    1.367   .     A
C188   H200    1.081   .     S
C188   C293    1.418   .     S
C189   O209    1.282   .     A
C189   O208    1.281   .     A
C190   O214    1.279   .     A
C190   C192    1.366   .     S
C190   O211    1.277   .     A
C191   C193    1.366   .     S
C191   O212    1.277   .     A
C191   O213    1.279   .     A
C192   C841    1.165   1_554 S
C193   C516    1.165   .     S
C194   I201    2.147   .     S
C195   I202    2.147   .     S
C195   C110    1.386   1_655 S
C196   I203    2.148   .     S
C196   C122    1.386   1_655 S
N205   Zn215   2.014   .     S
N206   Zn216   2.014   .     S
O207   Zn215   1.988   .     S
O208   Zn216   1.988   .     S
O209   Zn215   1.988   .     S
O210   Zn216   1.988   .     S
O211   Zn215   1.949   .     S
O212   Zn216   1.949   .     S
O213   Zn215   1.951   .     S
O214   Zn216   1.951   .     S
C217   C220    1.410   .     S
C217   O246    1.282   .     A
C217   O243    1.281   .     A
C218   C220    1.403   .     A
C218   I240    2.148   .     S
C218   C303    1.386   1_455 S
C219   C225    1.410   .     S
C219   C231    1.403   .     A
C219   C232    1.403   .     A
C220   C230    1.403   .     A
C221   H233    1.082   .     S
C221   N242    1.367   .     A
C222   H234    1.082   .     S
C222   N241    1.367   .     A
C222   C7      1.418   1_565 S
C223   N242    1.367   .     A
C223   H235    1.081   .     S
C224   N241    1.367   .     A
C224   H236    1.081   .     S
C224   C5      1.418   1_565 S
C225   O245    1.282   .     A
C225   O244    1.281   .     A
C226   O250    1.279   .     A
C226   C228    1.366   .     S
C226   O247    1.277   .     A
C227   C229    1.366   .     S
C227   O248    1.277   .     A
C227   O249    1.279   .     A
C228   C877    1.165   1_554 S
C229   C552    1.165   .     S
C230   I237    2.147   .     S
C230   C304    1.386   1_455 S
C231   I238    2.147   .     S
C231   C254    1.386   .     S
C232   I239    2.148   .     S
C232   C266    1.386   .     S
N241   Zn251   2.014   .     S
N242   Zn252   2.014   .     S
O243   Zn251   1.988   .     S
O244   Zn252   1.988   .     S
O245   Zn251   1.988   .     S
O246   Zn252   1.988   .     S
O247   Zn251   1.949   .     S
O248   Zn252   1.949   .     S
O249   Zn251   1.951   .     S
O250   Zn252   1.951   .     S
C253   C256    1.410   .     S
C253   O282    1.282   .     A
C253   O279    1.281   .     A
C254   C256    1.403   .     A
C254   I276    2.148   .     S
C255   C261    1.410   .     S
C255   C267    1.403   .     A
C255   C268    1.403   .     A
C256   C266    1.403   .     A
C257   H269    1.082   .     S
C257   N278    1.367   .     A
C258   H270    1.082   .     S
C258   N277    1.367   .     A
C258   C43     1.418   1_565 S
C259   N278    1.367   .     A
C259   H271    1.081   .     S
C260   N277    1.367   .     A
C260   H272    1.081   .     S
C260   C41     1.418   1_565 S
C261   O281    1.282   .     A
C261   O280    1.281   .     A
C262   O286    1.279   .     A
C262   C264    1.366   .     S
C262   O283    1.277   .     A
C263   C265    1.366   .     S
C263   O284    1.277   .     A
C263   O285    1.279   .     A
C264   C913    1.165   1_554 S
C265   C588    1.165   .     S
C266   I273    2.147   .     S
C267   I274    2.147   .     S
C267   C290    1.386   .     S
C268   I275    2.148   .     S
C268   C302    1.386   .     S
N277   Zn287   2.014   .     S
N278   Zn288   2.014   .     S
O279   Zn287   1.988   .     S
O280   Zn288   1.988   .     S
O281   Zn287   1.988   .     S
O282   Zn288   1.988   .     S
O283   Zn287   1.949   .     S
O284   Zn288   1.949   .     S
O285   Zn287   1.951   .     S
O286   Zn288   1.951   .     S
C289   C292    1.410   .     S
C289   O318    1.282   .     A
C289   O315    1.281   .     A
C290   C292    1.403   .     A
C290   I312    2.148   .     S
C291   C297    1.410   .     S
C291   C303    1.403   .     A
C291   C304    1.403   .     A
C292   C302    1.403   .     A
C293   H305    1.082   .     S
C293   N314    1.367   .     A
C294   H306    1.082   .     S
C294   N313    1.367   .     A
C294   C79     1.418   1_565 S
C295   N314    1.367   .     A
C295   H307    1.081   .     S
C296   N313    1.367   .     A
C296   H308    1.081   .     S
C296   C77     1.418   1_565 S
C297   O317    1.282   .     A
C297   O316    1.281   .     A
C298   O322    1.279   .     A
C298   C300    1.366   .     S
C298   O319    1.277   .     A
C299   C301    1.366   .     S
C299   O320    1.277   .     A
C299   O321    1.279   .     A
C300   C949    1.165   1_554 S
C301   C624    1.165   .     S
C302   I309    2.147   .     S
C303   I310    2.147   .     S
C303   C218    1.386   1_655 S
C304   I311    2.148   .     S
C304   C230    1.386   1_655 S
N313   Zn323   2.014   .     S
N314   Zn324   2.014   .     S
O315   Zn323   1.988   .     S
O316   Zn324   1.988   .     S
O317   Zn323   1.988   .     S
O318   Zn324   1.988   .     S
O319   Zn323   1.949   .     S
O320   Zn324   1.949   .     S
O321   Zn323   1.951   .     S
O322   Zn324   1.951   .     S
C325   C328    1.410   .     S
C325   O354    1.282   .     A
C325   O351    1.281   .     A
C326   C328    1.403   .     A
C326   I348    2.148   .     S
C326   C411    1.386   1_455 S
C327   C333    1.410   .     S
C327   C339    1.403   .     A
C327   C340    1.403   .     A
C328   C338    1.403   .     A
C329   H341    1.082   .     S
C329   N350    1.367   .     A
C329   C548    1.418   1_545 S
C330   H342    1.082   .     S
C330   N349    1.367   .     A
C330   C439    1.418   .     S
C331   N350    1.367   .     A
C331   H343    1.081   .     S
C331   C546    1.418   1_545 S
C332   N349    1.367   .     A
C332   H344    1.081   .     S
C332   C437    1.418   .     S
C333   O353    1.282   .     A
C333   O352    1.281   .     A
C334   O358    1.279   .     A
C334   C336    1.366   .     S
C334   O355    1.277   .     A
C335   C337    1.366   .     S
C335   O356    1.277   .     A
C335   O357    1.279   .     A
C337   C660    1.165   .     S
C338   I345    2.147   .     S
C338   C412    1.386   1_455 S
C339   I346    2.147   .     S
C339   C362    1.386   .     S
C340   I347    2.148   .     S
C340   C374    1.386   .     S
N349   Zn359   2.014   .     S
N350   Zn360   2.014   .     S
O351   Zn359   1.988   .     S
O352   Zn360   1.988   .     S
O353   Zn359   1.988   .     S
O354   Zn360   1.988   .     S
O355   Zn359   1.949   .     S
O356   Zn360   1.949   .     S
O357   Zn359   1.951   .     S
O358   Zn360   1.951   .     S
C361   C364    1.410   .     S
C361   O390    1.282   .     A
C361   O387    1.281   .     A
C362   C364    1.403   .     A
C362   I384    2.148   .     S
C363   C369    1.410   .     S
C363   C375    1.403   .     A
C363   C376    1.403   .     A
C364   C374    1.403   .     A
C365   H377    1.082   .     S
C365   N386    1.367   .     A
C365   C584    1.418   1_545 S
C366   H378    1.082   .     S
C366   N385    1.367   .     A
C366   C475    1.418   .     S
C367   N386    1.367   .     A
C367   H379    1.081   .     S
C367   C582    1.418   1_545 S
C368   N385    1.367   .     A
C368   H380    1.081   .     S
C368   C473    1.418   .     S
C369   O389    1.282   .     A
C369   O388    1.281   .     A
C370   O394    1.279   .     A
C370   C372    1.366   .     S
C370   O391    1.277   .     A
C371   C373    1.366   .     S
C371   O392    1.277   .     A
C371   O393    1.279   .     A
C373   C696    1.165   .     S
C374   I381    2.147   .     S
C375   I382    2.147   .     S
C375   C398    1.386   .     S
C376   I383    2.148   .     S
C376   C410    1.386   .     S
N385   Zn395   2.014   .     S
N386   Zn396   2.014   .     S
O387   Zn395   1.988   .     S
O388   Zn396   1.988   .     S
O389   Zn395   1.988   .     S
O390   Zn396   1.988   .     S
O391   Zn395   1.949   .     S
O392   Zn396   1.949   .     S
O393   Zn395   1.951   .     S
O394   Zn396   1.951   .     S
C397   C400    1.410   .     S
C397   O426    1.282   .     A
C397   O423    1.281   .     A
C398   C400    1.403   .     A
C398   I420    2.148   .     S
C399   C405    1.410   .     S
C399   C411    1.403   .     A
C399   C412    1.403   .     A
C400   C410    1.403   .     A
C401   H413    1.082   .     S
C401   N422    1.367   .     A
C401   C620    1.418   1_545 S
C402   H414    1.082   .     S
C402   N421    1.367   .     A
C402   C511    1.418   .     S
C403   N422    1.367   .     A
C403   H415    1.081   .     S
C403   C618    1.418   1_545 S
C404   N421    1.367   .     A
C404   H416    1.081   .     S
C404   C509    1.418   .     S
C405   O425    1.282   .     A
C405   O424    1.281   .     A
C406   O430    1.279   .     A
C406   C408    1.366   .     S
C406   O427    1.277   .     A
C407   C409    1.366   .     S
C407   O428    1.277   .     A
C407   O429    1.279   .     A
C409   C732    1.165   .     S
C410   I417    2.147   .     S
C411   I418    2.147   .     S
C411   C326    1.386   1_655 S
C412   I419    2.148   .     S
C412   C338    1.386   1_655 S
N421   Zn431   2.014   .     S
N422   Zn432   2.014   .     S
O423   Zn431   1.988   .     S
O424   Zn432   1.988   .     S
O425   Zn431   1.988   .     S
O426   Zn432   1.988   .     S
O427   Zn431   1.949   .     S
O428   Zn432   1.949   .     S
O429   Zn431   1.951   .     S
O430   Zn432   1.951   .     S
C433   C436    1.410   .     S
C433   O462    1.282   .     A
C433   O459    1.281   .     A
C434   C436    1.403   .     A
C434   I456    2.148   .     S
C434   C519    1.386   1_455 S
C435   C441    1.410   .     S
C435   C447    1.403   .     A
C435   C448    1.403   .     A
C436   C446    1.403   .     A
C437   H449    1.082   .     S
C437   N458    1.367   .     A
C438   H450    1.082   .     S
C438   N457    1.367   .     A
C438   C547    1.418   .     S
C439   N458    1.367   .     A
C439   H451    1.081   .     S
C440   N457    1.367   .     A
C440   H452    1.081   .     S
C440   C545    1.418   .     S
C441   O461    1.282   .     A
C441   O460    1.281   .     A
C442   O466    1.279   .     A
C442   C444    1.366   .     S
C442   O463    1.277   .     A
C443   C445    1.366   .     S
C443   O464    1.277   .     A
C443   O465    1.279   .     A
C445   C768    1.165   .     S
C446   I453    2.147   .     S
C446   C520    1.386   1_455 S
C447   I454    2.147   .     S
C447   C470    1.386   .     S
C448   I455    2.148   .     S
C448   C482    1.386   .     S
N457   Zn467   2.014   .     S
N458   Zn468   2.014   .     S
O459   Zn467   1.988   .     S
O460   Zn468   1.988   .     S
O461   Zn467   1.988   .     S
O462   Zn468   1.988   .     S
O463   Zn467   1.949   .     S
O464   Zn468   1.949   .     S
O465   Zn467   1.951   .     S
O466   Zn468   1.951   .     S
C469   C472    1.410   .     S
C469   O498    1.282   .     A
C469   O495    1.281   .     A
C470   C472    1.403   .     A
C470   I492    2.148   .     S
C471   C477    1.410   .     S
C471   C483    1.403   .     A
C471   C484    1.403   .     A
C472   C482    1.403   .     A
C473   H485    1.082   .     S
C473   N494    1.367   .     A
C474   H486    1.082   .     S
C474   N493    1.367   .     A
C474   C583    1.418   .     S
C475   N494    1.367   .     A
C475   H487    1.081   .     S
C476   N493    1.367   .     A
C476   H488    1.081   .     S
C476   C581    1.418   .     S
C477   O497    1.282   .     A
C477   O496    1.281   .     A
C478   O502    1.279   .     A
C478   C480    1.366   .     S
C478   O499    1.277   .     A
C479   C481    1.366   .     S
C479   O500    1.277   .     A
C479   O501    1.279   .     A
C481   C804    1.165   .     S
C482   I489    2.147   .     S
C483   I490    2.147   .     S
C483   C506    1.386   .     S
C484   I491    2.148   .     S
C484   C518    1.386   .     S
N493   Zn503   2.014   .     S
N494   Zn504   2.014   .     S
O495   Zn503   1.988   .     S
O496   Zn504   1.988   .     S
O497   Zn503   1.988   .     S
O498   Zn504   1.988   .     S
O499   Zn503   1.949   .     S
O500   Zn504   1.949   .     S
O501   Zn503   1.951   .     S
O502   Zn504   1.951   .     S
C505   C508    1.410   .     S
C505   O534    1.282   .     A
C505   O531    1.281   .     A
C506   C508    1.403   .     A
C506   I528    2.148   .     S
C507   C513    1.410   .     S
C507   C519    1.403   .     A
C507   C520    1.403   .     A
C508   C518    1.403   .     A
C509   H521    1.082   .     S
C509   N530    1.367   .     A
C510   H522    1.082   .     S
C510   N529    1.367   .     A
C510   C619    1.418   .     S
C511   N530    1.367   .     A
C511   H523    1.081   .     S
C512   N529    1.367   .     A
C512   H524    1.081   .     S
C512   C617    1.418   .     S
C513   O533    1.282   .     A
C513   O532    1.281   .     A
C514   O538    1.279   .     A
C514   C516    1.366   .     S
C514   O535    1.277   .     A
C515   C517    1.366   .     S
C515   O536    1.277   .     A
C515   O537    1.279   .     A
C517   C840    1.165   .     S
C518   I525    2.147   .     S
C519   I526    2.147   .     S
C519   C434    1.386   1_655 S
C520   I527    2.148   .     S
C520   C446    1.386   1_655 S
N529   Zn539   2.014   .     S
N530   Zn540   2.014   .     S
O531   Zn539   1.988   .     S
O532   Zn540   1.988   .     S
O533   Zn539   1.988   .     S
O534   Zn540   1.988   .     S
O535   Zn539   1.949   .     S
O536   Zn540   1.949   .     S
O537   Zn539   1.951   .     S
O538   Zn540   1.951   .     S
C541   C544    1.410   .     S
C541   O570    1.282   .     A
C541   O567    1.281   .     A
C542   C544    1.403   .     A
C542   I564    2.148   .     S
C542   C627    1.386   1_455 S
C543   C549    1.410   .     S
C543   C555    1.403   .     A
C543   C556    1.403   .     A
C544   C554    1.403   .     A
C545   H557    1.082   .     S
C545   N566    1.367   .     A
C546   H558    1.082   .     S
C546   N565    1.367   .     A
C546   C331    1.418   1_565 S
C547   N566    1.367   .     A
C547   H559    1.081   .     S
C548   N565    1.367   .     A
C548   H560    1.081   .     S
C548   C329    1.418   1_565 S
C549   O569    1.282   .     A
C549   O568    1.281   .     A
C550   O574    1.279   .     A
C550   C552    1.366   .     S
C550   O571    1.277   .     A
C551   C553    1.366   .     S
C551   O572    1.277   .     A
C551   O573    1.279   .     A
C553   C876    1.165   .     S
C554   I561    2.147   .     S
C554   C628    1.386   1_455 S
C555   I562    2.147   .     S
C555   C578    1.386   .     S
C556   I563    2.148   .     S
C556   C590    1.386   .     S
N565   Zn575   2.014   .     S
N566   Zn576   2.014   .     S
O567   Zn575   1.988   .     S
O568   Zn576   1.988   .     S
O569   Zn575   1.988   .     S
O570   Zn576   1.988   .     S
O571   Zn575   1.949   .     S
O572   Zn576   1.949   .     S
O573   Zn575   1.951   .     S
O574   Zn576   1.951   .     S
C577   C580    1.410   .     S
C577   O606    1.282   .     A
C577   O603    1.281   .     A
C578   C580    1.403   .     A
C578   I600    2.148   .     S
C579   C585    1.410   .     S
C579   C591    1.403   .     A
C579   C592    1.403   .     A
C580   C590    1.403   .     A
C581   H593    1.082   .     S
C581   N602    1.367   .     A
C582   H594    1.082   .     S
C582   N601    1.367   .     A
C582   C367    1.418   1_565 S
C583   N602    1.367   .     A
C583   H595    1.081   .     S
C584   N601    1.367   .     A
C584   H596    1.081   .     S
C584   C365    1.418   1_565 S
C585   O605    1.282   .     A
C585   O604    1.281   .     A
C586   O610    1.279   .     A
C586   C588    1.366   .     S
C586   O607    1.277   .     A
C587   C589    1.366   .     S
C587   O608    1.277   .     A
C587   O609    1.279   .     A
C589   C912    1.165   .     S
C590   I597    2.147   .     S
C591   I598    2.147   .     S
C591   C614    1.386   .     S
C592   I599    2.148   .     S
C592   C626    1.386   .     S
N601   Zn611   2.014   .     S
N602   Zn612   2.014   .     S
O603   Zn611   1.988   .     S
O604   Zn612   1.988   .     S
O605   Zn611   1.988   .     S
O606   Zn612   1.988   .     S
O607   Zn611   1.949   .     S
O608   Zn612   1.949   .     S
O609   Zn611   1.951   .     S
O610   Zn612   1.951   .     S
C613   C616    1.410   .     S
C613   O642    1.282   .     A
C613   O639    1.281   .     A
C614   C616    1.403   .     A
C614   I636    2.148   .     S
C615   C621    1.410   .     S
C615   C627    1.403   .     A
C615   C628    1.403   .     A
C616   C626    1.403   .     A
C617   H629    1.082   .     S
C617   N638    1.367   .     A
C618   H630    1.082   .     S
C618   N637    1.367   .     A
C618   C403    1.418   1_565 S
C619   N638    1.367   .     A
C619   H631    1.081   .     S
C620   N637    1.367   .     A
C620   H632    1.081   .     S
C620   C401    1.418   1_565 S
C621   O641    1.282   .     A
C621   O640    1.281   .     A
C622   O646    1.279   .     A
C622   C624    1.366   .     S
C622   O643    1.277   .     A
C623   C625    1.366   .     S
C623   O644    1.277   .     A
C623   O645    1.279   .     A
C625   C948    1.165   .     S
C626   I633    2.147   .     S
C627   I634    2.147   .     S
C627   C542    1.386   1_655 S
C628   I635    2.148   .     S
C628   C554    1.386   1_655 S
N637   Zn647   2.014   .     S
N638   Zn648   2.014   .     S
O639   Zn647   1.988   .     S
O640   Zn648   1.988   .     S
O641   Zn647   1.988   .     S
O642   Zn648   1.988   .     S
O643   Zn647   1.949   .     S
O644   Zn648   1.949   .     S
O645   Zn647   1.951   .     S
O646   Zn648   1.951   .     S
C649   C652    1.410   .     S
C649   O678    1.282   .     A
C649   O675    1.281   .     A
C650   C652    1.403   .     A
C650   I672    2.148   .     S
C650   C735    1.386   1_455 S
C651   C657    1.410   .     S
C651   C663    1.403   .     A
C651   C664    1.403   .     A
C652   C662    1.403   .     A
C653   H665    1.082   .     S
C653   N674    1.367   .     A
C653   C872    1.418   1_545 S
C654   H666    1.082   .     S
C654   N673    1.367   .     A
C654   C763    1.418   .     S
C655   N674    1.367   .     A
C655   H667    1.081   .     S
C655   C870    1.418   1_545 S
C656   N673    1.367   .     A
C656   H668    1.081   .     S
C656   C761    1.418   .     S
C657   O677    1.282   .     A
C657   O676    1.281   .     A
C658   O682    1.279   .     A
C658   C660    1.366   .     S
C658   O679    1.277   .     A
C659   C661    1.366   .     S
C659   O680    1.277   .     A
C659   O681    1.279   .     A
C661   C12     1.165   1_556 S
C662   I669    2.147   .     S
C662   C736    1.386   1_455 S
C663   I670    2.147   .     S
C663   C686    1.386   .     S
C664   I671    2.148   .     S
C664   C698    1.386   .     S
N673   Zn683   2.014   .     S
N674   Zn684   2.014   .     S
O675   Zn683   1.988   .     S
O676   Zn684   1.988   .     S
O677   Zn683   1.988   .     S
O678   Zn684   1.988   .     S
O679   Zn683   1.949   .     S
O680   Zn684   1.949   .     S
O681   Zn683   1.951   .     S
O682   Zn684   1.951   .     S
C685   C688    1.410   .     S
C685   O714    1.282   .     A
C685   O711    1.281   .     A
C686   C688    1.403   .     A
C686   I708    2.148   .     S
C687   C693    1.410   .     S
C687   C699    1.403   .     A
C687   C700    1.403   .     A
C688   C698    1.403   .     A
C689   H701    1.082   .     S
C689   N710    1.367   .     A
C689   C908    1.418   1_545 S
C690   H702    1.082   .     S
C690   N709    1.367   .     A
C690   C799    1.418   .     S
C691   N710    1.367   .     A
C691   H703    1.081   .     S
C691   C906    1.418   1_545 S
C692   N709    1.367   .     A
C692   H704    1.081   .     S
C692   C797    1.418   .     S
C693   O713    1.282   .     A
C693   O712    1.281   .     A
C694   O718    1.279   .     A
C694   C696    1.366   .     S
C694   O715    1.277   .     A
C695   C697    1.366   .     S
C695   O716    1.277   .     A
C695   O717    1.279   .     A
C697   C48     1.165   1_556 S
C698   I705    2.147   .     S
C699   I706    2.147   .     S
C699   C722    1.386   .     S
C700   I707    2.148   .     S
C700   C734    1.386   .     S
N709   Zn719   2.014   .     S
N710   Zn720   2.014   .     S
O711   Zn719   1.988   .     S
O712   Zn720   1.988   .     S
O713   Zn719   1.988   .     S
O714   Zn720   1.988   .     S
O715   Zn719   1.949   .     S
O716   Zn720   1.949   .     S
O717   Zn719   1.951   .     S
O718   Zn720   1.951   .     S
C721   C724    1.410   .     S
C721   O750    1.282   .     A
C721   O747    1.281   .     A
C722   C724    1.403   .     A
C722   I744    2.148   .     S
C723   C729    1.410   .     S
C723   C735    1.403   .     A
C723   C736    1.403   .     A
C724   C734    1.403   .     A
C725   H737    1.082   .     S
C725   N746    1.367   .     A
C725   C944    1.418   1_545 S
C726   H738    1.082   .     S
C726   N745    1.367   .     A
C726   C835    1.418   .     S
C727   N746    1.367   .     A
C727   H739    1.081   .     S
C727   C942    1.418   1_545 S
C728   N745    1.367   .     A
C728   H740    1.081   .     S
C728   C833    1.418   .     S
C729   O749    1.282   .     A
C729   O748    1.281   .     A
C730   O754    1.279   .     A
C730   C732    1.366   .     S
C730   O751    1.277   .     A
C731   C733    1.366   .     S
C731   O752    1.277   .     A
C731   O753    1.279   .     A
C733   C84     1.165   1_556 S
C734   I741    2.147   .     S
C735   I742    2.147   .     S
C735   C650    1.386   1_655 S
C736   I743    2.148   .     S
C736   C662    1.386   1_655 S
N745   Zn755   2.014   .     S
N746   Zn756   2.014   .     S
O747   Zn755   1.988   .     S
O748   Zn756   1.988   .     S
O749   Zn755   1.988   .     S
O750   Zn756   1.988   .     S
O751   Zn755   1.949   .     S
O752   Zn756   1.949   .     S
O753   Zn755   1.951   .     S
O754   Zn756   1.951   .     S
C757   C760    1.410   .     S
C757   O786    1.282   .     A
C757   O783    1.281   .     A
C758   C760    1.403   .     A
C758   I780    2.148   .     S
C758   C843    1.386   1_455 S
C759   C765    1.410   .     S
C759   C771    1.403   .     A
C759   C772    1.403   .     A
C760   C770    1.403   .     A
C761   H773    1.082   .     S
C761   N782    1.367   .     A
C762   H774    1.082   .     S
C762   N781    1.367   .     A
C762   C871    1.418   .     S
C763   N782    1.367   .     A
C763   H775    1.081   .     S
C764   N781    1.367   .     A
C764   H776    1.081   .     S
C764   C869    1.418   .     S
C765   O785    1.282   .     A
C765   O784    1.281   .     A
C766   O790    1.279   .     A
C766   C768    1.366   .     S
C766   O787    1.277   .     A
C767   C769    1.366   .     S
C767   O788    1.277   .     A
C767   O789    1.279   .     A
C769   C120    1.165   1_556 S
C770   I777    2.147   .     S
C770   C844    1.386   1_455 S
C771   I778    2.147   .     S
C771   C794    1.386   .     S
C772   I779    2.148   .     S
C772   C806    1.386   .     S
N781   Zn791   2.014   .     S
N782   Zn792   2.014   .     S
O783   Zn791   1.988   .     S
O784   Zn792   1.988   .     S
O785   Zn791   1.988   .     S
O786   Zn792   1.988   .     S
O787   Zn791   1.949   .     S
O788   Zn792   1.949   .     S
O789   Zn791   1.951   .     S
O790   Zn792   1.951   .     S
C793   C796    1.410   .     S
C793   O822    1.282   .     A
C793   O819    1.281   .     A
C794   C796    1.403   .     A
C794   I816    2.148   .     S
C795   C801    1.410   .     S
C795   C807    1.403   .     A
C795   C808    1.403   .     A
C796   C806    1.403   .     A
C797   H809    1.082   .     S
C797   N818    1.367   .     A
C798   H810    1.082   .     S
C798   N817    1.367   .     A
C798   C907    1.418   .     S
C799   N818    1.367   .     A
C799   H811    1.081   .     S
C800   N817    1.367   .     A
C800   H812    1.081   .     S
C800   C905    1.418   .     S
C801   O821    1.282   .     A
C801   O820    1.281   .     A
C802   O826    1.279   .     A
C802   C804    1.366   .     S
C802   O823    1.277   .     A
C803   C805    1.366   .     S
C803   O824    1.277   .     A
C803   O825    1.279   .     A
C805   C156    1.165   1_556 S
C806   I813    2.147   .     S
C807   I814    2.147   .     S
C807   C830    1.386   .     S
C808   I815    2.148   .     S
C808   C842    1.386   .     S
N817   Zn827   2.014   .     S
N818   Zn828   2.014   .     S
O819   Zn827   1.988   .     S
O820   Zn828   1.988   .     S
O821   Zn827   1.988   .     S
O822   Zn828   1.988   .     S
O823   Zn827   1.949   .     S
O824   Zn828   1.949   .     S
O825   Zn827   1.951   .     S
O826   Zn828   1.951   .     S
C829   C832    1.410   .     S
C829   O858    1.282   .     A
C829   O855    1.281   .     A
C830   C832    1.403   .     A
C830   I852    2.148   .     S
C831   C837    1.410   .     S
C831   C843    1.403   .     A
C831   C844    1.403   .     A
C832   C842    1.403   .     A
C833   H845    1.082   .     S
C833   N854    1.367   .     A
C834   H846    1.082   .     S
C834   N853    1.367   .     A
C834   C943    1.418   .     S
C835   N854    1.367   .     A
C835   H847    1.081   .     S
C836   N853    1.367   .     A
C836   H848    1.081   .     S
C836   C941    1.418   .     S
C837   O857    1.282   .     A
C837   O856    1.281   .     A
C838   O862    1.279   .     A
C838   C840    1.366   .     S
C838   O859    1.277   .     A
C839   C841    1.366   .     S
C839   O860    1.277   .     A
C839   O861    1.279   .     A
C841   C192    1.165   1_556 S
C842   I849    2.147   .     S
C843   I850    2.147   .     S
C843   C758    1.386   1_655 S
C844   I851    2.148   .     S
C844   C770    1.386   1_655 S
N853   Zn863   2.014   .     S
N854   Zn864   2.014   .     S
O855   Zn863   1.988   .     S
O856   Zn864   1.988   .     S
O857   Zn863   1.988   .     S
O858   Zn864   1.988   .     S
O859   Zn863   1.949   .     S
O860   Zn864   1.949   .     S
O861   Zn863   1.951   .     S
O862   Zn864   1.951   .     S
C865   C868    1.410   .     S
C865   O894    1.282   .     A
C865   O891    1.281   .     A
C866   C868    1.403   .     A
C866   I888    2.148   .     S
C866   C951    1.386   1_455 S
C867   C873    1.410   .     S
C867   C879    1.403   .     A
C867   C880    1.403   .     A
C868   C878    1.403   .     A
C869   H881    1.082   .     S
C869   N890    1.367   .     A
C870   H882    1.082   .     S
C870   N889    1.367   .     A
C870   C655    1.418   1_565 S
C871   N890    1.367   .     A
C871   H883    1.081   .     S
C872   N889    1.367   .     A
C872   H884    1.081   .     S
C872   C653    1.418   1_565 S
C873   O893    1.282   .     A
C873   O892    1.281   .     A
C874   O898    1.279   .     A
C874   C876    1.366   .     S
C874   O895    1.277   .     A
C875   C877    1.366   .     S
C875   O896    1.277   .     A
C875   O897    1.279   .     A
C877   C228    1.165   1_556 S
C878   I885    2.147   .     S
C878   C952    1.386   1_455 S
C879   I886    2.147   .     S
C879   C902    1.386   .     S
C880   I887    2.148   .     S
C880   C914    1.386   .     S
N889   Zn899   2.014   .     S
N890   Zn900   2.014   .     S
O891   Zn899   1.988   .     S
O892   Zn900   1.988   .     S
O893   Zn899   1.988   .     S
O894   Zn900   1.988   .     S
O895   Zn899   1.949   .     S
O896   Zn900   1.949   .     S
O897   Zn899   1.951   .     S
O898   Zn900   1.951   .     S
C901   C904    1.410   .     S
C901   O930    1.282   .     A
C901   O927    1.281   .     A
C902   C904    1.403   .     A
C902   I924    2.148   .     S
C903   C909    1.410   .     S
C903   C915    1.403   .     A
C903   C916    1.403   .     A
C904   C914    1.403   .     A
C905   H917    1.082   .     S
C905   N926    1.367   .     A
C906   H918    1.082   .     S
C906   N925    1.367   .     A
C906   C691    1.418   1_565 S
C907   N926    1.367   .     A
C907   H919    1.081   .     S
C908   N925    1.367   .     A
C908   H920    1.081   .     S
C908   C689    1.418   1_565 S
C909   O929    1.282   .     A
C909   O928    1.281   .     A
C910   O934    1.279   .     A
C910   C912    1.366   .     S
C910   O931    1.277   .     A
C911   C913    1.366   .     S
C911   O932    1.277   .     A
C911   O933    1.279   .     A
C913   C264    1.165   1_556 S
C914   I921    2.147   .     S
C915   I922    2.147   .     S
C915   C938    1.386   .     S
C916   I923    2.148   .     S
C916   C950    1.386   .     S
N925   Zn935   2.014   .     S
N926   Zn936   2.014   .     S
O927   Zn935   1.988   .     S
O928   Zn936   1.988   .     S
O929   Zn935   1.988   .     S
O930   Zn936   1.988   .     S
O931   Zn935   1.949   .     S
O932   Zn936   1.949   .     S
O933   Zn935   1.951   .     S
O934   Zn936   1.951   .     S
C937   C940    1.410   .     S
C937   O966    1.282   .     A
C937   O963    1.281   .     A
C938   C940    1.403   .     A
C938   I960    2.148   .     S
C939   C945    1.410   .     S
C939   C951    1.403   .     A
C939   C952    1.403   .     A
C940   C950    1.403   .     A
C941   H953    1.082   .     S
C941   N962    1.367   .     A
C942   H954    1.082   .     S
C942   N961    1.367   .     A
C942   C727    1.418   1_565 S
C943   N962    1.367   .     A
C943   H955    1.081   .     S
C944   N961    1.367   .     A
C944   H956    1.081   .     S
C944   C725    1.418   1_565 S
C945   O965    1.282   .     A
C945   O964    1.281   .     A
C946   O970    1.279   .     A
C946   C948    1.366   .     S
C946   O967    1.277   .     A
C947   C949    1.366   .     S
C947   O968    1.277   .     A
C947   O969    1.279   .     A
C949   C300    1.165   1_556 S
C950   I957    2.147   .     S
C951   I958    2.147   .     S
C951   C866    1.386   1_655 S
C952   I959    2.148   .     S
C952   C878    1.386   1_655 S
N961   Zn971   2.014   .     S
N962   Zn972   2.014   .     S
O963   Zn971   1.988   .     S
O964   Zn972   1.988   .     S
O965   Zn971   1.988   .     S
O966   Zn972   1.988   .     S
O967   Zn971   1.949   .     S
O968   Zn972   1.949   .     S
O969   Zn971   1.951   .     S
O970   Zn972   1.951   .     S
