data_str_m2_o1_o2_pcu_sym.27
_audit_creation_date              2020-01-03
_audit_creation_method            'Materials Studio'
_symmetry_space_group_name_H-M    'P1'
_symmetry_Int_Tables_number       1
_symmetry_cell_setting            triclinic
loop_
_symmetry_equiv_pos_as_xyz
  x,y,z
_cell_length_a                    32.9033
_cell_length_b                    28.5385
_cell_length_c                    30.2941
_cell_angle_alpha                 89.3938
_cell_angle_beta                  90.3085
_cell_angle_gamma                 90.1204
loop_
_atom_site_label
_atom_site_type_symbol
_atom_site_fract_x
_atom_site_fract_y
_atom_site_fract_z
_atom_site_U_iso_or_equiv
_atom_site_adp_type
_atom_site_occupancy
C1     C     0.08753   0.16657   0.24965   0.00000  Uiso   1.00
C2     C     0.31298   0.20769   0.23703   0.00000  Uiso   1.00
C3     C     0.31272   0.12524   0.26120   0.00000  Uiso   1.00
C4     C     0.02182   0.20547   0.23224   0.00000  Uiso   1.00
C5     C     0.19791   0.18444   0.04626   0.00000  Uiso   1.00
C6     C     0.19885   0.14347   0.45266   0.00000  Uiso   1.00
C7     C     0.13350   0.18198   0.45333   0.00000  Uiso   1.00
C8     C     0.13544   0.13982   0.04764   0.00000  Uiso   1.00
C9     C     0.19749   0.18804   0.09214   0.00000  Uiso   1.00
C10    C     0.19969   0.14617   0.40664   0.00000  Uiso   1.00
C11    C     0.13305   0.18475   0.40718   0.00000  Uiso   1.00
C12    C     0.24609   0.16670   0.24954   0.00000  Uiso   1.00
C13    C     0.13452   0.14166   0.09375   0.00000  Uiso   1.00
C14    C     0.16546   0.16682   0.11646   0.00000  Uiso   1.00
C15    C     0.16626   0.16595   0.38341   0.00000  Uiso   1.00
C16    C     0.16672   0.16129   0.02409   0.00000  Uiso   1.00
C17    C     0.16601   0.16133   0.47586   0.00000  Uiso   1.00
C18    C     0.29105   0.16662   0.24927   0.00000  Uiso   1.00
C19    C     0.04307   0.16626   0.24918   0.00000  Uiso   1.00
C20    C     0.23204   0.21275   0.11297   0.00000  Uiso   1.00
C21    C     0.23766   0.13237   0.38439   0.00000  Uiso   1.00
C22    C     0.09742   0.20748   0.38552   0.00000  Uiso   1.00
C23    C     0.16652   0.16683   0.16494   0.00000  Uiso   1.00
C24    C     0.10042   0.11742   0.11656   0.00000  Uiso   1.00
C25    C     0.04292   0.08707   0.28798   0.00000  Uiso   1.00
C26    C     0.29314   0.25366   0.22935   0.00000  Uiso   1.00
C27    C     0.29203   0.07982   0.26937   0.00000  Uiso   1.00
C28    C     0.04316   0.24350   0.20760   0.00000  Uiso   1.00
C29    C     0.16634   0.16649   0.33500   0.00000  Uiso   1.00
C30    C     0.14680   0.02511   0.21769   0.00000  Uiso   1.00
C31    C     0.18629   0.30823   0.28249   0.00000  Uiso   1.00
C32    C     0.18617   0.02450   0.28257   0.00000  Uiso   1.00
C33    C     0.14696   0.30886   0.21760   0.00000  Uiso   1.00
C34    C     0.02167   0.12682   0.26559   0.00000  Uiso   1.00
Cu35   Cu    0.16667   0.21355   0.25000   0.00000  Uiso   1.00
Cu36   Cu    0.16667   0.11978   0.25000   0.00000  Uiso   1.00
H37    H     0.13074   0.04398   0.19185   0.00000  Uiso   1.00
H38    H     0.28233   0.15134   0.34282   0.00000  Uiso   1.00
H39    H     0.05875   0.21050   0.33390   0.00000  Uiso   1.00
H40    H     0.06052   0.11625   0.16670   0.00000  Uiso   1.00
H41    H     0.05763   0.01856   0.28761   0.00000  Uiso   1.00
H42    H     0.27881   0.30530   0.18602   0.00000  Uiso   1.00
H43    H     0.26174   0.02562   0.24294   0.00000  Uiso   1.00
H44    H     0.07357   0.26229   0.15252   0.00000  Uiso   1.00
H45    H     0.20226   0.28936   0.30839   0.00000  Uiso   1.00
H46    H     0.20204   0.04291   0.30851   0.00000  Uiso   1.00
H47    H     0.13136   0.29048   0.19156   0.00000  Uiso   1.00
H48    H     0.22208   0.20099   0.02747   0.00000  Uiso   1.00
H49    H     0.22451   0.12888   0.47071   0.00000  Uiso   1.00
H50    H     0.10848   0.19624   0.47205   0.00000  Uiso   1.00
H51    H     0.11150   0.12185   0.02976   0.00000  Uiso   1.00
H52    H     0.29286   0.22236   0.11514   0.00000  Uiso   1.00
N53    N     0.16667   0.28402   0.25000   0.00000  Uiso   1.00
N54    N     0.16667   0.04931   0.25000   0.00000  Uiso   1.00
O55    O     0.10655   0.20625   0.24999   0.00000  Uiso   1.00
O56    O     0.27163   0.20283   0.09940   0.00000  Uiso   1.00
O57    O     0.25590   0.09718   0.39651   0.00000  Uiso   1.00
O58    O     0.25409   0.16146   0.35170   0.00000  Uiso   1.00
O59    O     0.07933   0.23880   0.40440   0.00000  Uiso   1.00
O60    O     0.08358   0.19252   0.34443   0.00000  Uiso   1.00
O61    O     0.08587   0.08174   0.10088   0.00000  Uiso   1.00
O62    O     0.08396   0.13578   0.15500   0.00000  Uiso   1.00
O63    O     0.06137   0.09365   0.32252   0.00000  Uiso   1.00
O64    O     0.04185   0.04245   0.26944   0.00000  Uiso   1.00
O65    O     0.27952   0.27509   0.26068   0.00000  Uiso   1.00
O66    O     0.22679   0.12709   0.25000   0.00000  Uiso   1.00
O67    O     0.29273   0.27370   0.18710   0.00000  Uiso   1.00
O68    O     0.28864   0.06431   0.30694   0.00000  Uiso   1.00
O69    O     0.27699   0.05476   0.23346   0.00000  Uiso   1.00
O70    O     0.04437   0.28320   0.22232   0.00000  Uiso   1.00
O71    O     0.06152   0.23349   0.16731   0.00000  Uiso   1.00
O72    O     0.22679   0.20625   0.25000   0.00000  Uiso   1.00
O73    O     0.10655   0.12709   0.24999   0.00000  Uiso   1.00
O74    O     0.16666   0.20626   0.18573   0.00000  Uiso   1.00
O75    O     0.16667   0.12707   0.31427   0.00000  Uiso   1.00
O76    O     0.16667   0.20626   0.31427   0.00000  Uiso   1.00
O77    O     0.16666   0.12707   0.18573   0.00000  Uiso   1.00
O78    O     0.22602   0.24314   0.14020   0.00000  Uiso   1.00
C79    C     0.42086   0.16657   0.24965   0.00000  Uiso   1.00
C80    C     0.64631   0.20769   0.23703   0.00000  Uiso   1.00
C81    C     0.64606   0.12524   0.26120   0.00000  Uiso   1.00
C82    C     0.35516   0.20547   0.23224   0.00000  Uiso   1.00
C83    C     0.53124   0.18444   0.04626   0.00000  Uiso   1.00
C84    C     0.53218   0.14347   0.45266   0.00000  Uiso   1.00
C85    C     0.46684   0.18198   0.45333   0.00000  Uiso   1.00
C86    C     0.46877   0.13982   0.04764   0.00000  Uiso   1.00
C87    C     0.53082   0.18804   0.09214   0.00000  Uiso   1.00
C88    C     0.53302   0.14617   0.40664   0.00000  Uiso   1.00
C89    C     0.46639   0.18475   0.40718   0.00000  Uiso   1.00
C90    C     0.57943   0.16670   0.24954   0.00000  Uiso   1.00
C91    C     0.46785   0.14166   0.09375   0.00000  Uiso   1.00
C92    C     0.49879   0.16682   0.11646   0.00000  Uiso   1.00
C93    C     0.49960   0.16595   0.38341   0.00000  Uiso   1.00
C94    C     0.50005   0.16129   0.02409   0.00000  Uiso   1.00
C95    C     0.49935   0.16133   0.47586   0.00000  Uiso   1.00
C96    C     0.62438   0.16662   0.24927   0.00000  Uiso   1.00
C97    C     0.37641   0.16626   0.24918   0.00000  Uiso   1.00
C98    C     0.56538   0.21275   0.11297   0.00000  Uiso   1.00
C99    C     0.57099   0.13237   0.38439   0.00000  Uiso   1.00
C100   C     0.43076   0.20748   0.38552   0.00000  Uiso   1.00
C101   C     0.49985   0.16683   0.16494   0.00000  Uiso   1.00
C102   C     0.43375   0.11742   0.11656   0.00000  Uiso   1.00
C103   C     0.37626   0.08707   0.28798   0.00000  Uiso   1.00
C104   C     0.62647   0.25366   0.22935   0.00000  Uiso   1.00
C105   C     0.62536   0.07982   0.26937   0.00000  Uiso   1.00
C106   C     0.37649   0.24350   0.20760   0.00000  Uiso   1.00
C107   C     0.49967   0.16649   0.33500   0.00000  Uiso   1.00
C108   C     0.48014   0.02511   0.21769   0.00000  Uiso   1.00
C109   C     0.51962   0.30823   0.28249   0.00000  Uiso   1.00
C110   C     0.51951   0.02450   0.28257   0.00000  Uiso   1.00
C111   C     0.48029   0.30886   0.21760   0.00000  Uiso   1.00
C112   C     0.35500   0.12682   0.26559   0.00000  Uiso   1.00
Cu113  Cu    0.50000   0.21355   0.25000   0.00000  Uiso   1.00
Cu114  Cu    0.50000   0.11978   0.25000   0.00000  Uiso   1.00
H115   H     0.46408   0.04398   0.19185   0.00000  Uiso   1.00
H116   H     0.61566   0.15134   0.34282   0.00000  Uiso   1.00
H117   H     0.39208   0.21050   0.33390   0.00000  Uiso   1.00
H118   H     0.39385   0.11625   0.16670   0.00000  Uiso   1.00
H119   H     0.39097   0.01856   0.28761   0.00000  Uiso   1.00
H120   H     0.61214   0.30530   0.18602   0.00000  Uiso   1.00
H121   H     0.59507   0.02562   0.24294   0.00000  Uiso   1.00
H122   H     0.40690   0.26229   0.15252   0.00000  Uiso   1.00
H123   H     0.53559   0.28936   0.30839   0.00000  Uiso   1.00
H124   H     0.53537   0.04291   0.30851   0.00000  Uiso   1.00
H125   H     0.46469   0.29048   0.19156   0.00000  Uiso   1.00
H126   H     0.55541   0.20099   0.02747   0.00000  Uiso   1.00
H127   H     0.55784   0.12888   0.47071   0.00000  Uiso   1.00
H128   H     0.44181   0.19624   0.47205   0.00000  Uiso   1.00
H129   H     0.44484   0.12185   0.02976   0.00000  Uiso   1.00
H130   H     0.62620   0.22236   0.11514   0.00000  Uiso   1.00
N131   N     0.50000   0.28402   0.25000   0.00000  Uiso   1.00
N132   N     0.50000   0.04931   0.25000   0.00000  Uiso   1.00
O133   O     0.43988   0.20625   0.24999   0.00000  Uiso   1.00
O134   O     0.60497   0.20283   0.09940   0.00000  Uiso   1.00
O135   O     0.58924   0.09718   0.39651   0.00000  Uiso   1.00
O136   O     0.58742   0.16146   0.35170   0.00000  Uiso   1.00
O137   O     0.41267   0.23880   0.40440   0.00000  Uiso   1.00
O138   O     0.41691   0.19252   0.34443   0.00000  Uiso   1.00
O139   O     0.41920   0.08174   0.10088   0.00000  Uiso   1.00
O140   O     0.41729   0.13578   0.15500   0.00000  Uiso   1.00
O141   O     0.39471   0.09365   0.32252   0.00000  Uiso   1.00
O142   O     0.37518   0.04245   0.26944   0.00000  Uiso   1.00
O143   O     0.61286   0.27509   0.26068   0.00000  Uiso   1.00
O144   O     0.56012   0.12709   0.25000   0.00000  Uiso   1.00
O145   O     0.62607   0.27370   0.18710   0.00000  Uiso   1.00
O146   O     0.62197   0.06431   0.30694   0.00000  Uiso   1.00
O147   O     0.61032   0.05476   0.23346   0.00000  Uiso   1.00
O148   O     0.37770   0.28320   0.22232   0.00000  Uiso   1.00
O149   O     0.39485   0.23349   0.16731   0.00000  Uiso   1.00
O150   O     0.56012   0.20625   0.25000   0.00000  Uiso   1.00
O151   O     0.43988   0.12709   0.24999   0.00000  Uiso   1.00
O152   O     0.50000   0.20626   0.18573   0.00000  Uiso   1.00
O153   O     0.50000   0.12707   0.31427   0.00000  Uiso   1.00
O154   O     0.50000   0.20626   0.31427   0.00000  Uiso   1.00
O155   O     0.50000   0.12707   0.18573   0.00000  Uiso   1.00
O156   O     0.55935   0.24314   0.14020   0.00000  Uiso   1.00
C157   C     0.75419   0.16657   0.24965   0.00000  Uiso   1.00
C158   C     0.97964   0.20769   0.23703   0.00000  Uiso   1.00
C159   C     0.97939   0.12524   0.26120   0.00000  Uiso   1.00
C160   C     0.68849   0.20547   0.23224   0.00000  Uiso   1.00
C161   C     0.86457   0.18444   0.04626   0.00000  Uiso   1.00
C162   C     0.86552   0.14347   0.45266   0.00000  Uiso   1.00
C163   C     0.80017   0.18198   0.45333   0.00000  Uiso   1.00
C164   C     0.80211   0.13982   0.04764   0.00000  Uiso   1.00
C165   C     0.86415   0.18804   0.09214   0.00000  Uiso   1.00
C166   C     0.86636   0.14617   0.40664   0.00000  Uiso   1.00
C167   C     0.79972   0.18475   0.40718   0.00000  Uiso   1.00
C168   C     0.91276   0.16670   0.24954   0.00000  Uiso   1.00
C169   C     0.80118   0.14166   0.09375   0.00000  Uiso   1.00
C170   C     0.83213   0.16682   0.11646   0.00000  Uiso   1.00
C171   C     0.83293   0.16595   0.38341   0.00000  Uiso   1.00
C172   C     0.83338   0.16129   0.02409   0.00000  Uiso   1.00
C173   C     0.83268   0.16133   0.47586   0.00000  Uiso   1.00
C174   C     0.95771   0.16662   0.24927   0.00000  Uiso   1.00
C175   C     0.70974   0.16626   0.24918   0.00000  Uiso   1.00
C176   C     0.89871   0.21275   0.11297   0.00000  Uiso   1.00
C177   C     0.90433   0.13237   0.38439   0.00000  Uiso   1.00
C178   C     0.76409   0.20748   0.38552   0.00000  Uiso   1.00
C179   C     0.83319   0.16683   0.16494   0.00000  Uiso   1.00
C180   C     0.76708   0.11742   0.11656   0.00000  Uiso   1.00
C181   C     0.70959   0.08707   0.28798   0.00000  Uiso   1.00
C182   C     0.95980   0.25366   0.22935   0.00000  Uiso   1.00
C183   C     0.95869   0.07982   0.26937   0.00000  Uiso   1.00
C184   C     0.70983   0.24350   0.20760   0.00000  Uiso   1.00
C185   C     0.83300   0.16649   0.33500   0.00000  Uiso   1.00
C186   C     0.81347   0.02511   0.21769   0.00000  Uiso   1.00
C187   C     0.85295   0.30823   0.28249   0.00000  Uiso   1.00
C188   C     0.85284   0.02450   0.28257   0.00000  Uiso   1.00
C189   C     0.81363   0.30886   0.21760   0.00000  Uiso   1.00
C190   C     0.68834   0.12682   0.26559   0.00000  Uiso   1.00
Cu191  Cu    0.83333   0.21355   0.25000   0.00000  Uiso   1.00
Cu192  Cu    0.83333   0.11978   0.25000   0.00000  Uiso   1.00
H193   H     0.79741   0.04398   0.19185   0.00000  Uiso   1.00
H194   H     0.94899   0.15134   0.34282   0.00000  Uiso   1.00
H195   H     0.72541   0.21050   0.33390   0.00000  Uiso   1.00
H196   H     0.72718   0.11625   0.16670   0.00000  Uiso   1.00
H197   H     0.72430   0.01856   0.28761   0.00000  Uiso   1.00
H198   H     0.94548   0.30530   0.18602   0.00000  Uiso   1.00
H199   H     0.92841   0.02562   0.24294   0.00000  Uiso   1.00
H200   H     0.74023   0.26229   0.15252   0.00000  Uiso   1.00
H201   H     0.86892   0.28936   0.30839   0.00000  Uiso   1.00
H202   H     0.86871   0.04291   0.30851   0.00000  Uiso   1.00
H203   H     0.79802   0.29048   0.19156   0.00000  Uiso   1.00
H204   H     0.88874   0.20099   0.02747   0.00000  Uiso   1.00
H205   H     0.89117   0.12888   0.47071   0.00000  Uiso   1.00
H206   H     0.77515   0.19624   0.47205   0.00000  Uiso   1.00
H207   H     0.77817   0.12185   0.02976   0.00000  Uiso   1.00
H208   H     0.95953   0.22236   0.11514   0.00000  Uiso   1.00
N209   N     0.83333   0.28402   0.25000   0.00000  Uiso   1.00
N210   N     0.83333   0.04931   0.25000   0.00000  Uiso   1.00
O211   O     0.77321   0.20625   0.24999   0.00000  Uiso   1.00
O212   O     0.93830   0.20283   0.09940   0.00000  Uiso   1.00
O213   O     0.92257   0.09718   0.39651   0.00000  Uiso   1.00
O214   O     0.92075   0.16146   0.35170   0.00000  Uiso   1.00
O215   O     0.74600   0.23880   0.40440   0.00000  Uiso   1.00
O216   O     0.75025   0.19252   0.34443   0.00000  Uiso   1.00
O217   O     0.75254   0.08174   0.10088   0.00000  Uiso   1.00
O218   O     0.75063   0.13578   0.15500   0.00000  Uiso   1.00
O219   O     0.72804   0.09365   0.32252   0.00000  Uiso   1.00
O220   O     0.70851   0.04245   0.26944   0.00000  Uiso   1.00
O221   O     0.94619   0.27509   0.26068   0.00000  Uiso   1.00
O222   O     0.89345   0.12709   0.25000   0.00000  Uiso   1.00
O223   O     0.95940   0.27370   0.18710   0.00000  Uiso   1.00
O224   O     0.95530   0.06431   0.30694   0.00000  Uiso   1.00
O225   O     0.94366   0.05476   0.23346   0.00000  Uiso   1.00
O226   O     0.71103   0.28320   0.22232   0.00000  Uiso   1.00
O227   O     0.72818   0.23349   0.16731   0.00000  Uiso   1.00
O228   O     0.89345   0.20625   0.25000   0.00000  Uiso   1.00
O229   O     0.77321   0.12709   0.24999   0.00000  Uiso   1.00
O230   O     0.83333   0.20626   0.18573   0.00000  Uiso   1.00
O231   O     0.83334   0.12707   0.31427   0.00000  Uiso   1.00
O232   O     0.83334   0.20626   0.31427   0.00000  Uiso   1.00
O233   O     0.83333   0.12707   0.18573   0.00000  Uiso   1.00
O234   O     0.89269   0.24314   0.14020   0.00000  Uiso   1.00
C235   C     0.08753   0.49990   0.24965   0.00000  Uiso   1.00
C236   C     0.31298   0.54102   0.23703   0.00000  Uiso   1.00
C237   C     0.31272   0.45857   0.26120   0.00000  Uiso   1.00
C238   C     0.02182   0.53880   0.23224   0.00000  Uiso   1.00
C239   C     0.19791   0.51777   0.04626   0.00000  Uiso   1.00
C240   C     0.19885   0.47681   0.45266   0.00000  Uiso   1.00
C241   C     0.13350   0.51532   0.45333   0.00000  Uiso   1.00
C242   C     0.13544   0.47316   0.04764   0.00000  Uiso   1.00
C243   C     0.19749   0.52138   0.09214   0.00000  Uiso   1.00
C244   C     0.19969   0.47950   0.40664   0.00000  Uiso   1.00
C245   C     0.13305   0.51809   0.40718   0.00000  Uiso   1.00
C246   C     0.24609   0.50004   0.24954   0.00000  Uiso   1.00
C247   C     0.13452   0.47499   0.09375   0.00000  Uiso   1.00
C248   C     0.16546   0.50015   0.11646   0.00000  Uiso   1.00
C249   C     0.16626   0.49928   0.38341   0.00000  Uiso   1.00
C250   C     0.16672   0.49462   0.02409   0.00000  Uiso   1.00
C251   C     0.16601   0.49467   0.47586   0.00000  Uiso   1.00
C252   C     0.29105   0.49995   0.24927   0.00000  Uiso   1.00
C253   C     0.04307   0.49960   0.24918   0.00000  Uiso   1.00
C254   C     0.23204   0.54608   0.11297   0.00000  Uiso   1.00
C255   C     0.23766   0.46570   0.38439   0.00000  Uiso   1.00
C256   C     0.09742   0.54081   0.38552   0.00000  Uiso   1.00
C257   C     0.16652   0.50017   0.16494   0.00000  Uiso   1.00
C258   C     0.10042   0.45075   0.11656   0.00000  Uiso   1.00
C259   C     0.04292   0.42041   0.28798   0.00000  Uiso   1.00
C260   C     0.29314   0.58699   0.22935   0.00000  Uiso   1.00
C261   C     0.29203   0.41316   0.26937   0.00000  Uiso   1.00
C262   C     0.04316   0.57683   0.20760   0.00000  Uiso   1.00
C263   C     0.16634   0.49983   0.33500   0.00000  Uiso   1.00
C264   C     0.14680   0.35845   0.21769   0.00000  Uiso   1.00
C265   C     0.18629   0.64157   0.28249   0.00000  Uiso   1.00
C266   C     0.18617   0.35783   0.28257   0.00000  Uiso   1.00
C267   C     0.14696   0.64219   0.21760   0.00000  Uiso   1.00
C268   C     0.02167   0.46015   0.26559   0.00000  Uiso   1.00
Cu269  Cu    0.16667   0.54689   0.25000   0.00000  Uiso   1.00
Cu270  Cu    0.16667   0.45311   0.25000   0.00000  Uiso   1.00
H271   H     0.13074   0.37732   0.19185   0.00000  Uiso   1.00
H272   H     0.28233   0.48467   0.34282   0.00000  Uiso   1.00
H273   H     0.05875   0.54384   0.33390   0.00000  Uiso   1.00
H274   H     0.06052   0.44958   0.16670   0.00000  Uiso   1.00
H275   H     0.05763   0.35190   0.28761   0.00000  Uiso   1.00
H276   H     0.27881   0.63864   0.18602   0.00000  Uiso   1.00
H277   H     0.26174   0.35895   0.24294   0.00000  Uiso   1.00
H278   H     0.07357   0.59562   0.15252   0.00000  Uiso   1.00
H279   H     0.20226   0.62270   0.30839   0.00000  Uiso   1.00
H280   H     0.20204   0.37625   0.30851   0.00000  Uiso   1.00
H281   H     0.13136   0.62382   0.19156   0.00000  Uiso   1.00
H282   H     0.22208   0.53432   0.02747   0.00000  Uiso   1.00
H283   H     0.22451   0.46221   0.47071   0.00000  Uiso   1.00
H284   H     0.10848   0.52957   0.47205   0.00000  Uiso   1.00
H285   H     0.11150   0.45518   0.02976   0.00000  Uiso   1.00
H286   H     0.29286   0.55570   0.11514   0.00000  Uiso   1.00
N287   N     0.16667   0.61736   0.25000   0.00000  Uiso   1.00
N288   N     0.16667   0.38264   0.25000   0.00000  Uiso   1.00
O289   O     0.10655   0.53958   0.24999   0.00000  Uiso   1.00
O290   O     0.27163   0.53617   0.09940   0.00000  Uiso   1.00
O291   O     0.25590   0.43051   0.39651   0.00000  Uiso   1.00
O292   O     0.25409   0.49479   0.35170   0.00000  Uiso   1.00
O293   O     0.07933   0.57213   0.40440   0.00000  Uiso   1.00
O294   O     0.08358   0.52586   0.34443   0.00000  Uiso   1.00
O295   O     0.08587   0.41507   0.10088   0.00000  Uiso   1.00
O296   O     0.08396   0.46911   0.15500   0.00000  Uiso   1.00
O297   O     0.06137   0.42698   0.32252   0.00000  Uiso   1.00
O298   O     0.04185   0.37579   0.26944   0.00000  Uiso   1.00
O299   O     0.27952   0.60843   0.26068   0.00000  Uiso   1.00
O300   O     0.22679   0.46042   0.25000   0.00000  Uiso   1.00
O301   O     0.29273   0.60703   0.18710   0.00000  Uiso   1.00
O302   O     0.28864   0.39764   0.30694   0.00000  Uiso   1.00
O303   O     0.27699   0.38809   0.23346   0.00000  Uiso   1.00
O304   O     0.04437   0.61653   0.22232   0.00000  Uiso   1.00
O305   O     0.06152   0.56682   0.16731   0.00000  Uiso   1.00
O306   O     0.22679   0.53958   0.25000   0.00000  Uiso   1.00
O307   O     0.10655   0.46042   0.24999   0.00000  Uiso   1.00
O308   O     0.16666   0.53959   0.18573   0.00000  Uiso   1.00
O309   O     0.16667   0.46041   0.31427   0.00000  Uiso   1.00
O310   O     0.16667   0.53959   0.31427   0.00000  Uiso   1.00
O311   O     0.16666   0.46041   0.18573   0.00000  Uiso   1.00
O312   O     0.22602   0.57647   0.14020   0.00000  Uiso   1.00
C313   C     0.42086   0.49990   0.24965   0.00000  Uiso   1.00
C314   C     0.64631   0.54102   0.23703   0.00000  Uiso   1.00
C315   C     0.64606   0.45857   0.26120   0.00000  Uiso   1.00
C316   C     0.35516   0.53880   0.23224   0.00000  Uiso   1.00
C317   C     0.53124   0.51777   0.04626   0.00000  Uiso   1.00
C318   C     0.53218   0.47681   0.45266   0.00000  Uiso   1.00
C319   C     0.46684   0.51532   0.45333   0.00000  Uiso   1.00
C320   C     0.46877   0.47316   0.04764   0.00000  Uiso   1.00
C321   C     0.53082   0.52138   0.09214   0.00000  Uiso   1.00
C322   C     0.53302   0.47950   0.40664   0.00000  Uiso   1.00
C323   C     0.46639   0.51809   0.40718   0.00000  Uiso   1.00
C324   C     0.57943   0.50004   0.24954   0.00000  Uiso   1.00
C325   C     0.46785   0.47499   0.09375   0.00000  Uiso   1.00
C326   C     0.49879   0.50015   0.11646   0.00000  Uiso   1.00
C327   C     0.49960   0.49928   0.38341   0.00000  Uiso   1.00
C328   C     0.50005   0.49462   0.02409   0.00000  Uiso   1.00
C329   C     0.49935   0.49467   0.47586   0.00000  Uiso   1.00
C330   C     0.62438   0.49995   0.24927   0.00000  Uiso   1.00
C331   C     0.37641   0.49960   0.24918   0.00000  Uiso   1.00
C332   C     0.56538   0.54608   0.11297   0.00000  Uiso   1.00
C333   C     0.57099   0.46570   0.38439   0.00000  Uiso   1.00
C334   C     0.43076   0.54081   0.38552   0.00000  Uiso   1.00
C335   C     0.49985   0.50017   0.16494   0.00000  Uiso   1.00
C336   C     0.43375   0.45075   0.11656   0.00000  Uiso   1.00
C337   C     0.37626   0.42041   0.28798   0.00000  Uiso   1.00
C338   C     0.62647   0.58699   0.22935   0.00000  Uiso   1.00
C339   C     0.62536   0.41316   0.26937   0.00000  Uiso   1.00
C340   C     0.37649   0.57683   0.20760   0.00000  Uiso   1.00
C341   C     0.49967   0.49983   0.33500   0.00000  Uiso   1.00
C342   C     0.48014   0.35845   0.21769   0.00000  Uiso   1.00
C343   C     0.51962   0.64157   0.28249   0.00000  Uiso   1.00
C344   C     0.51951   0.35783   0.28257   0.00000  Uiso   1.00
C345   C     0.48029   0.64219   0.21760   0.00000  Uiso   1.00
C346   C     0.35500   0.46015   0.26559   0.00000  Uiso   1.00
Cu347  Cu    0.50000   0.54689   0.25000   0.00000  Uiso   1.00
Cu348  Cu    0.50000   0.45311   0.25000   0.00000  Uiso   1.00
H349   H     0.46408   0.37732   0.19185   0.00000  Uiso   1.00
H350   H     0.61566   0.48467   0.34282   0.00000  Uiso   1.00
H351   H     0.39208   0.54384   0.33390   0.00000  Uiso   1.00
H352   H     0.39385   0.44958   0.16670   0.00000  Uiso   1.00
H353   H     0.39097   0.35190   0.28761   0.00000  Uiso   1.00
H354   H     0.61214   0.63864   0.18602   0.00000  Uiso   1.00
H355   H     0.59507   0.35895   0.24294   0.00000  Uiso   1.00
H356   H     0.40690   0.59562   0.15252   0.00000  Uiso   1.00
H357   H     0.53559   0.62270   0.30839   0.00000  Uiso   1.00
H358   H     0.53537   0.37625   0.30851   0.00000  Uiso   1.00
H359   H     0.46469   0.62382   0.19156   0.00000  Uiso   1.00
H360   H     0.55541   0.53432   0.02747   0.00000  Uiso   1.00
H361   H     0.55784   0.46221   0.47071   0.00000  Uiso   1.00
H362   H     0.44181   0.52957   0.47205   0.00000  Uiso   1.00
H363   H     0.44484   0.45518   0.02976   0.00000  Uiso   1.00
H364   H     0.62620   0.55570   0.11514   0.00000  Uiso   1.00
N365   N     0.50000   0.61736   0.25000   0.00000  Uiso   1.00
N366   N     0.50000   0.38264   0.25000   0.00000  Uiso   1.00
O367   O     0.43988   0.53958   0.24999   0.00000  Uiso   1.00
O368   O     0.60497   0.53617   0.09940   0.00000  Uiso   1.00
O369   O     0.58924   0.43051   0.39651   0.00000  Uiso   1.00
O370   O     0.58742   0.49479   0.35170   0.00000  Uiso   1.00
O371   O     0.41267   0.57213   0.40440   0.00000  Uiso   1.00
O372   O     0.41691   0.52586   0.34443   0.00000  Uiso   1.00
O373   O     0.41920   0.41507   0.10088   0.00000  Uiso   1.00
O374   O     0.41729   0.46911   0.15500   0.00000  Uiso   1.00
O375   O     0.39471   0.42698   0.32252   0.00000  Uiso   1.00
O376   O     0.37518   0.37579   0.26944   0.00000  Uiso   1.00
O377   O     0.61286   0.60843   0.26068   0.00000  Uiso   1.00
O378   O     0.56012   0.46042   0.25000   0.00000  Uiso   1.00
O379   O     0.62607   0.60703   0.18710   0.00000  Uiso   1.00
O380   O     0.62197   0.39764   0.30694   0.00000  Uiso   1.00
O381   O     0.61032   0.38809   0.23346   0.00000  Uiso   1.00
O382   O     0.37770   0.61653   0.22232   0.00000  Uiso   1.00
O383   O     0.39485   0.56682   0.16731   0.00000  Uiso   1.00
O384   O     0.56012   0.53958   0.25000   0.00000  Uiso   1.00
O385   O     0.43988   0.46042   0.24999   0.00000  Uiso   1.00
O386   O     0.50000   0.53959   0.18573   0.00000  Uiso   1.00
O387   O     0.50000   0.46041   0.31427   0.00000  Uiso   1.00
O388   O     0.50000   0.53959   0.31427   0.00000  Uiso   1.00
O389   O     0.50000   0.46041   0.18573   0.00000  Uiso   1.00
O390   O     0.55935   0.57647   0.14020   0.00000  Uiso   1.00
C391   C     0.75419   0.49990   0.24965   0.00000  Uiso   1.00
C392   C     0.97964   0.54102   0.23703   0.00000  Uiso   1.00
C393   C     0.97939   0.45857   0.26120   0.00000  Uiso   1.00
C394   C     0.68849   0.53880   0.23224   0.00000  Uiso   1.00
C395   C     0.86457   0.51777   0.04626   0.00000  Uiso   1.00
C396   C     0.86552   0.47681   0.45266   0.00000  Uiso   1.00
C397   C     0.80017   0.51532   0.45333   0.00000  Uiso   1.00
C398   C     0.80211   0.47316   0.04764   0.00000  Uiso   1.00
C399   C     0.86415   0.52138   0.09214   0.00000  Uiso   1.00
C400   C     0.86636   0.47950   0.40664   0.00000  Uiso   1.00
C401   C     0.79972   0.51809   0.40718   0.00000  Uiso   1.00
C402   C     0.91276   0.50004   0.24954   0.00000  Uiso   1.00
C403   C     0.80118   0.47499   0.09375   0.00000  Uiso   1.00
C404   C     0.83213   0.50015   0.11646   0.00000  Uiso   1.00
C405   C     0.83293   0.49928   0.38341   0.00000  Uiso   1.00
C406   C     0.83338   0.49462   0.02409   0.00000  Uiso   1.00
C407   C     0.83268   0.49467   0.47586   0.00000  Uiso   1.00
C408   C     0.95771   0.49995   0.24927   0.00000  Uiso   1.00
C409   C     0.70974   0.49960   0.24918   0.00000  Uiso   1.00
C410   C     0.89871   0.54608   0.11297   0.00000  Uiso   1.00
C411   C     0.90433   0.46570   0.38439   0.00000  Uiso   1.00
C412   C     0.76409   0.54081   0.38552   0.00000  Uiso   1.00
C413   C     0.83319   0.50017   0.16494   0.00000  Uiso   1.00
C414   C     0.76708   0.45075   0.11656   0.00000  Uiso   1.00
C415   C     0.70959   0.42041   0.28798   0.00000  Uiso   1.00
C416   C     0.95980   0.58699   0.22935   0.00000  Uiso   1.00
C417   C     0.95869   0.41316   0.26937   0.00000  Uiso   1.00
C418   C     0.70983   0.57683   0.20760   0.00000  Uiso   1.00
C419   C     0.83300   0.49983   0.33500   0.00000  Uiso   1.00
C420   C     0.81347   0.35845   0.21769   0.00000  Uiso   1.00
C421   C     0.85295   0.64157   0.28249   0.00000  Uiso   1.00
C422   C     0.85284   0.35783   0.28257   0.00000  Uiso   1.00
C423   C     0.81363   0.64219   0.21760   0.00000  Uiso   1.00
C424   C     0.68834   0.46015   0.26559   0.00000  Uiso   1.00
Cu425  Cu    0.83333   0.54689   0.25000   0.00000  Uiso   1.00
Cu426  Cu    0.83333   0.45311   0.25000   0.00000  Uiso   1.00
H427   H     0.79741   0.37732   0.19185   0.00000  Uiso   1.00
H428   H     0.94899   0.48467   0.34282   0.00000  Uiso   1.00
H429   H     0.72541   0.54384   0.33390   0.00000  Uiso   1.00
H430   H     0.72718   0.44958   0.16670   0.00000  Uiso   1.00
H431   H     0.72430   0.35190   0.28761   0.00000  Uiso   1.00
H432   H     0.94548   0.63864   0.18602   0.00000  Uiso   1.00
H433   H     0.92841   0.35895   0.24294   0.00000  Uiso   1.00
H434   H     0.74023   0.59562   0.15252   0.00000  Uiso   1.00
H435   H     0.86892   0.62270   0.30839   0.00000  Uiso   1.00
H436   H     0.86871   0.37625   0.30851   0.00000  Uiso   1.00
H437   H     0.79802   0.62382   0.19156   0.00000  Uiso   1.00
H438   H     0.88874   0.53432   0.02747   0.00000  Uiso   1.00
H439   H     0.89117   0.46221   0.47071   0.00000  Uiso   1.00
H440   H     0.77515   0.52957   0.47205   0.00000  Uiso   1.00
H441   H     0.77817   0.45518   0.02976   0.00000  Uiso   1.00
H442   H     0.95953   0.55570   0.11514   0.00000  Uiso   1.00
N443   N     0.83333   0.61736   0.25000   0.00000  Uiso   1.00
N444   N     0.83333   0.38264   0.25000   0.00000  Uiso   1.00
O445   O     0.77321   0.53958   0.24999   0.00000  Uiso   1.00
O446   O     0.93830   0.53617   0.09940   0.00000  Uiso   1.00
O447   O     0.92257   0.43051   0.39651   0.00000  Uiso   1.00
O448   O     0.92075   0.49479   0.35170   0.00000  Uiso   1.00
O449   O     0.74600   0.57213   0.40440   0.00000  Uiso   1.00
O450   O     0.75025   0.52586   0.34443   0.00000  Uiso   1.00
O451   O     0.75254   0.41507   0.10088   0.00000  Uiso   1.00
O452   O     0.75063   0.46911   0.15500   0.00000  Uiso   1.00
O453   O     0.72804   0.42698   0.32252   0.00000  Uiso   1.00
O454   O     0.70851   0.37579   0.26944   0.00000  Uiso   1.00
O455   O     0.94619   0.60843   0.26068   0.00000  Uiso   1.00
O456   O     0.89345   0.46042   0.25000   0.00000  Uiso   1.00
O457   O     0.95940   0.60703   0.18710   0.00000  Uiso   1.00
O458   O     0.95530   0.39764   0.30694   0.00000  Uiso   1.00
O459   O     0.94366   0.38809   0.23346   0.00000  Uiso   1.00
O460   O     0.71103   0.61653   0.22232   0.00000  Uiso   1.00
O461   O     0.72818   0.56682   0.16731   0.00000  Uiso   1.00
O462   O     0.89345   0.53958   0.25000   0.00000  Uiso   1.00
O463   O     0.77321   0.46042   0.24999   0.00000  Uiso   1.00
O464   O     0.83333   0.53959   0.18573   0.00000  Uiso   1.00
O465   O     0.83334   0.46041   0.31427   0.00000  Uiso   1.00
O466   O     0.83334   0.53959   0.31427   0.00000  Uiso   1.00
O467   O     0.83333   0.46041   0.18573   0.00000  Uiso   1.00
O468   O     0.89269   0.57647   0.14020   0.00000  Uiso   1.00
C469   C     0.08753   0.83324   0.24965   0.00000  Uiso   1.00
C470   C     0.31298   0.87436   0.23703   0.00000  Uiso   1.00
C471   C     0.31272   0.79191   0.26120   0.00000  Uiso   1.00
C472   C     0.02182   0.87214   0.23224   0.00000  Uiso   1.00
C473   C     0.19791   0.85111   0.04626   0.00000  Uiso   1.00
C474   C     0.19885   0.81014   0.45266   0.00000  Uiso   1.00
C475   C     0.13350   0.84865   0.45333   0.00000  Uiso   1.00
C476   C     0.13544   0.80649   0.04764   0.00000  Uiso   1.00
C477   C     0.19749   0.85471   0.09214   0.00000  Uiso   1.00
C478   C     0.19969   0.81283   0.40664   0.00000  Uiso   1.00
C479   C     0.13305   0.85142   0.40718   0.00000  Uiso   1.00
C480   C     0.24609   0.83337   0.24954   0.00000  Uiso   1.00
C481   C     0.13452   0.80833   0.09375   0.00000  Uiso   1.00
C482   C     0.16546   0.83348   0.11646   0.00000  Uiso   1.00
C483   C     0.16626   0.83261   0.38341   0.00000  Uiso   1.00
C484   C     0.16672   0.82796   0.02409   0.00000  Uiso   1.00
C485   C     0.16601   0.82800   0.47586   0.00000  Uiso   1.00
C486   C     0.29105   0.83328   0.24927   0.00000  Uiso   1.00
C487   C     0.04307   0.83293   0.24918   0.00000  Uiso   1.00
C488   C     0.23204   0.87941   0.11297   0.00000  Uiso   1.00
C489   C     0.23766   0.79904   0.38439   0.00000  Uiso   1.00
C490   C     0.09742   0.87415   0.38552   0.00000  Uiso   1.00
C491   C     0.16652   0.83350   0.16494   0.00000  Uiso   1.00
C492   C     0.10042   0.78408   0.11656   0.00000  Uiso   1.00
C493   C     0.04292   0.75374   0.28798   0.00000  Uiso   1.00
C494   C     0.29314   0.92032   0.22935   0.00000  Uiso   1.00
C495   C     0.29203   0.74649   0.26937   0.00000  Uiso   1.00
C496   C     0.04316   0.91017   0.20760   0.00000  Uiso   1.00
C497   C     0.16634   0.83316   0.33500   0.00000  Uiso   1.00
C498   C     0.14680   0.69178   0.21769   0.00000  Uiso   1.00
C499   C     0.18629   0.97490   0.28249   0.00000  Uiso   1.00
C500   C     0.18617   0.69116   0.28257   0.00000  Uiso   1.00
C501   C     0.14696   0.97553   0.21760   0.00000  Uiso   1.00
C502   C     0.02167   0.79349   0.26559   0.00000  Uiso   1.00
Cu503  Cu    0.16667   0.88022   0.25000   0.00000  Uiso   1.00
Cu504  Cu    0.16667   0.78645   0.25000   0.00000  Uiso   1.00
H505   H     0.13074   0.71065   0.19185   0.00000  Uiso   1.00
H506   H     0.28233   0.81801   0.34282   0.00000  Uiso   1.00
H507   H     0.05875   0.87717   0.33390   0.00000  Uiso   1.00
H508   H     0.06052   0.78292   0.16670   0.00000  Uiso   1.00
H509   H     0.05763   0.68523   0.28761   0.00000  Uiso   1.00
H510   H     0.27881   0.97197   0.18602   0.00000  Uiso   1.00
H511   H     0.26174   0.69229   0.24294   0.00000  Uiso   1.00
H512   H     0.07357   0.92896   0.15252   0.00000  Uiso   1.00
H513   H     0.20226   0.95603   0.30839   0.00000  Uiso   1.00
H514   H     0.20204   0.70958   0.30851   0.00000  Uiso   1.00
H515   H     0.13136   0.95715   0.19156   0.00000  Uiso   1.00
H516   H     0.22208   0.86766   0.02747   0.00000  Uiso   1.00
H517   H     0.22451   0.79555   0.47071   0.00000  Uiso   1.00
H518   H     0.10848   0.86290   0.47205   0.00000  Uiso   1.00
H519   H     0.11150   0.78851   0.02976   0.00000  Uiso   1.00
H520   H     0.29286   0.88903   0.11514   0.00000  Uiso   1.00
N521   N     0.16667   0.95069   0.25000   0.00000  Uiso   1.00
N522   N     0.16667   0.71598   0.25000   0.00000  Uiso   1.00
O523   O     0.10655   0.87291   0.24999   0.00000  Uiso   1.00
O524   O     0.27163   0.86950   0.09940   0.00000  Uiso   1.00
O525   O     0.25590   0.76384   0.39651   0.00000  Uiso   1.00
O526   O     0.25409   0.82813   0.35170   0.00000  Uiso   1.00
O527   O     0.07933   0.90547   0.40440   0.00000  Uiso   1.00
O528   O     0.08358   0.85919   0.34443   0.00000  Uiso   1.00
O529   O     0.08587   0.74840   0.10088   0.00000  Uiso   1.00
O530   O     0.08396   0.80245   0.15500   0.00000  Uiso   1.00
O531   O     0.06137   0.76032   0.32252   0.00000  Uiso   1.00
O532   O     0.04185   0.70912   0.26944   0.00000  Uiso   1.00
O533   O     0.27952   0.94176   0.26068   0.00000  Uiso   1.00
O534   O     0.22679   0.79375   0.25000   0.00000  Uiso   1.00
O535   O     0.29273   0.94037   0.18710   0.00000  Uiso   1.00
O536   O     0.28864   0.73098   0.30694   0.00000  Uiso   1.00
O537   O     0.27699   0.72143   0.23346   0.00000  Uiso   1.00
O538   O     0.04437   0.94987   0.22232   0.00000  Uiso   1.00
O539   O     0.06152   0.90015   0.16731   0.00000  Uiso   1.00
O540   O     0.22679   0.87291   0.25000   0.00000  Uiso   1.00
O541   O     0.10655   0.79375   0.24999   0.00000  Uiso   1.00
O542   O     0.16666   0.87293   0.18573   0.00000  Uiso   1.00
O543   O     0.16667   0.79374   0.31427   0.00000  Uiso   1.00
O544   O     0.16667   0.87293   0.31427   0.00000  Uiso   1.00
O545   O     0.16666   0.79374   0.18573   0.00000  Uiso   1.00
O546   O     0.22602   0.90981   0.14020   0.00000  Uiso   1.00
C547   C     0.42086   0.83324   0.24965   0.00000  Uiso   1.00
C548   C     0.64631   0.87436   0.23703   0.00000  Uiso   1.00
C549   C     0.64606   0.79191   0.26120   0.00000  Uiso   1.00
C550   C     0.35516   0.87214   0.23224   0.00000  Uiso   1.00
C551   C     0.53124   0.85111   0.04626   0.00000  Uiso   1.00
C552   C     0.53218   0.81014   0.45266   0.00000  Uiso   1.00
C553   C     0.46684   0.84865   0.45333   0.00000  Uiso   1.00
C554   C     0.46877   0.80649   0.04764   0.00000  Uiso   1.00
C555   C     0.53082   0.85471   0.09214   0.00000  Uiso   1.00
C556   C     0.53302   0.81283   0.40664   0.00000  Uiso   1.00
C557   C     0.46639   0.85142   0.40718   0.00000  Uiso   1.00
C558   C     0.57943   0.83337   0.24954   0.00000  Uiso   1.00
C559   C     0.46785   0.80833   0.09375   0.00000  Uiso   1.00
C560   C     0.49879   0.83348   0.11646   0.00000  Uiso   1.00
C561   C     0.49960   0.83261   0.38341   0.00000  Uiso   1.00
C562   C     0.50005   0.82796   0.02409   0.00000  Uiso   1.00
C563   C     0.49935   0.82800   0.47586   0.00000  Uiso   1.00
C564   C     0.62438   0.83328   0.24927   0.00000  Uiso   1.00
C565   C     0.37641   0.83293   0.24918   0.00000  Uiso   1.00
C566   C     0.56538   0.87941   0.11297   0.00000  Uiso   1.00
C567   C     0.57099   0.79904   0.38439   0.00000  Uiso   1.00
C568   C     0.43076   0.87415   0.38552   0.00000  Uiso   1.00
C569   C     0.49985   0.83350   0.16494   0.00000  Uiso   1.00
C570   C     0.43375   0.78408   0.11656   0.00000  Uiso   1.00
C571   C     0.37626   0.75374   0.28798   0.00000  Uiso   1.00
C572   C     0.62647   0.92032   0.22935   0.00000  Uiso   1.00
C573   C     0.62536   0.74649   0.26937   0.00000  Uiso   1.00
C574   C     0.37649   0.91017   0.20760   0.00000  Uiso   1.00
C575   C     0.49967   0.83316   0.33500   0.00000  Uiso   1.00
C576   C     0.48014   0.69178   0.21769   0.00000  Uiso   1.00
C577   C     0.51962   0.97490   0.28249   0.00000  Uiso   1.00
C578   C     0.51951   0.69116   0.28257   0.00000  Uiso   1.00
C579   C     0.48029   0.97553   0.21760   0.00000  Uiso   1.00
C580   C     0.35500   0.79349   0.26559   0.00000  Uiso   1.00
Cu581  Cu    0.50000   0.88022   0.25000   0.00000  Uiso   1.00
Cu582  Cu    0.50000   0.78645   0.25000   0.00000  Uiso   1.00
H583   H     0.46408   0.71065   0.19185   0.00000  Uiso   1.00
H584   H     0.61566   0.81801   0.34282   0.00000  Uiso   1.00
H585   H     0.39208   0.87717   0.33390   0.00000  Uiso   1.00
H586   H     0.39385   0.78292   0.16670   0.00000  Uiso   1.00
H587   H     0.39097   0.68523   0.28761   0.00000  Uiso   1.00
H588   H     0.61214   0.97197   0.18602   0.00000  Uiso   1.00
H589   H     0.59507   0.69229   0.24294   0.00000  Uiso   1.00
H590   H     0.40690   0.92896   0.15252   0.00000  Uiso   1.00
H591   H     0.53559   0.95603   0.30839   0.00000  Uiso   1.00
H592   H     0.53537   0.70958   0.30851   0.00000  Uiso   1.00
H593   H     0.46469   0.95715   0.19156   0.00000  Uiso   1.00
H594   H     0.55541   0.86766   0.02747   0.00000  Uiso   1.00
H595   H     0.55784   0.79555   0.47071   0.00000  Uiso   1.00
H596   H     0.44181   0.86290   0.47205   0.00000  Uiso   1.00
H597   H     0.44484   0.78851   0.02976   0.00000  Uiso   1.00
H598   H     0.62620   0.88903   0.11514   0.00000  Uiso   1.00
N599   N     0.50000   0.95069   0.25000   0.00000  Uiso   1.00
N600   N     0.50000   0.71598   0.25000   0.00000  Uiso   1.00
O601   O     0.43988   0.87291   0.24999   0.00000  Uiso   1.00
O602   O     0.60497   0.86950   0.09940   0.00000  Uiso   1.00
O603   O     0.58924   0.76384   0.39651   0.00000  Uiso   1.00
O604   O     0.58742   0.82813   0.35170   0.00000  Uiso   1.00
O605   O     0.41267   0.90547   0.40440   0.00000  Uiso   1.00
O606   O     0.41691   0.85919   0.34443   0.00000  Uiso   1.00
O607   O     0.41920   0.74840   0.10088   0.00000  Uiso   1.00
O608   O     0.41729   0.80245   0.15500   0.00000  Uiso   1.00
O609   O     0.39471   0.76032   0.32252   0.00000  Uiso   1.00
O610   O     0.37518   0.70912   0.26944   0.00000  Uiso   1.00
O611   O     0.61286   0.94176   0.26068   0.00000  Uiso   1.00
O612   O     0.56012   0.79375   0.25000   0.00000  Uiso   1.00
O613   O     0.62607   0.94037   0.18710   0.00000  Uiso   1.00
O614   O     0.62197   0.73098   0.30694   0.00000  Uiso   1.00
O615   O     0.61032   0.72143   0.23346   0.00000  Uiso   1.00
O616   O     0.37770   0.94987   0.22232   0.00000  Uiso   1.00
O617   O     0.39485   0.90015   0.16731   0.00000  Uiso   1.00
O618   O     0.56012   0.87291   0.25000   0.00000  Uiso   1.00
O619   O     0.43988   0.79375   0.24999   0.00000  Uiso   1.00
O620   O     0.50000   0.87293   0.18573   0.00000  Uiso   1.00
O621   O     0.50000   0.79374   0.31427   0.00000  Uiso   1.00
O622   O     0.50000   0.87293   0.31427   0.00000  Uiso   1.00
O623   O     0.50000   0.79374   0.18573   0.00000  Uiso   1.00
O624   O     0.55935   0.90981   0.14020   0.00000  Uiso   1.00
C625   C     0.75419   0.83324   0.24965   0.00000  Uiso   1.00
C626   C     0.97964   0.87436   0.23703   0.00000  Uiso   1.00
C627   C     0.97939   0.79191   0.26120   0.00000  Uiso   1.00
C628   C     0.68849   0.87214   0.23224   0.00000  Uiso   1.00
C629   C     0.86457   0.85111   0.04626   0.00000  Uiso   1.00
C630   C     0.86552   0.81014   0.45266   0.00000  Uiso   1.00
C631   C     0.80017   0.84865   0.45333   0.00000  Uiso   1.00
C632   C     0.80211   0.80649   0.04764   0.00000  Uiso   1.00
C633   C     0.86415   0.85471   0.09214   0.00000  Uiso   1.00
C634   C     0.86636   0.81283   0.40664   0.00000  Uiso   1.00
C635   C     0.79972   0.85142   0.40718   0.00000  Uiso   1.00
C636   C     0.91276   0.83337   0.24954   0.00000  Uiso   1.00
C637   C     0.80118   0.80833   0.09375   0.00000  Uiso   1.00
C638   C     0.83213   0.83348   0.11646   0.00000  Uiso   1.00
C639   C     0.83293   0.83261   0.38341   0.00000  Uiso   1.00
C640   C     0.83338   0.82796   0.02409   0.00000  Uiso   1.00
C641   C     0.83268   0.82800   0.47586   0.00000  Uiso   1.00
C642   C     0.95771   0.83328   0.24927   0.00000  Uiso   1.00
C643   C     0.70974   0.83293   0.24918   0.00000  Uiso   1.00
C644   C     0.89871   0.87941   0.11297   0.00000  Uiso   1.00
C645   C     0.90433   0.79904   0.38439   0.00000  Uiso   1.00
C646   C     0.76409   0.87415   0.38552   0.00000  Uiso   1.00
C647   C     0.83319   0.83350   0.16494   0.00000  Uiso   1.00
C648   C     0.76708   0.78408   0.11656   0.00000  Uiso   1.00
C649   C     0.70959   0.75374   0.28798   0.00000  Uiso   1.00
C650   C     0.95980   0.92032   0.22935   0.00000  Uiso   1.00
C651   C     0.95869   0.74649   0.26937   0.00000  Uiso   1.00
C652   C     0.70983   0.91017   0.20760   0.00000  Uiso   1.00
C653   C     0.83300   0.83316   0.33500   0.00000  Uiso   1.00
C654   C     0.81347   0.69178   0.21769   0.00000  Uiso   1.00
C655   C     0.85295   0.97490   0.28249   0.00000  Uiso   1.00
C656   C     0.85284   0.69116   0.28257   0.00000  Uiso   1.00
C657   C     0.81363   0.97553   0.21760   0.00000  Uiso   1.00
C658   C     0.68834   0.79349   0.26559   0.00000  Uiso   1.00
Cu659  Cu    0.83333   0.88022   0.25000   0.00000  Uiso   1.00
Cu660  Cu    0.83333   0.78645   0.25000   0.00000  Uiso   1.00
H661   H     0.79741   0.71065   0.19185   0.00000  Uiso   1.00
H662   H     0.94899   0.81801   0.34282   0.00000  Uiso   1.00
H663   H     0.72541   0.87717   0.33390   0.00000  Uiso   1.00
H664   H     0.72718   0.78292   0.16670   0.00000  Uiso   1.00
H665   H     0.72430   0.68523   0.28761   0.00000  Uiso   1.00
H666   H     0.94548   0.97197   0.18602   0.00000  Uiso   1.00
H667   H     0.92841   0.69229   0.24294   0.00000  Uiso   1.00
H668   H     0.74023   0.92896   0.15252   0.00000  Uiso   1.00
H669   H     0.86892   0.95603   0.30839   0.00000  Uiso   1.00
H670   H     0.86871   0.70958   0.30851   0.00000  Uiso   1.00
H671   H     0.79802   0.95715   0.19156   0.00000  Uiso   1.00
H672   H     0.88874   0.86766   0.02747   0.00000  Uiso   1.00
H673   H     0.89117   0.79555   0.47071   0.00000  Uiso   1.00
H674   H     0.77515   0.86290   0.47205   0.00000  Uiso   1.00
H675   H     0.77817   0.78851   0.02976   0.00000  Uiso   1.00
H676   H     0.95953   0.88903   0.11514   0.00000  Uiso   1.00
N677   N     0.83333   0.95069   0.25000   0.00000  Uiso   1.00
N678   N     0.83333   0.71598   0.25000   0.00000  Uiso   1.00
O679   O     0.77321   0.87291   0.24999   0.00000  Uiso   1.00
O680   O     0.93830   0.86950   0.09940   0.00000  Uiso   1.00
O681   O     0.92257   0.76384   0.39651   0.00000  Uiso   1.00
O682   O     0.92075   0.82813   0.35170   0.00000  Uiso   1.00
O683   O     0.74600   0.90547   0.40440   0.00000  Uiso   1.00
O684   O     0.75025   0.85919   0.34443   0.00000  Uiso   1.00
O685   O     0.75254   0.74840   0.10088   0.00000  Uiso   1.00
O686   O     0.75063   0.80245   0.15500   0.00000  Uiso   1.00
O687   O     0.72804   0.76032   0.32252   0.00000  Uiso   1.00
O688   O     0.70851   0.70912   0.26944   0.00000  Uiso   1.00
O689   O     0.94619   0.94176   0.26068   0.00000  Uiso   1.00
O690   O     0.89345   0.79375   0.25000   0.00000  Uiso   1.00
O691   O     0.95940   0.94037   0.18710   0.00000  Uiso   1.00
O692   O     0.95530   0.73098   0.30694   0.00000  Uiso   1.00
O693   O     0.94366   0.72143   0.23346   0.00000  Uiso   1.00
O694   O     0.71103   0.94987   0.22232   0.00000  Uiso   1.00
O695   O     0.72818   0.90015   0.16731   0.00000  Uiso   1.00
O696   O     0.89345   0.87291   0.25000   0.00000  Uiso   1.00
O697   O     0.77321   0.79375   0.24999   0.00000  Uiso   1.00
O698   O     0.83333   0.87293   0.18573   0.00000  Uiso   1.00
O699   O     0.83334   0.79374   0.31427   0.00000  Uiso   1.00
O700   O     0.83334   0.87293   0.31427   0.00000  Uiso   1.00
O701   O     0.83333   0.79374   0.18573   0.00000  Uiso   1.00
O702   O     0.89269   0.90981   0.14020   0.00000  Uiso   1.00
C703   C     0.08753   0.16657   0.74965   0.00000  Uiso   1.00
C704   C     0.31298   0.20769   0.73703   0.00000  Uiso   1.00
C705   C     0.31272   0.12524   0.76120   0.00000  Uiso   1.00
C706   C     0.02182   0.20547   0.73224   0.00000  Uiso   1.00
C707   C     0.19791   0.18444   0.54626   0.00000  Uiso   1.00
C708   C     0.19885   0.14347   0.95266   0.00000  Uiso   1.00
C709   C     0.13350   0.18198   0.95333   0.00000  Uiso   1.00
C710   C     0.13544   0.13982   0.54764   0.00000  Uiso   1.00
C711   C     0.19749   0.18804   0.59214   0.00000  Uiso   1.00
C712   C     0.19969   0.14617   0.90664   0.00000  Uiso   1.00
C713   C     0.13305   0.18475   0.90718   0.00000  Uiso   1.00
C714   C     0.24609   0.16670   0.74954   0.00000  Uiso   1.00
C715   C     0.13452   0.14166   0.59375   0.00000  Uiso   1.00
C716   C     0.16546   0.16682   0.61646   0.00000  Uiso   1.00
C717   C     0.16626   0.16595   0.88341   0.00000  Uiso   1.00
C718   C     0.16672   0.16129   0.52409   0.00000  Uiso   1.00
C719   C     0.16601   0.16133   0.97586   0.00000  Uiso   1.00
C720   C     0.29105   0.16662   0.74927   0.00000  Uiso   1.00
C721   C     0.04307   0.16626   0.74918   0.00000  Uiso   1.00
C722   C     0.23204   0.21275   0.61297   0.00000  Uiso   1.00
C723   C     0.23766   0.13237   0.88439   0.00000  Uiso   1.00
C724   C     0.09742   0.20748   0.88552   0.00000  Uiso   1.00
C725   C     0.16652   0.16683   0.66494   0.00000  Uiso   1.00
C726   C     0.10042   0.11742   0.61656   0.00000  Uiso   1.00
C727   C     0.04292   0.08707   0.78798   0.00000  Uiso   1.00
C728   C     0.29314   0.25366   0.72935   0.00000  Uiso   1.00
C729   C     0.29203   0.07982   0.76937   0.00000  Uiso   1.00
C730   C     0.04316   0.24350   0.70760   0.00000  Uiso   1.00
C731   C     0.16634   0.16649   0.83500   0.00000  Uiso   1.00
C732   C     0.14680   0.02511   0.71769   0.00000  Uiso   1.00
C733   C     0.18629   0.30823   0.78249   0.00000  Uiso   1.00
C734   C     0.18617   0.02450   0.78257   0.00000  Uiso   1.00
C735   C     0.14696   0.30886   0.71760   0.00000  Uiso   1.00
C736   C     0.02167   0.12682   0.76559   0.00000  Uiso   1.00
Cu737  Cu    0.16667   0.21355   0.75000   0.00000  Uiso   1.00
Cu738  Cu    0.16667   0.11978   0.75000   0.00000  Uiso   1.00
H739   H     0.13074   0.04398   0.69185   0.00000  Uiso   1.00
H740   H     0.28233   0.15134   0.84282   0.00000  Uiso   1.00
H741   H     0.05875   0.21050   0.83390   0.00000  Uiso   1.00
H742   H     0.06052   0.11625   0.66670   0.00000  Uiso   1.00
H743   H     0.05763   0.01856   0.78761   0.00000  Uiso   1.00
H744   H     0.27881   0.30530   0.68602   0.00000  Uiso   1.00
H745   H     0.26174   0.02562   0.74294   0.00000  Uiso   1.00
H746   H     0.07357   0.26229   0.65252   0.00000  Uiso   1.00
H747   H     0.20226   0.28936   0.80839   0.00000  Uiso   1.00
H748   H     0.20204   0.04291   0.80851   0.00000  Uiso   1.00
H749   H     0.13136   0.29048   0.69156   0.00000  Uiso   1.00
H750   H     0.22208   0.20099   0.52747   0.00000  Uiso   1.00
H751   H     0.22451   0.12888   0.97071   0.00000  Uiso   1.00
H752   H     0.10848   0.19624   0.97205   0.00000  Uiso   1.00
H753   H     0.11150   0.12185   0.52976   0.00000  Uiso   1.00
H754   H     0.29286   0.22236   0.61514   0.00000  Uiso   1.00
N755   N     0.16667   0.28402   0.75000   0.00000  Uiso   1.00
N756   N     0.16667   0.04931   0.75000   0.00000  Uiso   1.00
O757   O     0.10655   0.20625   0.74999   0.00000  Uiso   1.00
O758   O     0.27163   0.20283   0.59940   0.00000  Uiso   1.00
O759   O     0.25590   0.09718   0.89651   0.00000  Uiso   1.00
O760   O     0.25409   0.16146   0.85170   0.00000  Uiso   1.00
O761   O     0.07933   0.23880   0.90440   0.00000  Uiso   1.00
O762   O     0.08358   0.19252   0.84443   0.00000  Uiso   1.00
O763   O     0.08587   0.08174   0.60088   0.00000  Uiso   1.00
O764   O     0.08396   0.13578   0.65500   0.00000  Uiso   1.00
O765   O     0.06137   0.09365   0.82252   0.00000  Uiso   1.00
O766   O     0.04185   0.04245   0.76944   0.00000  Uiso   1.00
O767   O     0.27952   0.27509   0.76068   0.00000  Uiso   1.00
O768   O     0.22679   0.12709   0.75000   0.00000  Uiso   1.00
O769   O     0.29273   0.27370   0.68710   0.00000  Uiso   1.00
O770   O     0.28864   0.06431   0.80694   0.00000  Uiso   1.00
O771   O     0.27699   0.05476   0.73346   0.00000  Uiso   1.00
O772   O     0.04437   0.28320   0.72232   0.00000  Uiso   1.00
O773   O     0.06152   0.23349   0.66731   0.00000  Uiso   1.00
O774   O     0.22679   0.20625   0.75000   0.00000  Uiso   1.00
O775   O     0.10655   0.12709   0.74999   0.00000  Uiso   1.00
O776   O     0.16666   0.20626   0.68573   0.00000  Uiso   1.00
O777   O     0.16667   0.12707   0.81427   0.00000  Uiso   1.00
O778   O     0.16667   0.20626   0.81427   0.00000  Uiso   1.00
O779   O     0.16666   0.12707   0.68573   0.00000  Uiso   1.00
O780   O     0.22602   0.24314   0.64020   0.00000  Uiso   1.00
C781   C     0.42086   0.16657   0.74965   0.00000  Uiso   1.00
C782   C     0.64631   0.20769   0.73703   0.00000  Uiso   1.00
C783   C     0.64606   0.12524   0.76120   0.00000  Uiso   1.00
C784   C     0.35516   0.20547   0.73224   0.00000  Uiso   1.00
C785   C     0.53124   0.18444   0.54626   0.00000  Uiso   1.00
C786   C     0.53218   0.14347   0.95266   0.00000  Uiso   1.00
C787   C     0.46684   0.18198   0.95333   0.00000  Uiso   1.00
C788   C     0.46877   0.13982   0.54764   0.00000  Uiso   1.00
C789   C     0.53082   0.18804   0.59214   0.00000  Uiso   1.00
C790   C     0.53302   0.14617   0.90664   0.00000  Uiso   1.00
C791   C     0.46639   0.18475   0.90718   0.00000  Uiso   1.00
C792   C     0.57943   0.16670   0.74954   0.00000  Uiso   1.00
C793   C     0.46785   0.14166   0.59375   0.00000  Uiso   1.00
C794   C     0.49879   0.16682   0.61646   0.00000  Uiso   1.00
C795   C     0.49960   0.16595   0.88341   0.00000  Uiso   1.00
C796   C     0.50005   0.16129   0.52409   0.00000  Uiso   1.00
C797   C     0.49935   0.16133   0.97586   0.00000  Uiso   1.00
C798   C     0.62438   0.16662   0.74927   0.00000  Uiso   1.00
C799   C     0.37641   0.16626   0.74918   0.00000  Uiso   1.00
C800   C     0.56538   0.21275   0.61297   0.00000  Uiso   1.00
C801   C     0.57099   0.13237   0.88439   0.00000  Uiso   1.00
C802   C     0.43076   0.20748   0.88552   0.00000  Uiso   1.00
C803   C     0.49985   0.16683   0.66494   0.00000  Uiso   1.00
C804   C     0.43375   0.11742   0.61656   0.00000  Uiso   1.00
C805   C     0.37626   0.08707   0.78798   0.00000  Uiso   1.00
C806   C     0.62647   0.25366   0.72935   0.00000  Uiso   1.00
C807   C     0.62536   0.07982   0.76937   0.00000  Uiso   1.00
C808   C     0.37649   0.24350   0.70760   0.00000  Uiso   1.00
C809   C     0.49967   0.16649   0.83500   0.00000  Uiso   1.00
C810   C     0.48014   0.02511   0.71769   0.00000  Uiso   1.00
C811   C     0.51962   0.30823   0.78249   0.00000  Uiso   1.00
C812   C     0.51951   0.02450   0.78257   0.00000  Uiso   1.00
C813   C     0.48029   0.30886   0.71760   0.00000  Uiso   1.00
C814   C     0.35500   0.12682   0.76559   0.00000  Uiso   1.00
Cu815  Cu    0.50000   0.21355   0.75000   0.00000  Uiso   1.00
Cu816  Cu    0.50000   0.11978   0.75000   0.00000  Uiso   1.00
H817   H     0.46408   0.04398   0.69185   0.00000  Uiso   1.00
H818   H     0.61566   0.15134   0.84282   0.00000  Uiso   1.00
H819   H     0.39208   0.21050   0.83390   0.00000  Uiso   1.00
H820   H     0.39385   0.11625   0.66670   0.00000  Uiso   1.00
H821   H     0.39097   0.01856   0.78761   0.00000  Uiso   1.00
H822   H     0.61214   0.30530   0.68602   0.00000  Uiso   1.00
H823   H     0.59507   0.02562   0.74294   0.00000  Uiso   1.00
H824   H     0.40690   0.26229   0.65252   0.00000  Uiso   1.00
H825   H     0.53559   0.28936   0.80839   0.00000  Uiso   1.00
H826   H     0.53537   0.04291   0.80851   0.00000  Uiso   1.00
H827   H     0.46469   0.29048   0.69156   0.00000  Uiso   1.00
H828   H     0.55541   0.20099   0.52747   0.00000  Uiso   1.00
H829   H     0.55784   0.12888   0.97071   0.00000  Uiso   1.00
H830   H     0.44181   0.19624   0.97205   0.00000  Uiso   1.00
H831   H     0.44484   0.12185   0.52976   0.00000  Uiso   1.00
H832   H     0.62620   0.22236   0.61514   0.00000  Uiso   1.00
N833   N     0.50000   0.28402   0.75000   0.00000  Uiso   1.00
N834   N     0.50000   0.04931   0.75000   0.00000  Uiso   1.00
O835   O     0.43988   0.20625   0.74999   0.00000  Uiso   1.00
O836   O     0.60497   0.20283   0.59940   0.00000  Uiso   1.00
O837   O     0.58924   0.09718   0.89651   0.00000  Uiso   1.00
O838   O     0.58742   0.16146   0.85170   0.00000  Uiso   1.00
O839   O     0.41267   0.23880   0.90440   0.00000  Uiso   1.00
O840   O     0.41691   0.19252   0.84443   0.00000  Uiso   1.00
O841   O     0.41920   0.08174   0.60088   0.00000  Uiso   1.00
O842   O     0.41729   0.13578   0.65500   0.00000  Uiso   1.00
O843   O     0.39471   0.09365   0.82252   0.00000  Uiso   1.00
O844   O     0.37518   0.04245   0.76944   0.00000  Uiso   1.00
O845   O     0.61286   0.27509   0.76068   0.00000  Uiso   1.00
O846   O     0.56012   0.12709   0.75000   0.00000  Uiso   1.00
O847   O     0.62607   0.27370   0.68710   0.00000  Uiso   1.00
O848   O     0.62197   0.06431   0.80694   0.00000  Uiso   1.00
O849   O     0.61032   0.05476   0.73346   0.00000  Uiso   1.00
O850   O     0.37770   0.28320   0.72232   0.00000  Uiso   1.00
O851   O     0.39485   0.23349   0.66731   0.00000  Uiso   1.00
O852   O     0.56012   0.20625   0.75000   0.00000  Uiso   1.00
O853   O     0.43988   0.12709   0.74999   0.00000  Uiso   1.00
O854   O     0.50000   0.20626   0.68573   0.00000  Uiso   1.00
O855   O     0.50000   0.12707   0.81427   0.00000  Uiso   1.00
O856   O     0.50000   0.20626   0.81427   0.00000  Uiso   1.00
O857   O     0.50000   0.12707   0.68573   0.00000  Uiso   1.00
O858   O     0.55935   0.24314   0.64020   0.00000  Uiso   1.00
C859   C     0.75419   0.16657   0.74965   0.00000  Uiso   1.00
C860   C     0.97964   0.20769   0.73703   0.00000  Uiso   1.00
C861   C     0.97939   0.12524   0.76120   0.00000  Uiso   1.00
C862   C     0.68849   0.20547   0.73224   0.00000  Uiso   1.00
C863   C     0.86457   0.18444   0.54626   0.00000  Uiso   1.00
C864   C     0.86552   0.14347   0.95266   0.00000  Uiso   1.00
C865   C     0.80017   0.18198   0.95333   0.00000  Uiso   1.00
C866   C     0.80211   0.13982   0.54764   0.00000  Uiso   1.00
C867   C     0.86415   0.18804   0.59214   0.00000  Uiso   1.00
C868   C     0.86636   0.14617   0.90664   0.00000  Uiso   1.00
C869   C     0.79972   0.18475   0.90718   0.00000  Uiso   1.00
C870   C     0.91276   0.16670   0.74954   0.00000  Uiso   1.00
C871   C     0.80118   0.14166   0.59375   0.00000  Uiso   1.00
C872   C     0.83213   0.16682   0.61646   0.00000  Uiso   1.00
C873   C     0.83293   0.16595   0.88341   0.00000  Uiso   1.00
C874   C     0.83338   0.16129   0.52409   0.00000  Uiso   1.00
C875   C     0.83268   0.16133   0.97586   0.00000  Uiso   1.00
C876   C     0.95771   0.16662   0.74927   0.00000  Uiso   1.00
C877   C     0.70974   0.16626   0.74918   0.00000  Uiso   1.00
C878   C     0.89871   0.21275   0.61297   0.00000  Uiso   1.00
C879   C     0.90433   0.13237   0.88439   0.00000  Uiso   1.00
C880   C     0.76409   0.20748   0.88552   0.00000  Uiso   1.00
C881   C     0.83319   0.16683   0.66494   0.00000  Uiso   1.00
C882   C     0.76708   0.11742   0.61656   0.00000  Uiso   1.00
C883   C     0.70959   0.08707   0.78798   0.00000  Uiso   1.00
C884   C     0.95980   0.25366   0.72935   0.00000  Uiso   1.00
C885   C     0.95869   0.07982   0.76937   0.00000  Uiso   1.00
C886   C     0.70983   0.24350   0.70760   0.00000  Uiso   1.00
C887   C     0.83300   0.16649   0.83500   0.00000  Uiso   1.00
C888   C     0.81347   0.02511   0.71769   0.00000  Uiso   1.00
C889   C     0.85295   0.30823   0.78249   0.00000  Uiso   1.00
C890   C     0.85284   0.02450   0.78257   0.00000  Uiso   1.00
C891   C     0.81363   0.30886   0.71760   0.00000  Uiso   1.00
C892   C     0.68834   0.12682   0.76559   0.00000  Uiso   1.00
Cu893  Cu    0.83333   0.21355   0.75000   0.00000  Uiso   1.00
Cu894  Cu    0.83333   0.11978   0.75000   0.00000  Uiso   1.00
H895   H     0.79741   0.04398   0.69185   0.00000  Uiso   1.00
H896   H     0.94899   0.15134   0.84282   0.00000  Uiso   1.00
H897   H     0.72541   0.21050   0.83390   0.00000  Uiso   1.00
H898   H     0.72718   0.11625   0.66670   0.00000  Uiso   1.00
H899   H     0.72430   0.01856   0.78761   0.00000  Uiso   1.00
H900   H     0.94548   0.30530   0.68602   0.00000  Uiso   1.00
H901   H     0.92841   0.02562   0.74294   0.00000  Uiso   1.00
H902   H     0.74023   0.26229   0.65252   0.00000  Uiso   1.00
H903   H     0.86892   0.28936   0.80839   0.00000  Uiso   1.00
H904   H     0.86871   0.04291   0.80851   0.00000  Uiso   1.00
H905   H     0.79802   0.29048   0.69156   0.00000  Uiso   1.00
H906   H     0.88874   0.20099   0.52747   0.00000  Uiso   1.00
H907   H     0.89117   0.12888   0.97071   0.00000  Uiso   1.00
H908   H     0.77515   0.19624   0.97205   0.00000  Uiso   1.00
H909   H     0.77817   0.12185   0.52976   0.00000  Uiso   1.00
H910   H     0.95953   0.22236   0.61514   0.00000  Uiso   1.00
N911   N     0.83333   0.28402   0.75000   0.00000  Uiso   1.00
N912   N     0.83333   0.04931   0.75000   0.00000  Uiso   1.00
O913   O     0.77321   0.20625   0.74999   0.00000  Uiso   1.00
O914   O     0.93830   0.20283   0.59940   0.00000  Uiso   1.00
O915   O     0.92257   0.09718   0.89651   0.00000  Uiso   1.00
O916   O     0.92075   0.16146   0.85170   0.00000  Uiso   1.00
O917   O     0.74600   0.23880   0.90440   0.00000  Uiso   1.00
O918   O     0.75025   0.19252   0.84443   0.00000  Uiso   1.00
O919   O     0.75254   0.08174   0.60088   0.00000  Uiso   1.00
O920   O     0.75063   0.13578   0.65500   0.00000  Uiso   1.00
O921   O     0.72804   0.09365   0.82252   0.00000  Uiso   1.00
O922   O     0.70851   0.04245   0.76944   0.00000  Uiso   1.00
O923   O     0.94619   0.27509   0.76068   0.00000  Uiso   1.00
O924   O     0.89345   0.12709   0.75000   0.00000  Uiso   1.00
O925   O     0.95940   0.27370   0.68710   0.00000  Uiso   1.00
O926   O     0.95530   0.06431   0.80694   0.00000  Uiso   1.00
O927   O     0.94366   0.05476   0.73346   0.00000  Uiso   1.00
O928   O     0.71103   0.28320   0.72232   0.00000  Uiso   1.00
O929   O     0.72818   0.23349   0.66731   0.00000  Uiso   1.00
O930   O     0.89345   0.20625   0.75000   0.00000  Uiso   1.00
O931   O     0.77321   0.12709   0.74999   0.00000  Uiso   1.00
O932   O     0.83333   0.20626   0.68573   0.00000  Uiso   1.00
O933   O     0.83334   0.12707   0.81427   0.00000  Uiso   1.00
O934   O     0.83334   0.20626   0.81427   0.00000  Uiso   1.00
O935   O     0.83333   0.12707   0.68573   0.00000  Uiso   1.00
O936   O     0.89269   0.24314   0.64020   0.00000  Uiso   1.00
C937   C     0.08753   0.49990   0.74965   0.00000  Uiso   1.00
C938   C     0.31298   0.54102   0.73703   0.00000  Uiso   1.00
C939   C     0.31272   0.45857   0.76120   0.00000  Uiso   1.00
C940   C     0.02182   0.53880   0.73224   0.00000  Uiso   1.00
C941   C     0.19791   0.51777   0.54626   0.00000  Uiso   1.00
C942   C     0.19885   0.47681   0.95266   0.00000  Uiso   1.00
C943   C     0.13350   0.51532   0.95333   0.00000  Uiso   1.00
C944   C     0.13544   0.47316   0.54764   0.00000  Uiso   1.00
C945   C     0.19749   0.52138   0.59214   0.00000  Uiso   1.00
C946   C     0.19969   0.47950   0.90664   0.00000  Uiso   1.00
C947   C     0.13305   0.51809   0.90718   0.00000  Uiso   1.00
C948   C     0.24609   0.50004   0.74954   0.00000  Uiso   1.00
C949   C     0.13452   0.47499   0.59375   0.00000  Uiso   1.00
C950   C     0.16546   0.50015   0.61646   0.00000  Uiso   1.00
C951   C     0.16626   0.49928   0.88341   0.00000  Uiso   1.00
C952   C     0.16672   0.49462   0.52409   0.00000  Uiso   1.00
C953   C     0.16601   0.49467   0.97586   0.00000  Uiso   1.00
C954   C     0.29105   0.49995   0.74927   0.00000  Uiso   1.00
C955   C     0.04307   0.49960   0.74918   0.00000  Uiso   1.00
C956   C     0.23204   0.54608   0.61297   0.00000  Uiso   1.00
C957   C     0.23766   0.46570   0.88439   0.00000  Uiso   1.00
C958   C     0.09742   0.54081   0.88552   0.00000  Uiso   1.00
C959   C     0.16652   0.50017   0.66494   0.00000  Uiso   1.00
C960   C     0.10042   0.45075   0.61656   0.00000  Uiso   1.00
C961   C     0.04292   0.42041   0.78798   0.00000  Uiso   1.00
C962   C     0.29314   0.58699   0.72935   0.00000  Uiso   1.00
C963   C     0.29203   0.41316   0.76937   0.00000  Uiso   1.00
C964   C     0.04316   0.57683   0.70760   0.00000  Uiso   1.00
C965   C     0.16634   0.49983   0.83500   0.00000  Uiso   1.00
C966   C     0.14680   0.35845   0.71769   0.00000  Uiso   1.00
C967   C     0.18629   0.64157   0.78249   0.00000  Uiso   1.00
C968   C     0.18617   0.35783   0.78257   0.00000  Uiso   1.00
C969   C     0.14696   0.64219   0.71760   0.00000  Uiso   1.00
C970   C     0.02167   0.46015   0.76559   0.00000  Uiso   1.00
Cu971  Cu    0.16667   0.54689   0.75000   0.00000  Uiso   1.00
Cu972  Cu    0.16667   0.45311   0.75000   0.00000  Uiso   1.00
H973   H     0.13074   0.37732   0.69185   0.00000  Uiso   1.00
H974   H     0.28233   0.48467   0.84282   0.00000  Uiso   1.00
H975   H     0.05875   0.54384   0.83390   0.00000  Uiso   1.00
H976   H     0.06052   0.44958   0.66670   0.00000  Uiso   1.00
H977   H     0.05763   0.35190   0.78761   0.00000  Uiso   1.00
H978   H     0.27881   0.63864   0.68602   0.00000  Uiso   1.00
H979   H     0.26174   0.35895   0.74294   0.00000  Uiso   1.00
H980   H     0.07357   0.59562   0.65252   0.00000  Uiso   1.00
H981   H     0.20226   0.62270   0.80839   0.00000  Uiso   1.00
H982   H     0.20204   0.37625   0.80851   0.00000  Uiso   1.00
H983   H     0.13136   0.62382   0.69156   0.00000  Uiso   1.00
H984   H     0.22208   0.53432   0.52747   0.00000  Uiso   1.00
H985   H     0.22451   0.46221   0.97071   0.00000  Uiso   1.00
H986   H     0.10848   0.52957   0.97205   0.00000  Uiso   1.00
H987   H     0.11150   0.45518   0.52976   0.00000  Uiso   1.00
H988   H     0.29286   0.55570   0.61514   0.00000  Uiso   1.00
N989   N     0.16667   0.61736   0.75000   0.00000  Uiso   1.00
N990   N     0.16667   0.38264   0.75000   0.00000  Uiso   1.00
O991   O     0.10655   0.53958   0.74999   0.00000  Uiso   1.00
O992   O     0.27163   0.53617   0.59940   0.00000  Uiso   1.00
O993   O     0.25590   0.43051   0.89651   0.00000  Uiso   1.00
O994   O     0.25409   0.49479   0.85170   0.00000  Uiso   1.00
O995   O     0.07933   0.57213   0.90440   0.00000  Uiso   1.00
O996   O     0.08358   0.52586   0.84443   0.00000  Uiso   1.00
O997   O     0.08587   0.41507   0.60088   0.00000  Uiso   1.00
O998   O     0.08396   0.46911   0.65500   0.00000  Uiso   1.00
O999   O     0.06137   0.42698   0.82252   0.00000  Uiso   1.00
O1000  O     0.04185   0.37579   0.76944   0.00000  Uiso   1.00
O1001  O     0.27952   0.60843   0.76068   0.00000  Uiso   1.00
O1002  O     0.22679   0.46042   0.75000   0.00000  Uiso   1.00
O1003  O     0.29273   0.60703   0.68710   0.00000  Uiso   1.00
O1004  O     0.28864   0.39764   0.80694   0.00000  Uiso   1.00
O1005  O     0.27699   0.38809   0.73346   0.00000  Uiso   1.00
O1006  O     0.04437   0.61653   0.72232   0.00000  Uiso   1.00
O1007  O     0.06152   0.56682   0.66731   0.00000  Uiso   1.00
O1008  O     0.22679   0.53958   0.75000   0.00000  Uiso   1.00
O1009  O     0.10655   0.46042   0.74999   0.00000  Uiso   1.00
O1010  O     0.16666   0.53959   0.68573   0.00000  Uiso   1.00
O1011  O     0.16667   0.46041   0.81427   0.00000  Uiso   1.00
O1012  O     0.16667   0.53959   0.81427   0.00000  Uiso   1.00
O1013  O     0.16666   0.46041   0.68573   0.00000  Uiso   1.00
O1014  O     0.22602   0.57647   0.64020   0.00000  Uiso   1.00
C1015  C     0.42086   0.49990   0.74965   0.00000  Uiso   1.00
C1016  C     0.64631   0.54102   0.73703   0.00000  Uiso   1.00
C1017  C     0.64606   0.45857   0.76120   0.00000  Uiso   1.00
C1018  C     0.35516   0.53880   0.73224   0.00000  Uiso   1.00
C1019  C     0.53124   0.51777   0.54626   0.00000  Uiso   1.00
C1020  C     0.53218   0.47681   0.95266   0.00000  Uiso   1.00
C1021  C     0.46684   0.51532   0.95333   0.00000  Uiso   1.00
C1022  C     0.46877   0.47316   0.54764   0.00000  Uiso   1.00
C1023  C     0.53082   0.52138   0.59214   0.00000  Uiso   1.00
C1024  C     0.53302   0.47950   0.90664   0.00000  Uiso   1.00
C1025  C     0.46639   0.51809   0.90718   0.00000  Uiso   1.00
C1026  C     0.57943   0.50004   0.74954   0.00000  Uiso   1.00
C1027  C     0.46785   0.47499   0.59375   0.00000  Uiso   1.00
C1028  C     0.49879   0.50015   0.61646   0.00000  Uiso   1.00
C1029  C     0.49960   0.49928   0.88341   0.00000  Uiso   1.00
C1030  C     0.50005   0.49462   0.52409   0.00000  Uiso   1.00
C1031  C     0.49935   0.49467   0.97586   0.00000  Uiso   1.00
C1032  C     0.62438   0.49995   0.74927   0.00000  Uiso   1.00
C1033  C     0.37641   0.49960   0.74918   0.00000  Uiso   1.00
C1034  C     0.56538   0.54608   0.61297   0.00000  Uiso   1.00
C1035  C     0.57099   0.46570   0.88439   0.00000  Uiso   1.00
C1036  C     0.43076   0.54081   0.88552   0.00000  Uiso   1.00
C1037  C     0.49985   0.50017   0.66494   0.00000  Uiso   1.00
C1038  C     0.43375   0.45075   0.61656   0.00000  Uiso   1.00
C1039  C     0.37626   0.42041   0.78798   0.00000  Uiso   1.00
C1040  C     0.62647   0.58699   0.72935   0.00000  Uiso   1.00
C1041  C     0.62536   0.41316   0.76937   0.00000  Uiso   1.00
C1042  C     0.37649   0.57683   0.70760   0.00000  Uiso   1.00
C1043  C     0.49967   0.49983   0.83500   0.00000  Uiso   1.00
C1044  C     0.48014   0.35845   0.71769   0.00000  Uiso   1.00
C1045  C     0.51962   0.64157   0.78249   0.00000  Uiso   1.00
C1046  C     0.51951   0.35783   0.78257   0.00000  Uiso   1.00
C1047  C     0.48029   0.64219   0.71760   0.00000  Uiso   1.00
C1048  C     0.35500   0.46015   0.76559   0.00000  Uiso   1.00
Cu1049 Cu    0.50000   0.54689   0.75000   0.00000  Uiso   1.00
Cu1050 Cu    0.50000   0.45311   0.75000   0.00000  Uiso   1.00
H1051  H     0.46408   0.37732   0.69185   0.00000  Uiso   1.00
H1052  H     0.61566   0.48467   0.84282   0.00000  Uiso   1.00
H1053  H     0.39208   0.54384   0.83390   0.00000  Uiso   1.00
H1054  H     0.39385   0.44958   0.66670   0.00000  Uiso   1.00
H1055  H     0.39097   0.35190   0.78761   0.00000  Uiso   1.00
H1056  H     0.61214   0.63864   0.68602   0.00000  Uiso   1.00
H1057  H     0.59507   0.35895   0.74294   0.00000  Uiso   1.00
H1058  H     0.40690   0.59562   0.65252   0.00000  Uiso   1.00
H1059  H     0.53559   0.62270   0.80839   0.00000  Uiso   1.00
H1060  H     0.53537   0.37625   0.80851   0.00000  Uiso   1.00
H1061  H     0.46469   0.62382   0.69156   0.00000  Uiso   1.00
H1062  H     0.55541   0.53432   0.52747   0.00000  Uiso   1.00
H1063  H     0.55784   0.46221   0.97071   0.00000  Uiso   1.00
H1064  H     0.44181   0.52957   0.97205   0.00000  Uiso   1.00
H1065  H     0.44484   0.45518   0.52976   0.00000  Uiso   1.00
H1066  H     0.62620   0.55570   0.61514   0.00000  Uiso   1.00
N1067  N     0.50000   0.61736   0.75000   0.00000  Uiso   1.00
N1068  N     0.50000   0.38264   0.75000   0.00000  Uiso   1.00
O1069  O     0.43988   0.53958   0.74999   0.00000  Uiso   1.00
O1070  O     0.60497   0.53617   0.59940   0.00000  Uiso   1.00
O1071  O     0.58924   0.43051   0.89651   0.00000  Uiso   1.00
O1072  O     0.58742   0.49479   0.85170   0.00000  Uiso   1.00
O1073  O     0.41267   0.57213   0.90440   0.00000  Uiso   1.00
O1074  O     0.41691   0.52586   0.84443   0.00000  Uiso   1.00
O1075  O     0.41920   0.41507   0.60088   0.00000  Uiso   1.00
O1076  O     0.41729   0.46911   0.65500   0.00000  Uiso   1.00
O1077  O     0.39471   0.42698   0.82252   0.00000  Uiso   1.00
O1078  O     0.37518   0.37579   0.76944   0.00000  Uiso   1.00
O1079  O     0.61286   0.60843   0.76068   0.00000  Uiso   1.00
O1080  O     0.56012   0.46042   0.75000   0.00000  Uiso   1.00
O1081  O     0.62607   0.60703   0.68710   0.00000  Uiso   1.00
O1082  O     0.62197   0.39764   0.80694   0.00000  Uiso   1.00
O1083  O     0.61032   0.38809   0.73346   0.00000  Uiso   1.00
O1084  O     0.37770   0.61653   0.72232   0.00000  Uiso   1.00
O1085  O     0.39485   0.56682   0.66731   0.00000  Uiso   1.00
O1086  O     0.56012   0.53958   0.75000   0.00000  Uiso   1.00
O1087  O     0.43988   0.46042   0.74999   0.00000  Uiso   1.00
O1088  O     0.50000   0.53959   0.68573   0.00000  Uiso   1.00
O1089  O     0.50000   0.46041   0.81427   0.00000  Uiso   1.00
O1090  O     0.50000   0.53959   0.81427   0.00000  Uiso   1.00
O1091  O     0.50000   0.46041   0.68573   0.00000  Uiso   1.00
O1092  O     0.55935   0.57647   0.64020   0.00000  Uiso   1.00
C1093  C     0.75419   0.49990   0.74965   0.00000  Uiso   1.00
C1094  C     0.97964   0.54102   0.73703   0.00000  Uiso   1.00
C1095  C     0.97939   0.45857   0.76120   0.00000  Uiso   1.00
C1096  C     0.68849   0.53880   0.73224   0.00000  Uiso   1.00
C1097  C     0.86457   0.51777   0.54626   0.00000  Uiso   1.00
C1098  C     0.86552   0.47681   0.95266   0.00000  Uiso   1.00
C1099  C     0.80017   0.51532   0.95333   0.00000  Uiso   1.00
C1100  C     0.80211   0.47316   0.54764   0.00000  Uiso   1.00
C1101  C     0.86415   0.52138   0.59214   0.00000  Uiso   1.00
C1102  C     0.86636   0.47950   0.90664   0.00000  Uiso   1.00
C1103  C     0.79972   0.51809   0.90718   0.00000  Uiso   1.00
C1104  C     0.91276   0.50004   0.74954   0.00000  Uiso   1.00
C1105  C     0.80118   0.47499   0.59375   0.00000  Uiso   1.00
C1106  C     0.83213   0.50015   0.61646   0.00000  Uiso   1.00
C1107  C     0.83293   0.49928   0.88341   0.00000  Uiso   1.00
C1108  C     0.83338   0.49462   0.52409   0.00000  Uiso   1.00
C1109  C     0.83268   0.49467   0.97586   0.00000  Uiso   1.00
C1110  C     0.95771   0.49995   0.74927   0.00000  Uiso   1.00
C1111  C     0.70974   0.49960   0.74918   0.00000  Uiso   1.00
C1112  C     0.89871   0.54608   0.61297   0.00000  Uiso   1.00
C1113  C     0.90433   0.46570   0.88439   0.00000  Uiso   1.00
C1114  C     0.76409   0.54081   0.88552   0.00000  Uiso   1.00
C1115  C     0.83319   0.50017   0.66494   0.00000  Uiso   1.00
C1116  C     0.76708   0.45075   0.61656   0.00000  Uiso   1.00
C1117  C     0.70959   0.42041   0.78798   0.00000  Uiso   1.00
C1118  C     0.95980   0.58699   0.72935   0.00000  Uiso   1.00
C1119  C     0.95869   0.41316   0.76937   0.00000  Uiso   1.00
C1120  C     0.70983   0.57683   0.70760   0.00000  Uiso   1.00
C1121  C     0.83300   0.49983   0.83500   0.00000  Uiso   1.00
C1122  C     0.81347   0.35845   0.71769   0.00000  Uiso   1.00
C1123  C     0.85295   0.64157   0.78249   0.00000  Uiso   1.00
C1124  C     0.85284   0.35783   0.78257   0.00000  Uiso   1.00
C1125  C     0.81363   0.64219   0.71760   0.00000  Uiso   1.00
C1126  C     0.68834   0.46015   0.76559   0.00000  Uiso   1.00
Cu1127 Cu    0.83333   0.54689   0.75000   0.00000  Uiso   1.00
Cu1128 Cu    0.83333   0.45311   0.75000   0.00000  Uiso   1.00
H1129  H     0.79741   0.37732   0.69185   0.00000  Uiso   1.00
H1130  H     0.94899   0.48467   0.84282   0.00000  Uiso   1.00
H1131  H     0.72541   0.54384   0.83390   0.00000  Uiso   1.00
H1132  H     0.72718   0.44958   0.66670   0.00000  Uiso   1.00
H1133  H     0.72430   0.35190   0.78761   0.00000  Uiso   1.00
H1134  H     0.94548   0.63864   0.68602   0.00000  Uiso   1.00
H1135  H     0.92841   0.35895   0.74294   0.00000  Uiso   1.00
H1136  H     0.74023   0.59562   0.65252   0.00000  Uiso   1.00
H1137  H     0.86892   0.62270   0.80839   0.00000  Uiso   1.00
H1138  H     0.86871   0.37625   0.80851   0.00000  Uiso   1.00
H1139  H     0.79802   0.62382   0.69156   0.00000  Uiso   1.00
H1140  H     0.88874   0.53432   0.52747   0.00000  Uiso   1.00
H1141  H     0.89117   0.46221   0.97071   0.00000  Uiso   1.00
H1142  H     0.77515   0.52957   0.97205   0.00000  Uiso   1.00
H1143  H     0.77817   0.45518   0.52976   0.00000  Uiso   1.00
H1144  H     0.95953   0.55570   0.61514   0.00000  Uiso   1.00
N1145  N     0.83333   0.61736   0.75000   0.00000  Uiso   1.00
N1146  N     0.83333   0.38264   0.75000   0.00000  Uiso   1.00
O1147  O     0.77321   0.53958   0.74999   0.00000  Uiso   1.00
O1148  O     0.93830   0.53617   0.59940   0.00000  Uiso   1.00
O1149  O     0.92257   0.43051   0.89651   0.00000  Uiso   1.00
O1150  O     0.92075   0.49479   0.85170   0.00000  Uiso   1.00
O1151  O     0.74600   0.57213   0.90440   0.00000  Uiso   1.00
O1152  O     0.75025   0.52586   0.84443   0.00000  Uiso   1.00
O1153  O     0.75254   0.41507   0.60088   0.00000  Uiso   1.00
O1154  O     0.75063   0.46911   0.65500   0.00000  Uiso   1.00
O1155  O     0.72804   0.42698   0.82252   0.00000  Uiso   1.00
O1156  O     0.70851   0.37579   0.76944   0.00000  Uiso   1.00
O1157  O     0.94619   0.60843   0.76068   0.00000  Uiso   1.00
O1158  O     0.89345   0.46042   0.75000   0.00000  Uiso   1.00
O1159  O     0.95940   0.60703   0.68710   0.00000  Uiso   1.00
O1160  O     0.95530   0.39764   0.80694   0.00000  Uiso   1.00
O1161  O     0.94366   0.38809   0.73346   0.00000  Uiso   1.00
O1162  O     0.71103   0.61653   0.72232   0.00000  Uiso   1.00
O1163  O     0.72818   0.56682   0.66731   0.00000  Uiso   1.00
O1164  O     0.89345   0.53958   0.75000   0.00000  Uiso   1.00
O1165  O     0.77321   0.46042   0.74999   0.00000  Uiso   1.00
O1166  O     0.83333   0.53959   0.68573   0.00000  Uiso   1.00
O1167  O     0.83334   0.46041   0.81427   0.00000  Uiso   1.00
O1168  O     0.83334   0.53959   0.81427   0.00000  Uiso   1.00
O1169  O     0.83333   0.46041   0.68573   0.00000  Uiso   1.00
O1170  O     0.89269   0.57647   0.64020   0.00000  Uiso   1.00
C1171  C     0.08753   0.83324   0.74965   0.00000  Uiso   1.00
C1172  C     0.31298   0.87436   0.73703   0.00000  Uiso   1.00
C1173  C     0.31272   0.79191   0.76120   0.00000  Uiso   1.00
C1174  C     0.02182   0.87214   0.73224   0.00000  Uiso   1.00
C1175  C     0.19791   0.85111   0.54626   0.00000  Uiso   1.00
C1176  C     0.19885   0.81014   0.95266   0.00000  Uiso   1.00
C1177  C     0.13350   0.84865   0.95333   0.00000  Uiso   1.00
C1178  C     0.13544   0.80649   0.54764   0.00000  Uiso   1.00
C1179  C     0.19749   0.85471   0.59214   0.00000  Uiso   1.00
C1180  C     0.19969   0.81283   0.90664   0.00000  Uiso   1.00
C1181  C     0.13305   0.85142   0.90718   0.00000  Uiso   1.00
C1182  C     0.24609   0.83337   0.74954   0.00000  Uiso   1.00
C1183  C     0.13452   0.80833   0.59375   0.00000  Uiso   1.00
C1184  C     0.16546   0.83348   0.61646   0.00000  Uiso   1.00
C1185  C     0.16626   0.83261   0.88341   0.00000  Uiso   1.00
C1186  C     0.16672   0.82796   0.52409   0.00000  Uiso   1.00
C1187  C     0.16601   0.82800   0.97586   0.00000  Uiso   1.00
C1188  C     0.29105   0.83328   0.74927   0.00000  Uiso   1.00
C1189  C     0.04307   0.83293   0.74918   0.00000  Uiso   1.00
C1190  C     0.23204   0.87941   0.61297   0.00000  Uiso   1.00
C1191  C     0.23766   0.79904   0.88439   0.00000  Uiso   1.00
C1192  C     0.09742   0.87415   0.88552   0.00000  Uiso   1.00
C1193  C     0.16652   0.83350   0.66494   0.00000  Uiso   1.00
C1194  C     0.10042   0.78408   0.61656   0.00000  Uiso   1.00
C1195  C     0.04292   0.75374   0.78798   0.00000  Uiso   1.00
C1196  C     0.29314   0.92032   0.72935   0.00000  Uiso   1.00
C1197  C     0.29203   0.74649   0.76937   0.00000  Uiso   1.00
C1198  C     0.04316   0.91017   0.70760   0.00000  Uiso   1.00
C1199  C     0.16634   0.83316   0.83500   0.00000  Uiso   1.00
C1200  C     0.14680   0.69178   0.71769   0.00000  Uiso   1.00
C1201  C     0.18629   0.97490   0.78249   0.00000  Uiso   1.00
C1202  C     0.18617   0.69116   0.78257   0.00000  Uiso   1.00
C1203  C     0.14696   0.97553   0.71760   0.00000  Uiso   1.00
C1204  C     0.02167   0.79349   0.76559   0.00000  Uiso   1.00
Cu1205 Cu    0.16667   0.88022   0.75000   0.00000  Uiso   1.00
Cu1206 Cu    0.16667   0.78645   0.75000   0.00000  Uiso   1.00
H1207  H     0.13074   0.71065   0.69185   0.00000  Uiso   1.00
H1208  H     0.28233   0.81801   0.84282   0.00000  Uiso   1.00
H1209  H     0.05875   0.87717   0.83390   0.00000  Uiso   1.00
H1210  H     0.06052   0.78292   0.66670   0.00000  Uiso   1.00
H1211  H     0.05763   0.68523   0.78761   0.00000  Uiso   1.00
H1212  H     0.27881   0.97197   0.68602   0.00000  Uiso   1.00
H1213  H     0.26174   0.69229   0.74294   0.00000  Uiso   1.00
H1214  H     0.07357   0.92896   0.65252   0.00000  Uiso   1.00
H1215  H     0.20226   0.95603   0.80839   0.00000  Uiso   1.00
H1216  H     0.20204   0.70958   0.80851   0.00000  Uiso   1.00
H1217  H     0.13136   0.95715   0.69156   0.00000  Uiso   1.00
H1218  H     0.22208   0.86766   0.52747   0.00000  Uiso   1.00
H1219  H     0.22451   0.79555   0.97071   0.00000  Uiso   1.00
H1220  H     0.10848   0.86290   0.97205   0.00000  Uiso   1.00
H1221  H     0.11150   0.78851   0.52976   0.00000  Uiso   1.00
H1222  H     0.29286   0.88903   0.61514   0.00000  Uiso   1.00
N1223  N     0.16667   0.95069   0.75000   0.00000  Uiso   1.00
N1224  N     0.16667   0.71598   0.75000   0.00000  Uiso   1.00
O1225  O     0.10655   0.87291   0.74999   0.00000  Uiso   1.00
O1226  O     0.27163   0.86950   0.59940   0.00000  Uiso   1.00
O1227  O     0.25590   0.76384   0.89651   0.00000  Uiso   1.00
O1228  O     0.25409   0.82813   0.85170   0.00000  Uiso   1.00
O1229  O     0.07933   0.90547   0.90440   0.00000  Uiso   1.00
O1230  O     0.08358   0.85919   0.84443   0.00000  Uiso   1.00
O1231  O     0.08587   0.74840   0.60088   0.00000  Uiso   1.00
O1232  O     0.08396   0.80245   0.65500   0.00000  Uiso   1.00
O1233  O     0.06137   0.76032   0.82252   0.00000  Uiso   1.00
O1234  O     0.04185   0.70912   0.76944   0.00000  Uiso   1.00
O1235  O     0.27952   0.94176   0.76068   0.00000  Uiso   1.00
O1236  O     0.22679   0.79375   0.75000   0.00000  Uiso   1.00
O1237  O     0.29273   0.94037   0.68710   0.00000  Uiso   1.00
O1238  O     0.28864   0.73098   0.80694   0.00000  Uiso   1.00
O1239  O     0.27699   0.72143   0.73346   0.00000  Uiso   1.00
O1240  O     0.04437   0.94987   0.72232   0.00000  Uiso   1.00
O1241  O     0.06152   0.90015   0.66731   0.00000  Uiso   1.00
O1242  O     0.22679   0.87291   0.75000   0.00000  Uiso   1.00
O1243  O     0.10655   0.79375   0.74999   0.00000  Uiso   1.00
O1244  O     0.16666   0.87293   0.68573   0.00000  Uiso   1.00
O1245  O     0.16667   0.79374   0.81427   0.00000  Uiso   1.00
O1246  O     0.16667   0.87293   0.81427   0.00000  Uiso   1.00
O1247  O     0.16666   0.79374   0.68573   0.00000  Uiso   1.00
O1248  O     0.22602   0.90981   0.64020   0.00000  Uiso   1.00
C1249  C     0.42086   0.83324   0.74965   0.00000  Uiso   1.00
C1250  C     0.64631   0.87436   0.73703   0.00000  Uiso   1.00
C1251  C     0.64606   0.79191   0.76120   0.00000  Uiso   1.00
C1252  C     0.35516   0.87214   0.73224   0.00000  Uiso   1.00
C1253  C     0.53124   0.85111   0.54626   0.00000  Uiso   1.00
C1254  C     0.53218   0.81014   0.95266   0.00000  Uiso   1.00
C1255  C     0.46684   0.84865   0.95333   0.00000  Uiso   1.00
C1256  C     0.46877   0.80649   0.54764   0.00000  Uiso   1.00
C1257  C     0.53082   0.85471   0.59214   0.00000  Uiso   1.00
C1258  C     0.53302   0.81283   0.90664   0.00000  Uiso   1.00
C1259  C     0.46639   0.85142   0.90718   0.00000  Uiso   1.00
C1260  C     0.57943   0.83337   0.74954   0.00000  Uiso   1.00
C1261  C     0.46785   0.80833   0.59375   0.00000  Uiso   1.00
C1262  C     0.49879   0.83348   0.61646   0.00000  Uiso   1.00
C1263  C     0.49960   0.83261   0.88341   0.00000  Uiso   1.00
C1264  C     0.50005   0.82796   0.52409   0.00000  Uiso   1.00
C1265  C     0.49935   0.82800   0.97586   0.00000  Uiso   1.00
C1266  C     0.62438   0.83328   0.74927   0.00000  Uiso   1.00
C1267  C     0.37641   0.83293   0.74918   0.00000  Uiso   1.00
C1268  C     0.56538   0.87941   0.61297   0.00000  Uiso   1.00
C1269  C     0.57099   0.79904   0.88439   0.00000  Uiso   1.00
C1270  C     0.43076   0.87415   0.88552   0.00000  Uiso   1.00
C1271  C     0.49985   0.83350   0.66494   0.00000  Uiso   1.00
C1272  C     0.43375   0.78408   0.61656   0.00000  Uiso   1.00
C1273  C     0.37626   0.75374   0.78798   0.00000  Uiso   1.00
C1274  C     0.62647   0.92032   0.72935   0.00000  Uiso   1.00
C1275  C     0.62536   0.74649   0.76937   0.00000  Uiso   1.00
C1276  C     0.37649   0.91017   0.70760   0.00000  Uiso   1.00
C1277  C     0.49967   0.83316   0.83500   0.00000  Uiso   1.00
C1278  C     0.48014   0.69178   0.71769   0.00000  Uiso   1.00
C1279  C     0.51962   0.97490   0.78249   0.00000  Uiso   1.00
C1280  C     0.51951   0.69116   0.78257   0.00000  Uiso   1.00
C1281  C     0.48029   0.97553   0.71760   0.00000  Uiso   1.00
C1282  C     0.35500   0.79349   0.76559   0.00000  Uiso   1.00
Cu1283 Cu    0.50000   0.88022   0.75000   0.00000  Uiso   1.00
Cu1284 Cu    0.50000   0.78645   0.75000   0.00000  Uiso   1.00
H1285  H     0.46408   0.71065   0.69185   0.00000  Uiso   1.00
H1286  H     0.61566   0.81801   0.84282   0.00000  Uiso   1.00
H1287  H     0.39208   0.87717   0.83390   0.00000  Uiso   1.00
H1288  H     0.39385   0.78292   0.66670   0.00000  Uiso   1.00
H1289  H     0.39097   0.68523   0.78761   0.00000  Uiso   1.00
H1290  H     0.61214   0.97197   0.68602   0.00000  Uiso   1.00
H1291  H     0.59507   0.69229   0.74294   0.00000  Uiso   1.00
H1292  H     0.40690   0.92896   0.65252   0.00000  Uiso   1.00
H1293  H     0.53559   0.95603   0.80839   0.00000  Uiso   1.00
H1294  H     0.53537   0.70958   0.80851   0.00000  Uiso   1.00
H1295  H     0.46469   0.95715   0.69156   0.00000  Uiso   1.00
H1296  H     0.55541   0.86766   0.52747   0.00000  Uiso   1.00
H1297  H     0.55784   0.79555   0.97071   0.00000  Uiso   1.00
H1298  H     0.44181   0.86290   0.97205   0.00000  Uiso   1.00
H1299  H     0.44484   0.78851   0.52976   0.00000  Uiso   1.00
H1300  H     0.62620   0.88903   0.61514   0.00000  Uiso   1.00
N1301  N     0.50000   0.95069   0.75000   0.00000  Uiso   1.00
N1302  N     0.50000   0.71598   0.75000   0.00000  Uiso   1.00
O1303  O     0.43988   0.87291   0.74999   0.00000  Uiso   1.00
O1304  O     0.60497   0.86950   0.59940   0.00000  Uiso   1.00
O1305  O     0.58924   0.76384   0.89651   0.00000  Uiso   1.00
O1306  O     0.58742   0.82813   0.85170   0.00000  Uiso   1.00
O1307  O     0.41267   0.90547   0.90440   0.00000  Uiso   1.00
O1308  O     0.41691   0.85919   0.84443   0.00000  Uiso   1.00
O1309  O     0.41920   0.74840   0.60088   0.00000  Uiso   1.00
O1310  O     0.41729   0.80245   0.65500   0.00000  Uiso   1.00
O1311  O     0.39471   0.76032   0.82252   0.00000  Uiso   1.00
O1312  O     0.37518   0.70912   0.76944   0.00000  Uiso   1.00
O1313  O     0.61286   0.94176   0.76068   0.00000  Uiso   1.00
O1314  O     0.56012   0.79375   0.75000   0.00000  Uiso   1.00
O1315  O     0.62607   0.94037   0.68710   0.00000  Uiso   1.00
O1316  O     0.62197   0.73098   0.80694   0.00000  Uiso   1.00
O1317  O     0.61032   0.72143   0.73346   0.00000  Uiso   1.00
O1318  O     0.37770   0.94987   0.72232   0.00000  Uiso   1.00
O1319  O     0.39485   0.90015   0.66731   0.00000  Uiso   1.00
O1320  O     0.56012   0.87291   0.75000   0.00000  Uiso   1.00
O1321  O     0.43988   0.79375   0.74999   0.00000  Uiso   1.00
O1322  O     0.50000   0.87293   0.68573   0.00000  Uiso   1.00
O1323  O     0.50000   0.79374   0.81427   0.00000  Uiso   1.00
O1324  O     0.50000   0.87293   0.81427   0.00000  Uiso   1.00
O1325  O     0.50000   0.79374   0.68573   0.00000  Uiso   1.00
O1326  O     0.55935   0.90981   0.64020   0.00000  Uiso   1.00
C1327  C     0.75419   0.83324   0.74965   0.00000  Uiso   1.00
C1328  C     0.97964   0.87436   0.73703   0.00000  Uiso   1.00
C1329  C     0.97939   0.79191   0.76120   0.00000  Uiso   1.00
C1330  C     0.68849   0.87214   0.73224   0.00000  Uiso   1.00
C1331  C     0.86457   0.85111   0.54626   0.00000  Uiso   1.00
C1332  C     0.86552   0.81014   0.95266   0.00000  Uiso   1.00
C1333  C     0.80017   0.84865   0.95333   0.00000  Uiso   1.00
C1334  C     0.80211   0.80649   0.54764   0.00000  Uiso   1.00
C1335  C     0.86415   0.85471   0.59214   0.00000  Uiso   1.00
C1336  C     0.86636   0.81283   0.90664   0.00000  Uiso   1.00
C1337  C     0.79972   0.85142   0.90718   0.00000  Uiso   1.00
C1338  C     0.91276   0.83337   0.74954   0.00000  Uiso   1.00
C1339  C     0.80118   0.80833   0.59375   0.00000  Uiso   1.00
C1340  C     0.83213   0.83348   0.61646   0.00000  Uiso   1.00
C1341  C     0.83293   0.83261   0.88341   0.00000  Uiso   1.00
C1342  C     0.83338   0.82796   0.52409   0.00000  Uiso   1.00
C1343  C     0.83268   0.82800   0.97586   0.00000  Uiso   1.00
C1344  C     0.95771   0.83328   0.74927   0.00000  Uiso   1.00
C1345  C     0.70974   0.83293   0.74918   0.00000  Uiso   1.00
C1346  C     0.89871   0.87941   0.61297   0.00000  Uiso   1.00
C1347  C     0.90433   0.79904   0.88439   0.00000  Uiso   1.00
C1348  C     0.76409   0.87415   0.88552   0.00000  Uiso   1.00
C1349  C     0.83319   0.83350   0.66494   0.00000  Uiso   1.00
C1350  C     0.76708   0.78408   0.61656   0.00000  Uiso   1.00
C1351  C     0.70959   0.75374   0.78798   0.00000  Uiso   1.00
C1352  C     0.95980   0.92032   0.72935   0.00000  Uiso   1.00
C1353  C     0.95869   0.74649   0.76937   0.00000  Uiso   1.00
C1354  C     0.70983   0.91017   0.70760   0.00000  Uiso   1.00
C1355  C     0.83300   0.83316   0.83500   0.00000  Uiso   1.00
C1356  C     0.81347   0.69178   0.71769   0.00000  Uiso   1.00
C1357  C     0.85295   0.97490   0.78249   0.00000  Uiso   1.00
C1358  C     0.85284   0.69116   0.78257   0.00000  Uiso   1.00
C1359  C     0.81363   0.97553   0.71760   0.00000  Uiso   1.00
C1360  C     0.68834   0.79349   0.76559   0.00000  Uiso   1.00
Cu1361 Cu    0.83333   0.88022   0.75000   0.00000  Uiso   1.00
Cu1362 Cu    0.83333   0.78645   0.75000   0.00000  Uiso   1.00
H1363  H     0.79741   0.71065   0.69185   0.00000  Uiso   1.00
H1364  H     0.94899   0.81801   0.84282   0.00000  Uiso   1.00
H1365  H     0.72541   0.87717   0.83390   0.00000  Uiso   1.00
H1366  H     0.72718   0.78292   0.66670   0.00000  Uiso   1.00
H1367  H     0.72430   0.68523   0.78761   0.00000  Uiso   1.00
H1368  H     0.94548   0.97197   0.68602   0.00000  Uiso   1.00
H1369  H     0.92841   0.69229   0.74294   0.00000  Uiso   1.00
H1370  H     0.74023   0.92896   0.65252   0.00000  Uiso   1.00
H1371  H     0.86892   0.95603   0.80839   0.00000  Uiso   1.00
H1372  H     0.86871   0.70958   0.80851   0.00000  Uiso   1.00
H1373  H     0.79802   0.95715   0.69156   0.00000  Uiso   1.00
H1374  H     0.88874   0.86766   0.52747   0.00000  Uiso   1.00
H1375  H     0.89117   0.79555   0.97071   0.00000  Uiso   1.00
H1376  H     0.77515   0.86290   0.97205   0.00000  Uiso   1.00
H1377  H     0.77817   0.78851   0.52976   0.00000  Uiso   1.00
H1378  H     0.95953   0.88903   0.61514   0.00000  Uiso   1.00
N1379  N     0.83333   0.95069   0.75000   0.00000  Uiso   1.00
N1380  N     0.83333   0.71598   0.75000   0.00000  Uiso   1.00
O1381  O     0.77321   0.87291   0.74999   0.00000  Uiso   1.00
O1382  O     0.93830   0.86950   0.59940   0.00000  Uiso   1.00
O1383  O     0.92257   0.76384   0.89651   0.00000  Uiso   1.00
O1384  O     0.92075   0.82813   0.85170   0.00000  Uiso   1.00
O1385  O     0.74600   0.90547   0.90440   0.00000  Uiso   1.00
O1386  O     0.75025   0.85919   0.84443   0.00000  Uiso   1.00
O1387  O     0.75254   0.74840   0.60088   0.00000  Uiso   1.00
O1388  O     0.75063   0.80245   0.65500   0.00000  Uiso   1.00
O1389  O     0.72804   0.76032   0.82252   0.00000  Uiso   1.00
O1390  O     0.70851   0.70912   0.76944   0.00000  Uiso   1.00
O1391  O     0.94619   0.94176   0.76068   0.00000  Uiso   1.00
O1392  O     0.89345   0.79375   0.75000   0.00000  Uiso   1.00
O1393  O     0.95940   0.94037   0.68710   0.00000  Uiso   1.00
O1394  O     0.95530   0.73098   0.80694   0.00000  Uiso   1.00
O1395  O     0.94366   0.72143   0.73346   0.00000  Uiso   1.00
O1396  O     0.71103   0.94987   0.72232   0.00000  Uiso   1.00
O1397  O     0.72818   0.90015   0.66731   0.00000  Uiso   1.00
O1398  O     0.89345   0.87291   0.75000   0.00000  Uiso   1.00
O1399  O     0.77321   0.79375   0.74999   0.00000  Uiso   1.00
O1400  O     0.83333   0.87293   0.68573   0.00000  Uiso   1.00
O1401  O     0.83334   0.79374   0.81427   0.00000  Uiso   1.00
O1402  O     0.83334   0.87293   0.81427   0.00000  Uiso   1.00
O1403  O     0.83333   0.79374   0.68573   0.00000  Uiso   1.00
O1404  O     0.89269   0.90981   0.64020   0.00000  Uiso   1.00
loop_
_geom_bond_atom_site_label_1
_geom_bond_atom_site_label_2
_geom_bond_distance
_geom_bond_site_symmetry_2
_ccdc_geom_bond_type
C1     C19     1.463   .     S
C1     O73     1.290   .     A
C1     O55     1.293   .     A
C2     C18     1.422   .     A
C2     C26     1.482   .     S
C2     C82     1.398   .     S
C3     C18     1.423   .     A
C3     C27     1.482   .     S
C3     C112    1.397   .     S
C4     C19     1.411   .     A
C4     C28     1.488   .     S
C4     C158    1.398   1_455 S
C5     C16     1.393   .     A
C5     H48     1.085   .     S
C5     C9      1.395   .     A
C6     C17     1.393   .     A
C6     C10     1.396   .     A
C6     H49     1.085   .     S
C7     C17     1.394   .     A
C7     C11     1.399   .     A
C7     H50     1.085   .     S
C8     C13     1.399   .     A
C8     C16     1.393   .     A
C8     H51     1.085   .     S
C9     C14     1.420   .     A
C9     C20     1.479   .     S
C10    C21     1.479   .     S
C10    C15     1.417   .     A
C11    C15     1.421   .     A
C11    C22     1.487   .     S
C12    O72     1.296   .     A
C12    O66     1.296   .     A
C12    C18     1.479   .     S
C13    C14     1.423   .     A
C13    C24     1.487   .     S
C14    C23     1.469   .     S
C15    C29     1.466   .     S
C16    C719    1.461   1_554 S
C17    C718    1.461   .     S
C19    C34     1.414   .     A
C20    O56     1.398   .     S
C20    O78     1.221   .     D
C21    O57     1.223   .     D
C21    O58     1.396   .     S
C22    O60     1.394   .     S
C22    O59     1.224   .     D
C23    O77     1.292   .     A
C23    O74     1.295   .     A
C24    O61     1.224   .     D
C24    O62     1.394   .     S
C25    O63     1.223   .     D
C25    C34     1.489   .     S
C25    O64     1.397   .     S
C26    O67     1.396   .     S
C26    O65     1.222   .     D
C27    O68     1.223   .     D
C27    O69     1.396   .     S
C28    O71     1.397   .     S
C28    O70     1.222   .     D
C29    O76     1.291   .     A
C29    O75     1.294   .     A
C30    N54     1.367   .     A
C30    H37     1.081   .     S
C30    C501    1.415   1_545 S
C31    N53     1.367   .     A
C31    H45     1.081   .     S
C31    C266    1.416   .     S
C32    N54     1.366   .     A
C32    H46     1.081   .     S
C32    C499    1.416   1_545 S
C33    N53     1.366   .     A
C33    H47     1.079   .     S
C33    C264    1.415   .     S
C34    C159    1.397   1_455 S
Cu35   O74     1.960   .     S
Cu35   N53     2.011   .     S
Cu35   Cu36    2.676   .     S
Cu35   O76     1.956   .     S
Cu35   O55     1.989   .     S
Cu35   O72     1.990   .     S
Cu36   O77     1.956   .     S
Cu36   O66     1.989   .     S
Cu36   O75     1.960   .     S
Cu36   N54     2.011   .     S
Cu36   O73     1.990   .     S
H38    O58     1.012   .     S
H39    O60     1.014   .     S
H40    O62     1.014   .     S
H41    O64     1.014   .     S
H42    O67     1.013   .     S
H43    O69     1.010   .     S
H44    O71     1.013   .     S
H52    O56     1.013   .     S
C79    C97     1.463   .     S
C79    O151    1.290   .     A
C79    O133    1.293   .     A
C80    C96     1.422   .     A
C80    C104    1.482   .     S
C80    C160    1.398   .     S
C81    C96     1.423   .     A
C81    C105    1.482   .     S
C81    C190    1.397   .     S
C82    C97     1.411   .     A
C82    C106    1.488   .     S
C83    C94     1.393   .     A
C83    H126    1.085   .     S
C83    C87     1.395   .     A
C84    C95     1.393   .     A
C84    C88     1.396   .     A
C84    H127    1.085   .     S
C85    C95     1.394   .     A
C85    C89     1.399   .     A
C85    H128    1.085   .     S
C86    C91     1.399   .     A
C86    C94     1.393   .     A
C86    H129    1.085   .     S
C87    C92     1.420   .     A
C87    C98     1.479   .     S
C88    C99     1.479   .     S
C88    C93     1.417   .     A
C89    C93     1.421   .     A
C89    C100    1.487   .     S
C90    O150    1.296   .     A
C90    O144    1.296   .     A
C90    C96     1.479   .     S
C91    C92     1.423   .     A
C91    C102    1.487   .     S
C92    C101    1.469   .     S
C93    C107    1.466   .     S
C94    C797    1.461   1_554 S
C95    C796    1.461   .     S
C97    C112    1.414   .     A
C98    O134    1.398   .     S
C98    O156    1.221   .     D
C99    O135    1.223   .     D
C99    O136    1.396   .     S
C100   O138    1.394   .     S
C100   O137    1.224   .     D
C101   O155    1.292   .     A
C101   O152    1.295   .     A
C102   O139    1.224   .     D
C102   O140    1.394   .     S
C103   O141    1.223   .     D
C103   C112    1.489   .     S
C103   O142    1.397   .     S
C104   O145    1.396   .     S
C104   O143    1.222   .     D
C105   O146    1.223   .     D
C105   O147    1.396   .     S
C106   O149    1.397   .     S
C106   O148    1.222   .     D
C107   O154    1.291   .     A
C107   O153    1.294   .     A
C108   N132    1.367   .     A
C108   H115    1.081   .     S
C108   C579    1.415   1_545 S
C109   N131    1.367   .     A
C109   H123    1.081   .     S
C109   C344    1.416   .     S
C110   N132    1.366   .     A
C110   H124    1.081   .     S
C110   C577    1.416   1_545 S
C111   N131    1.366   .     A
C111   H125    1.079   .     S
C111   C342    1.415   .     S
Cu113  O152    1.960   .     S
Cu113  N131    2.011   .     S
Cu113  Cu114   2.676   .     S
Cu113  O154    1.956   .     S
Cu113  O133    1.989   .     S
Cu113  O150    1.990   .     S
Cu114  O155    1.956   .     S
Cu114  O144    1.989   .     S
Cu114  O153    1.960   .     S
Cu114  N132    2.011   .     S
Cu114  O151    1.990   .     S
H116   O136    1.012   .     S
H117   O138    1.014   .     S
H118   O140    1.014   .     S
H119   O142    1.014   .     S
H120   O145    1.013   .     S
H121   O147    1.010   .     S
H122   O149    1.013   .     S
H130   O134    1.013   .     S
C157   C175    1.463   .     S
C157   O229    1.290   .     A
C157   O211    1.293   .     A
C158   C174    1.422   .     A
C158   C182    1.482   .     S
C158   C4      1.398   1_655 S
C159   C174    1.423   .     A
C159   C183    1.482   .     S
C159   C34     1.397   1_655 S
C160   C175    1.411   .     A
C160   C184    1.488   .     S
C161   C172    1.393   .     A
C161   H204    1.085   .     S
C161   C165    1.395   .     A
C162   C173    1.393   .     A
C162   C166    1.396   .     A
C162   H205    1.085   .     S
C163   C173    1.394   .     A
C163   C167    1.399   .     A
C163   H206    1.085   .     S
C164   C169    1.399   .     A
C164   C172    1.393   .     A
C164   H207    1.085   .     S
C165   C170    1.420   .     A
C165   C176    1.479   .     S
C166   C177    1.479   .     S
C166   C171    1.417   .     A
C167   C171    1.421   .     A
C167   C178    1.487   .     S
C168   O228    1.296   .     A
C168   O222    1.296   .     A
C168   C174    1.479   .     S
C169   C170    1.423   .     A
C169   C180    1.487   .     S
C170   C179    1.469   .     S
C171   C185    1.466   .     S
C172   C875    1.461   1_554 S
C173   C874    1.461   .     S
C175   C190    1.414   .     A
C176   O212    1.398   .     S
C176   O234    1.221   .     D
C177   O213    1.223   .     D
C177   O214    1.396   .     S
C178   O216    1.394   .     S
C178   O215    1.224   .     D
C179   O233    1.292   .     A
C179   O230    1.295   .     A
C180   O217    1.224   .     D
C180   O218    1.394   .     S
C181   O219    1.223   .     D
C181   C190    1.489   .     S
C181   O220    1.397   .     S
C182   O223    1.396   .     S
C182   O221    1.222   .     D
C183   O224    1.223   .     D
C183   O225    1.396   .     S
C184   O227    1.397   .     S
C184   O226    1.222   .     D
C185   O232    1.291   .     A
C185   O231    1.294   .     A
C186   N210    1.367   .     A
C186   H193    1.081   .     S
C186   C657    1.415   1_545 S
C187   N209    1.367   .     A
C187   H201    1.081   .     S
C187   C422    1.416   .     S
C188   N210    1.366   .     A
C188   H202    1.081   .     S
C188   C655    1.416   1_545 S
C189   N209    1.366   .     A
C189   H203    1.079   .     S
C189   C420    1.415   .     S
Cu191  O230    1.960   .     S
Cu191  N209    2.011   .     S
Cu191  Cu192   2.676   .     S
Cu191  O232    1.956   .     S
Cu191  O211    1.989   .     S
Cu191  O228    1.990   .     S
Cu192  O233    1.956   .     S
Cu192  O222    1.989   .     S
Cu192  O231    1.960   .     S
Cu192  N210    2.011   .     S
Cu192  O229    1.990   .     S
H194   O214    1.012   .     S
H195   O216    1.014   .     S
H196   O218    1.014   .     S
H197   O220    1.014   .     S
H198   O223    1.013   .     S
H199   O225    1.010   .     S
H200   O227    1.013   .     S
H208   O212    1.013   .     S
C235   C253    1.463   .     S
C235   O307    1.290   .     A
C235   O289    1.293   .     A
C236   C252    1.422   .     A
C236   C260    1.482   .     S
C236   C316    1.398   .     S
C237   C252    1.423   .     A
C237   C261    1.482   .     S
C237   C346    1.397   .     S
C238   C253    1.411   .     A
C238   C262    1.488   .     S
C238   C392    1.398   1_455 S
C239   C250    1.393   .     A
C239   H282    1.085   .     S
C239   C243    1.395   .     A
C240   C251    1.393   .     A
C240   C244    1.396   .     A
C240   H283    1.085   .     S
C241   C251    1.394   .     A
C241   C245    1.399   .     A
C241   H284    1.085   .     S
C242   C247    1.399   .     A
C242   C250    1.393   .     A
C242   H285    1.085   .     S
C243   C248    1.420   .     A
C243   C254    1.479   .     S
C244   C255    1.479   .     S
C244   C249    1.417   .     A
C245   C249    1.421   .     A
C245   C256    1.487   .     S
C246   O306    1.296   .     A
C246   O300    1.296   .     A
C246   C252    1.479   .     S
C247   C248    1.423   .     A
C247   C258    1.487   .     S
C248   C257    1.469   .     S
C249   C263    1.466   .     S
C250   C953    1.461   1_554 S
C251   C952    1.461   .     S
C253   C268    1.414   .     A
C254   O290    1.398   .     S
C254   O312    1.221   .     D
C255   O291    1.223   .     D
C255   O292    1.396   .     S
C256   O294    1.394   .     S
C256   O293    1.224   .     D
C257   O311    1.292   .     A
C257   O308    1.295   .     A
C258   O295    1.224   .     D
C258   O296    1.394   .     S
C259   O297    1.223   .     D
C259   C268    1.489   .     S
C259   O298    1.397   .     S
C260   O301    1.396   .     S
C260   O299    1.222   .     D
C261   O302    1.223   .     D
C261   O303    1.396   .     S
C262   O305    1.397   .     S
C262   O304    1.222   .     D
C263   O310    1.291   .     A
C263   O309    1.294   .     A
C264   N288    1.367   .     A
C264   H271    1.081   .     S
C265   N287    1.367   .     A
C265   H279    1.081   .     S
C265   C500    1.416   .     S
C266   N288    1.366   .     A
C266   H280    1.081   .     S
C267   N287    1.366   .     A
C267   H281    1.079   .     S
C267   C498    1.415   .     S
C268   C393    1.397   1_455 S
Cu269  O308    1.960   .     S
Cu269  N287    2.011   .     S
Cu269  Cu270   2.676   .     S
Cu269  O310    1.956   .     S
Cu269  O289    1.989   .     S
Cu269  O306    1.990   .     S
Cu270  O311    1.956   .     S
Cu270  O300    1.989   .     S
Cu270  O309    1.960   .     S
Cu270  N288    2.011   .     S
Cu270  O307    1.990   .     S
H272   O292    1.012   .     S
H273   O294    1.014   .     S
H274   O296    1.014   .     S
H275   O298    1.014   .     S
H276   O301    1.013   .     S
H277   O303    1.010   .     S
H278   O305    1.013   .     S
H286   O290    1.013   .     S
C313   C331    1.463   .     S
C313   O385    1.290   .     A
C313   O367    1.293   .     A
C314   C330    1.422   .     A
C314   C338    1.482   .     S
C314   C394    1.398   .     S
C315   C330    1.423   .     A
C315   C339    1.482   .     S
C315   C424    1.397   .     S
C316   C331    1.411   .     A
C316   C340    1.488   .     S
C317   C328    1.393   .     A
C317   H360    1.085   .     S
C317   C321    1.395   .     A
C318   C329    1.393   .     A
C318   C322    1.396   .     A
C318   H361    1.085   .     S
C319   C329    1.394   .     A
C319   C323    1.399   .     A
C319   H362    1.085   .     S
C320   C325    1.399   .     A
C320   C328    1.393   .     A
C320   H363    1.085   .     S
C321   C326    1.420   .     A
C321   C332    1.479   .     S
C322   C333    1.479   .     S
C322   C327    1.417   .     A
C323   C327    1.421   .     A
C323   C334    1.487   .     S
C324   O384    1.296   .     A
C324   O378    1.296   .     A
C324   C330    1.479   .     S
C325   C326    1.423   .     A
C325   C336    1.487   .     S
C326   C335    1.469   .     S
C327   C341    1.466   .     S
C328   C1031   1.461   1_554 S
C329   C1030   1.461   .     S
C331   C346    1.414   .     A
C332   O368    1.398   .     S
C332   O390    1.221   .     D
C333   O369    1.223   .     D
C333   O370    1.396   .     S
C334   O372    1.394   .     S
C334   O371    1.224   .     D
C335   O389    1.292   .     A
C335   O386    1.295   .     A
C336   O373    1.224   .     D
C336   O374    1.394   .     S
C337   O375    1.223   .     D
C337   C346    1.489   .     S
C337   O376    1.397   .     S
C338   O379    1.396   .     S
C338   O377    1.222   .     D
C339   O380    1.223   .     D
C339   O381    1.396   .     S
C340   O383    1.397   .     S
C340   O382    1.222   .     D
C341   O388    1.291   .     A
C341   O387    1.294   .     A
C342   N366    1.367   .     A
C342   H349    1.081   .     S
C343   N365    1.367   .     A
C343   H357    1.081   .     S
C343   C578    1.416   .     S
C344   N366    1.366   .     A
C344   H358    1.081   .     S
C345   N365    1.366   .     A
C345   H359    1.079   .     S
C345   C576    1.415   .     S
Cu347  O386    1.960   .     S
Cu347  N365    2.011   .     S
Cu347  Cu348   2.676   .     S
Cu347  O388    1.956   .     S
Cu347  O367    1.989   .     S
Cu347  O384    1.990   .     S
Cu348  O389    1.956   .     S
Cu348  O378    1.989   .     S
Cu348  O387    1.960   .     S
Cu348  N366    2.011   .     S
Cu348  O385    1.990   .     S
H350   O370    1.012   .     S
H351   O372    1.014   .     S
H352   O374    1.014   .     S
H353   O376    1.014   .     S
H354   O379    1.013   .     S
H355   O381    1.010   .     S
H356   O383    1.013   .     S
H364   O368    1.013   .     S
C391   C409    1.463   .     S
C391   O463    1.290   .     A
C391   O445    1.293   .     A
C392   C408    1.422   .     A
C392   C416    1.482   .     S
C392   C238    1.398   1_655 S
C393   C408    1.423   .     A
C393   C417    1.482   .     S
C393   C268    1.397   1_655 S
C394   C409    1.411   .     A
C394   C418    1.488   .     S
C395   C406    1.393   .     A
C395   H438    1.085   .     S
C395   C399    1.395   .     A
C396   C407    1.393   .     A
C396   C400    1.396   .     A
C396   H439    1.085   .     S
C397   C407    1.394   .     A
C397   C401    1.399   .     A
C397   H440    1.085   .     S
C398   C403    1.399   .     A
C398   C406    1.393   .     A
C398   H441    1.085   .     S
C399   C404    1.420   .     A
C399   C410    1.479   .     S
C400   C411    1.479   .     S
C400   C405    1.417   .     A
C401   C405    1.421   .     A
C401   C412    1.487   .     S
C402   O462    1.296   .     A
C402   O456    1.296   .     A
C402   C408    1.479   .     S
C403   C404    1.423   .     A
C403   C414    1.487   .     S
C404   C413    1.469   .     S
C405   C419    1.466   .     S
C406   C1109   1.461   1_554 S
C407   C1108   1.461   .     S
C409   C424    1.414   .     A
C410   O446    1.398   .     S
C410   O468    1.221   .     D
C411   O447    1.223   .     D
C411   O448    1.396   .     S
C412   O450    1.394   .     S
C412   O449    1.224   .     D
C413   O467    1.292   .     A
C413   O464    1.295   .     A
C414   O451    1.224   .     D
C414   O452    1.394   .     S
C415   O453    1.223   .     D
C415   C424    1.489   .     S
C415   O454    1.397   .     S
C416   O457    1.396   .     S
C416   O455    1.222   .     D
C417   O458    1.223   .     D
C417   O459    1.396   .     S
C418   O461    1.397   .     S
C418   O460    1.222   .     D
C419   O466    1.291   .     A
C419   O465    1.294   .     A
C420   N444    1.367   .     A
C420   H427    1.081   .     S
C421   N443    1.367   .     A
C421   H435    1.081   .     S
C421   C656    1.416   .     S
C422   N444    1.366   .     A
C422   H436    1.081   .     S
C423   N443    1.366   .     A
C423   H437    1.079   .     S
C423   C654    1.415   .     S
Cu425  O464    1.960   .     S
Cu425  N443    2.011   .     S
Cu425  Cu426   2.676   .     S
Cu425  O466    1.956   .     S
Cu425  O445    1.989   .     S
Cu425  O462    1.990   .     S
Cu426  O467    1.956   .     S
Cu426  O456    1.989   .     S
Cu426  O465    1.960   .     S
Cu426  N444    2.011   .     S
Cu426  O463    1.990   .     S
H428   O448    1.012   .     S
H429   O450    1.014   .     S
H430   O452    1.014   .     S
H431   O454    1.014   .     S
H432   O457    1.013   .     S
H433   O459    1.010   .     S
H434   O461    1.013   .     S
H442   O446    1.013   .     S
C469   C487    1.463   .     S
C469   O541    1.290   .     A
C469   O523    1.293   .     A
C470   C486    1.422   .     A
C470   C494    1.482   .     S
C470   C550    1.398   .     S
C471   C486    1.423   .     A
C471   C495    1.482   .     S
C471   C580    1.397   .     S
C472   C487    1.411   .     A
C472   C496    1.488   .     S
C472   C626    1.398   1_455 S
C473   C484    1.393   .     A
C473   H516    1.085   .     S
C473   C477    1.395   .     A
C474   C485    1.393   .     A
C474   C478    1.396   .     A
C474   H517    1.085   .     S
C475   C485    1.394   .     A
C475   C479    1.399   .     A
C475   H518    1.085   .     S
C476   C481    1.399   .     A
C476   C484    1.393   .     A
C476   H519    1.085   .     S
C477   C482    1.420   .     A
C477   C488    1.479   .     S
C478   C489    1.479   .     S
C478   C483    1.417   .     A
C479   C483    1.421   .     A
C479   C490    1.487   .     S
C480   O540    1.296   .     A
C480   O534    1.296   .     A
C480   C486    1.479   .     S
C481   C482    1.423   .     A
C481   C492    1.487   .     S
C482   C491    1.469   .     S
C483   C497    1.466   .     S
C484   C1187   1.461   1_554 S
C485   C1186   1.461   .     S
C487   C502    1.414   .     A
C488   O524    1.398   .     S
C488   O546    1.221   .     D
C489   O525    1.223   .     D
C489   O526    1.396   .     S
C490   O528    1.394   .     S
C490   O527    1.224   .     D
C491   O545    1.292   .     A
C491   O542    1.295   .     A
C492   O529    1.224   .     D
C492   O530    1.394   .     S
C493   O531    1.223   .     D
C493   C502    1.489   .     S
C493   O532    1.397   .     S
C494   O535    1.396   .     S
C494   O533    1.222   .     D
C495   O536    1.223   .     D
C495   O537    1.396   .     S
C496   O539    1.397   .     S
C496   O538    1.222   .     D
C497   O544    1.291   .     A
C497   O543    1.294   .     A
C498   N522    1.367   .     A
C498   H505    1.081   .     S
C499   N521    1.367   .     A
C499   H513    1.081   .     S
C499   C32     1.416   1_565 S
C500   N522    1.366   .     A
C500   H514    1.081   .     S
C501   N521    1.366   .     A
C501   H515    1.079   .     S
C501   C30     1.415   1_565 S
C502   C627    1.397   1_455 S
Cu503  O542    1.960   .     S
Cu503  N521    2.011   .     S
Cu503  Cu504   2.676   .     S
Cu503  O544    1.956   .     S
Cu503  O523    1.989   .     S
Cu503  O540    1.990   .     S
Cu504  O545    1.956   .     S
Cu504  O534    1.989   .     S
Cu504  O543    1.960   .     S
Cu504  N522    2.011   .     S
Cu504  O541    1.990   .     S
H506   O526    1.012   .     S
H507   O528    1.014   .     S
H508   O530    1.014   .     S
H509   O532    1.014   .     S
H510   O535    1.013   .     S
H511   O537    1.010   .     S
H512   O539    1.013   .     S
H520   O524    1.013   .     S
C547   C565    1.463   .     S
C547   O619    1.290   .     A
C547   O601    1.293   .     A
C548   C564    1.422   .     A
C548   C572    1.482   .     S
C548   C628    1.398   .     S
C549   C564    1.423   .     A
C549   C573    1.482   .     S
C549   C658    1.397   .     S
C550   C565    1.411   .     A
C550   C574    1.488   .     S
C551   C562    1.393   .     A
C551   H594    1.085   .     S
C551   C555    1.395   .     A
C552   C563    1.393   .     A
C552   C556    1.396   .     A
C552   H595    1.085   .     S
C553   C563    1.394   .     A
C553   C557    1.399   .     A
C553   H596    1.085   .     S
C554   C559    1.399   .     A
C554   C562    1.393   .     A
C554   H597    1.085   .     S
C555   C560    1.420   .     A
C555   C566    1.479   .     S
C556   C567    1.479   .     S
C556   C561    1.417   .     A
C557   C561    1.421   .     A
C557   C568    1.487   .     S
C558   O618    1.296   .     A
C558   O612    1.296   .     A
C558   C564    1.479   .     S
C559   C560    1.423   .     A
C559   C570    1.487   .     S
C560   C569    1.469   .     S
C561   C575    1.466   .     S
C562   C1265   1.461   1_554 S
C563   C1264   1.461   .     S
C565   C580    1.414   .     A
C566   O602    1.398   .     S
C566   O624    1.221   .     D
C567   O603    1.223   .     D
C567   O604    1.396   .     S
C568   O606    1.394   .     S
C568   O605    1.224   .     D
C569   O623    1.292   .     A
C569   O620    1.295   .     A
C570   O607    1.224   .     D
C570   O608    1.394   .     S
C571   O609    1.223   .     D
C571   C580    1.489   .     S
C571   O610    1.397   .     S
C572   O613    1.396   .     S
C572   O611    1.222   .     D
C573   O614    1.223   .     D
C573   O615    1.396   .     S
C574   O617    1.397   .     S
C574   O616    1.222   .     D
C575   O622    1.291   .     A
C575   O621    1.294   .     A
C576   N600    1.367   .     A
C576   H583    1.081   .     S
C577   N599    1.367   .     A
C577   H591    1.081   .     S
C577   C110    1.416   1_565 S
C578   N600    1.366   .     A
C578   H592    1.081   .     S
C579   N599    1.366   .     A
C579   H593    1.079   .     S
C579   C108    1.415   1_565 S
Cu581  O620    1.960   .     S
Cu581  N599    2.011   .     S
Cu581  Cu582   2.676   .     S
Cu581  O622    1.956   .     S
Cu581  O601    1.989   .     S
Cu581  O618    1.990   .     S
Cu582  O623    1.956   .     S
Cu582  O612    1.989   .     S
Cu582  O621    1.960   .     S
Cu582  N600    2.011   .     S
Cu582  O619    1.990   .     S
H584   O604    1.012   .     S
H585   O606    1.014   .     S
H586   O608    1.014   .     S
H587   O610    1.014   .     S
H588   O613    1.013   .     S
H589   O615    1.010   .     S
H590   O617    1.013   .     S
H598   O602    1.013   .     S
C625   C643    1.463   .     S
C625   O697    1.290   .     A
C625   O679    1.293   .     A
C626   C642    1.422   .     A
C626   C650    1.482   .     S
C626   C472    1.398   1_655 S
C627   C642    1.423   .     A
C627   C651    1.482   .     S
C627   C502    1.397   1_655 S
C628   C643    1.411   .     A
C628   C652    1.488   .     S
C629   C640    1.393   .     A
C629   H672    1.085   .     S
C629   C633    1.395   .     A
C630   C641    1.393   .     A
C630   C634    1.396   .     A
C630   H673    1.085   .     S
C631   C641    1.394   .     A
C631   C635    1.399   .     A
C631   H674    1.085   .     S
C632   C637    1.399   .     A
C632   C640    1.393   .     A
C632   H675    1.085   .     S
C633   C638    1.420   .     A
C633   C644    1.479   .     S
C634   C645    1.479   .     S
C634   C639    1.417   .     A
C635   C639    1.421   .     A
C635   C646    1.487   .     S
C636   O696    1.296   .     A
C636   O690    1.296   .     A
C636   C642    1.479   .     S
C637   C638    1.423   .     A
C637   C648    1.487   .     S
C638   C647    1.469   .     S
C639   C653    1.466   .     S
C640   C1343   1.461   1_554 S
C641   C1342   1.461   .     S
C643   C658    1.414   .     A
C644   O680    1.398   .     S
C644   O702    1.221   .     D
C645   O681    1.223   .     D
C645   O682    1.396   .     S
C646   O684    1.394   .     S
C646   O683    1.224   .     D
C647   O701    1.292   .     A
C647   O698    1.295   .     A
C648   O685    1.224   .     D
C648   O686    1.394   .     S
C649   O687    1.223   .     D
C649   C658    1.489   .     S
C649   O688    1.397   .     S
C650   O691    1.396   .     S
C650   O689    1.222   .     D
C651   O692    1.223   .     D
C651   O693    1.396   .     S
C652   O695    1.397   .     S
C652   O694    1.222   .     D
C653   O700    1.291   .     A
C653   O699    1.294   .     A
C654   N678    1.367   .     A
C654   H661    1.081   .     S
C655   N677    1.367   .     A
C655   H669    1.081   .     S
C655   C188    1.416   1_565 S
C656   N678    1.366   .     A
C656   H670    1.081   .     S
C657   N677    1.366   .     A
C657   H671    1.079   .     S
C657   C186    1.415   1_565 S
Cu659  O698    1.960   .     S
Cu659  N677    2.011   .     S
Cu659  Cu660   2.676   .     S
Cu659  O700    1.956   .     S
Cu659  O679    1.989   .     S
Cu659  O696    1.990   .     S
Cu660  O701    1.956   .     S
Cu660  O690    1.989   .     S
Cu660  O699    1.960   .     S
Cu660  N678    2.011   .     S
Cu660  O697    1.990   .     S
H662   O682    1.012   .     S
H663   O684    1.014   .     S
H664   O686    1.014   .     S
H665   O688    1.014   .     S
H666   O691    1.013   .     S
H667   O693    1.010   .     S
H668   O695    1.013   .     S
H676   O680    1.013   .     S
C703   C721    1.463   .     S
C703   O775    1.290   .     A
C703   O757    1.293   .     A
C704   C720    1.422   .     A
C704   C728    1.482   .     S
C704   C784    1.398   .     S
C705   C720    1.423   .     A
C705   C729    1.482   .     S
C705   C814    1.397   .     S
C706   C721    1.411   .     A
C706   C730    1.488   .     S
C706   C860    1.398   1_455 S
C707   C718    1.393   .     A
C707   H750    1.085   .     S
C707   C711    1.395   .     A
C708   C719    1.393   .     A
C708   C712    1.396   .     A
C708   H751    1.085   .     S
C709   C719    1.394   .     A
C709   C713    1.399   .     A
C709   H752    1.085   .     S
C710   C715    1.399   .     A
C710   C718    1.393   .     A
C710   H753    1.085   .     S
C711   C716    1.420   .     A
C711   C722    1.479   .     S
C712   C723    1.479   .     S
C712   C717    1.417   .     A
C713   C717    1.421   .     A
C713   C724    1.487   .     S
C714   O774    1.296   .     A
C714   O768    1.296   .     A
C714   C720    1.479   .     S
C715   C716    1.423   .     A
C715   C726    1.487   .     S
C716   C725    1.469   .     S
C717   C731    1.466   .     S
C719   C16     1.461   1_556 S
C721   C736    1.414   .     A
C722   O758    1.398   .     S
C722   O780    1.221   .     D
C723   O759    1.223   .     D
C723   O760    1.396   .     S
C724   O762    1.394   .     S
C724   O761    1.224   .     D
C725   O779    1.292   .     A
C725   O776    1.295   .     A
C726   O763    1.224   .     D
C726   O764    1.394   .     S
C727   O765    1.223   .     D
C727   C736    1.489   .     S
C727   O766    1.397   .     S
C728   O769    1.396   .     S
C728   O767    1.222   .     D
C729   O770    1.223   .     D
C729   O771    1.396   .     S
C730   O773    1.397   .     S
C730   O772    1.222   .     D
C731   O778    1.291   .     A
C731   O777    1.294   .     A
C732   N756    1.367   .     A
C732   H739    1.081   .     S
C732   C1203   1.415   1_545 S
C733   N755    1.367   .     A
C733   H747    1.081   .     S
C733   C968    1.416   .     S
C734   N756    1.366   .     A
C734   H748    1.081   .     S
C734   C1201   1.416   1_545 S
C735   N755    1.366   .     A
C735   H749    1.079   .     S
C735   C966    1.415   .     S
C736   C861    1.397   1_455 S
Cu737  O776    1.960   .     S
Cu737  N755    2.011   .     S
Cu737  Cu738   2.676   .     S
Cu737  O778    1.956   .     S
Cu737  O757    1.989   .     S
Cu737  O774    1.990   .     S
Cu738  O779    1.956   .     S
Cu738  O768    1.989   .     S
Cu738  O777    1.960   .     S
Cu738  N756    2.011   .     S
Cu738  O775    1.990   .     S
H740   O760    1.012   .     S
H741   O762    1.014   .     S
H742   O764    1.014   .     S
H743   O766    1.014   .     S
H744   O769    1.013   .     S
H745   O771    1.010   .     S
H746   O773    1.013   .     S
H754   O758    1.013   .     S
C781   C799    1.463   .     S
C781   O853    1.290   .     A
C781   O835    1.293   .     A
C782   C798    1.422   .     A
C782   C806    1.482   .     S
C782   C862    1.398   .     S
C783   C798    1.423   .     A
C783   C807    1.482   .     S
C783   C892    1.397   .     S
C784   C799    1.411   .     A
C784   C808    1.488   .     S
C785   C796    1.393   .     A
C785   H828    1.085   .     S
C785   C789    1.395   .     A
C786   C797    1.393   .     A
C786   C790    1.396   .     A
C786   H829    1.085   .     S
C787   C797    1.394   .     A
C787   C791    1.399   .     A
C787   H830    1.085   .     S
C788   C793    1.399   .     A
C788   C796    1.393   .     A
C788   H831    1.085   .     S
C789   C794    1.420   .     A
C789   C800    1.479   .     S
C790   C801    1.479   .     S
C790   C795    1.417   .     A
C791   C795    1.421   .     A
C791   C802    1.487   .     S
C792   O852    1.296   .     A
C792   O846    1.296   .     A
C792   C798    1.479   .     S
C793   C794    1.423   .     A
C793   C804    1.487   .     S
C794   C803    1.469   .     S
C795   C809    1.466   .     S
C797   C94     1.461   1_556 S
C799   C814    1.414   .     A
C800   O836    1.398   .     S
C800   O858    1.221   .     D
C801   O837    1.223   .     D
C801   O838    1.396   .     S
C802   O840    1.394   .     S
C802   O839    1.224   .     D
C803   O857    1.292   .     A
C803   O854    1.295   .     A
C804   O841    1.224   .     D
C804   O842    1.394   .     S
C805   O843    1.223   .     D
C805   C814    1.489   .     S
C805   O844    1.397   .     S
C806   O847    1.396   .     S
C806   O845    1.222   .     D
C807   O848    1.223   .     D
C807   O849    1.396   .     S
C808   O851    1.397   .     S
C808   O850    1.222   .     D
C809   O856    1.291   .     A
C809   O855    1.294   .     A
C810   N834    1.367   .     A
C810   H817    1.081   .     S
C810   C1281   1.415   1_545 S
C811   N833    1.367   .     A
C811   H825    1.081   .     S
C811   C1046   1.416   .     S
C812   N834    1.366   .     A
C812   H826    1.081   .     S
C812   C1279   1.416   1_545 S
C813   N833    1.366   .     A
C813   H827    1.079   .     S
C813   C1044   1.415   .     S
Cu815  O854    1.960   .     S
Cu815  N833    2.011   .     S
Cu815  Cu816   2.676   .     S
Cu815  O856    1.956   .     S
Cu815  O835    1.989   .     S
Cu815  O852    1.990   .     S
Cu816  O857    1.956   .     S
Cu816  O846    1.989   .     S
Cu816  O855    1.960   .     S
Cu816  N834    2.011   .     S
Cu816  O853    1.990   .     S
H818   O838    1.012   .     S
H819   O840    1.014   .     S
H820   O842    1.014   .     S
H821   O844    1.014   .     S
H822   O847    1.013   .     S
H823   O849    1.010   .     S
H824   O851    1.013   .     S
H832   O836    1.013   .     S
C859   C877    1.463   .     S
C859   O931    1.290   .     A
C859   O913    1.293   .     A
C860   C876    1.422   .     A
C860   C884    1.482   .     S
C860   C706    1.398   1_655 S
C861   C876    1.423   .     A
C861   C885    1.482   .     S
C861   C736    1.397   1_655 S
C862   C877    1.411   .     A
C862   C886    1.488   .     S
C863   C874    1.393   .     A
C863   H906    1.085   .     S
C863   C867    1.395   .     A
C864   C875    1.393   .     A
C864   C868    1.396   .     A
C864   H907    1.085   .     S
C865   C875    1.394   .     A
C865   C869    1.399   .     A
C865   H908    1.085   .     S
C866   C871    1.399   .     A
C866   C874    1.393   .     A
C866   H909    1.085   .     S
C867   C872    1.420   .     A
C867   C878    1.479   .     S
C868   C879    1.479   .     S
C868   C873    1.417   .     A
C869   C873    1.421   .     A
C869   C880    1.487   .     S
C870   O930    1.296   .     A
C870   O924    1.296   .     A
C870   C876    1.479   .     S
C871   C872    1.423   .     A
C871   C882    1.487   .     S
C872   C881    1.469   .     S
C873   C887    1.466   .     S
C875   C172    1.461   1_556 S
C877   C892    1.414   .     A
C878   O914    1.398   .     S
C878   O936    1.221   .     D
C879   O915    1.223   .     D
C879   O916    1.396   .     S
C880   O918    1.394   .     S
C880   O917    1.224   .     D
C881   O935    1.292   .     A
C881   O932    1.295   .     A
C882   O919    1.224   .     D
C882   O920    1.394   .     S
C883   O921    1.223   .     D
C883   C892    1.489   .     S
C883   O922    1.397   .     S
C884   O925    1.396   .     S
C884   O923    1.222   .     D
C885   O926    1.223   .     D
C885   O927    1.396   .     S
C886   O929    1.397   .     S
C886   O928    1.222   .     D
C887   O934    1.291   .     A
C887   O933    1.294   .     A
C888   N912    1.367   .     A
C888   H895    1.081   .     S
C888   C1359   1.415   1_545 S
C889   N911    1.367   .     A
C889   H903    1.081   .     S
C889   C1124   1.416   .     S
C890   N912    1.366   .     A
C890   H904    1.081   .     S
C890   C1357   1.416   1_545 S
C891   N911    1.366   .     A
C891   H905    1.079   .     S
C891   C1122   1.415   .     S
Cu893  O932    1.960   .     S
Cu893  N911    2.011   .     S
Cu893  Cu894   2.676   .     S
Cu893  O934    1.956   .     S
Cu893  O913    1.989   .     S
Cu893  O930    1.990   .     S
Cu894  O935    1.956   .     S
Cu894  O924    1.989   .     S
Cu894  O933    1.960   .     S
Cu894  N912    2.011   .     S
Cu894  O931    1.990   .     S
H896   O916    1.012   .     S
H897   O918    1.014   .     S
H898   O920    1.014   .     S
H899   O922    1.014   .     S
H900   O925    1.013   .     S
H901   O927    1.010   .     S
H902   O929    1.013   .     S
H910   O914    1.013   .     S
C937   C955    1.463   .     S
C937   O1009   1.290   .     A
C937   O991    1.293   .     A
C938   C954    1.422   .     A
C938   C962    1.482   .     S
C938   C1018   1.398   .     S
C939   C954    1.423   .     A
C939   C963    1.482   .     S
C939   C1048   1.397   .     S
C940   C955    1.411   .     A
C940   C964    1.488   .     S
C940   C1094   1.398   1_455 S
C941   C952    1.393   .     A
C941   H984    1.085   .     S
C941   C945    1.395   .     A
C942   C953    1.393   .     A
C942   C946    1.396   .     A
C942   H985    1.085   .     S
C943   C953    1.394   .     A
C943   C947    1.399   .     A
C943   H986    1.085   .     S
C944   C949    1.399   .     A
C944   C952    1.393   .     A
C944   H987    1.085   .     S
C945   C950    1.420   .     A
C945   C956    1.479   .     S
C946   C957    1.479   .     S
C946   C951    1.417   .     A
C947   C951    1.421   .     A
C947   C958    1.487   .     S
C948   O1008   1.296   .     A
C948   O1002   1.296   .     A
C948   C954    1.479   .     S
C949   C950    1.423   .     A
C949   C960    1.487   .     S
C950   C959    1.469   .     S
C951   C965    1.466   .     S
C953   C250    1.461   1_556 S
C955   C970    1.414   .     A
C956   O992    1.398   .     S
C956   O1014   1.221   .     D
C957   O993    1.223   .     D
C957   O994    1.396   .     S
C958   O996    1.394   .     S
C958   O995    1.224   .     D
C959   O1013   1.292   .     A
C959   O1010   1.295   .     A
C960   O997    1.224   .     D
C960   O998    1.394   .     S
C961   O999    1.223   .     D
C961   C970    1.489   .     S
C961   O1000   1.397   .     S
C962   O1003   1.396   .     S
C962   O1001   1.222   .     D
C963   O1004   1.223   .     D
C963   O1005   1.396   .     S
C964   O1007   1.397   .     S
C964   O1006   1.222   .     D
C965   O1012   1.291   .     A
C965   O1011   1.294   .     A
C966   N990    1.367   .     A
C966   H973    1.081   .     S
C967   N989    1.367   .     A
C967   H981    1.081   .     S
C967   C1202   1.416   .     S
C968   N990    1.366   .     A
C968   H982    1.081   .     S
C969   N989    1.366   .     A
C969   H983    1.079   .     S
C969   C1200   1.415   .     S
C970   C1095   1.397   1_455 S
Cu971  O1010   1.960   .     S
Cu971  N989    2.011   .     S
Cu971  Cu972   2.676   .     S
Cu971  O1012   1.956   .     S
Cu971  O991    1.989   .     S
Cu971  O1008   1.990   .     S
Cu972  O1013   1.956   .     S
Cu972  O1002   1.989   .     S
Cu972  O1011   1.960   .     S
Cu972  N990    2.011   .     S
Cu972  O1009   1.990   .     S
H974   O994    1.012   .     S
H975   O996    1.014   .     S
H976   O998    1.014   .     S
H977   O1000   1.014   .     S
H978   O1003   1.013   .     S
H979   O1005   1.010   .     S
H980   O1007   1.013   .     S
H988   O992    1.013   .     S
C1015  C1033   1.463   .     S
C1015  O1087   1.290   .     A
C1015  O1069   1.293   .     A
C1016  C1032   1.422   .     A
C1016  C1040   1.482   .     S
C1016  C1096   1.398   .     S
C1017  C1032   1.423   .     A
C1017  C1041   1.482   .     S
C1017  C1126   1.397   .     S
C1018  C1033   1.411   .     A
C1018  C1042   1.488   .     S
C1019  C1030   1.393   .     A
C1019  H1062   1.085   .     S
C1019  C1023   1.395   .     A
C1020  C1031   1.393   .     A
C1020  C1024   1.396   .     A
C1020  H1063   1.085   .     S
C1021  C1031   1.394   .     A
C1021  C1025   1.399   .     A
C1021  H1064   1.085   .     S
C1022  C1027   1.399   .     A
C1022  C1030   1.393   .     A
C1022  H1065   1.085   .     S
C1023  C1028   1.420   .     A
C1023  C1034   1.479   .     S
C1024  C1035   1.479   .     S
C1024  C1029   1.417   .     A
C1025  C1029   1.421   .     A
C1025  C1036   1.487   .     S
C1026  O1086   1.296   .     A
C1026  O1080   1.296   .     A
C1026  C1032   1.479   .     S
C1027  C1028   1.423   .     A
C1027  C1038   1.487   .     S
C1028  C1037   1.469   .     S
C1029  C1043   1.466   .     S
C1031  C328    1.461   1_556 S
C1033  C1048   1.414   .     A
C1034  O1070   1.398   .     S
C1034  O1092   1.221   .     D
C1035  O1071   1.223   .     D
C1035  O1072   1.396   .     S
C1036  O1074   1.394   .     S
C1036  O1073   1.224   .     D
C1037  O1091   1.292   .     A
C1037  O1088   1.295   .     A
C1038  O1075   1.224   .     D
C1038  O1076   1.394   .     S
C1039  O1077   1.223   .     D
C1039  C1048   1.489   .     S
C1039  O1078   1.397   .     S
C1040  O1081   1.396   .     S
C1040  O1079   1.222   .     D
C1041  O1082   1.223   .     D
C1041  O1083   1.396   .     S
C1042  O1085   1.397   .     S
C1042  O1084   1.222   .     D
C1043  O1090   1.291   .     A
C1043  O1089   1.294   .     A
C1044  N1068   1.367   .     A
C1044  H1051   1.081   .     S
C1045  N1067   1.367   .     A
C1045  H1059   1.081   .     S
C1045  C1280   1.416   .     S
C1046  N1068   1.366   .     A
C1046  H1060   1.081   .     S
C1047  N1067   1.366   .     A
C1047  H1061   1.079   .     S
C1047  C1278   1.415   .     S
Cu1049 O1088   1.960   .     S
Cu1049 N1067   2.011   .     S
Cu1049 Cu1050  2.676   .     S
Cu1049 O1090   1.956   .     S
Cu1049 O1069   1.989   .     S
Cu1049 O1086   1.990   .     S
Cu1050 O1091   1.956   .     S
Cu1050 O1080   1.989   .     S
Cu1050 O1089   1.960   .     S
Cu1050 N1068   2.011   .     S
Cu1050 O1087   1.990   .     S
H1052  O1072   1.012   .     S
H1053  O1074   1.014   .     S
H1054  O1076   1.014   .     S
H1055  O1078   1.014   .     S
H1056  O1081   1.013   .     S
H1057  O1083   1.010   .     S
H1058  O1085   1.013   .     S
H1066  O1070   1.013   .     S
C1093  C1111   1.463   .     S
C1093  O1165   1.290   .     A
C1093  O1147   1.293   .     A
C1094  C1110   1.422   .     A
C1094  C1118   1.482   .     S
C1094  C940    1.398   1_655 S
C1095  C1110   1.423   .     A
C1095  C1119   1.482   .     S
C1095  C970    1.397   1_655 S
C1096  C1111   1.411   .     A
C1096  C1120   1.488   .     S
C1097  C1108   1.393   .     A
C1097  H1140   1.085   .     S
C1097  C1101   1.395   .     A
C1098  C1109   1.393   .     A
C1098  C1102   1.396   .     A
C1098  H1141   1.085   .     S
C1099  C1109   1.394   .     A
C1099  C1103   1.399   .     A
C1099  H1142   1.085   .     S
C1100  C1105   1.399   .     A
C1100  C1108   1.393   .     A
C1100  H1143   1.085   .     S
C1101  C1106   1.420   .     A
C1101  C1112   1.479   .     S
C1102  C1113   1.479   .     S
C1102  C1107   1.417   .     A
C1103  C1107   1.421   .     A
C1103  C1114   1.487   .     S
C1104  O1164   1.296   .     A
C1104  O1158   1.296   .     A
C1104  C1110   1.479   .     S
C1105  C1106   1.423   .     A
C1105  C1116   1.487   .     S
C1106  C1115   1.469   .     S
C1107  C1121   1.466   .     S
C1109  C406    1.461   1_556 S
C1111  C1126   1.414   .     A
C1112  O1148   1.398   .     S
C1112  O1170   1.221   .     D
C1113  O1149   1.223   .     D
C1113  O1150   1.396   .     S
C1114  O1152   1.394   .     S
C1114  O1151   1.224   .     D
C1115  O1169   1.292   .     A
C1115  O1166   1.295   .     A
C1116  O1153   1.224   .     D
C1116  O1154   1.394   .     S
C1117  O1155   1.223   .     D
C1117  C1126   1.489   .     S
C1117  O1156   1.397   .     S
C1118  O1159   1.396   .     S
C1118  O1157   1.222   .     D
C1119  O1160   1.223   .     D
C1119  O1161   1.396   .     S
C1120  O1163   1.397   .     S
C1120  O1162   1.222   .     D
C1121  O1168   1.291   .     A
C1121  O1167   1.294   .     A
C1122  N1146   1.367   .     A
C1122  H1129   1.081   .     S
C1123  N1145   1.367   .     A
C1123  H1137   1.081   .     S
C1123  C1358   1.416   .     S
C1124  N1146   1.366   .     A
C1124  H1138   1.081   .     S
C1125  N1145   1.366   .     A
C1125  H1139   1.079   .     S
C1125  C1356   1.415   .     S
Cu1127 O1166   1.960   .     S
Cu1127 N1145   2.011   .     S
Cu1127 Cu1128  2.676   .     S
Cu1127 O1168   1.956   .     S
Cu1127 O1147   1.989   .     S
Cu1127 O1164   1.990   .     S
Cu1128 O1169   1.956   .     S
Cu1128 O1158   1.989   .     S
Cu1128 O1167   1.960   .     S
Cu1128 N1146   2.011   .     S
Cu1128 O1165   1.990   .     S
H1130  O1150   1.012   .     S
H1131  O1152   1.014   .     S
H1132  O1154   1.014   .     S
H1133  O1156   1.014   .     S
H1134  O1159   1.013   .     S
H1135  O1161   1.010   .     S
H1136  O1163   1.013   .     S
H1144  O1148   1.013   .     S
C1171  C1189   1.463   .     S
C1171  O1243   1.290   .     A
C1171  O1225   1.293   .     A
C1172  C1188   1.422   .     A
C1172  C1196   1.482   .     S
C1172  C1252   1.398   .     S
C1173  C1188   1.423   .     A
C1173  C1197   1.482   .     S
C1173  C1282   1.397   .     S
C1174  C1189   1.411   .     A
C1174  C1198   1.488   .     S
C1174  C1328   1.398   1_455 S
C1175  C1186   1.393   .     A
C1175  H1218   1.085   .     S
C1175  C1179   1.395   .     A
C1176  C1187   1.393   .     A
C1176  C1180   1.396   .     A
C1176  H1219   1.085   .     S
C1177  C1187   1.394   .     A
C1177  C1181   1.399   .     A
C1177  H1220   1.085   .     S
C1178  C1183   1.399   .     A
C1178  C1186   1.393   .     A
C1178  H1221   1.085   .     S
C1179  C1184   1.420   .     A
C1179  C1190   1.479   .     S
C1180  C1191   1.479   .     S
C1180  C1185   1.417   .     A
C1181  C1185   1.421   .     A
C1181  C1192   1.487   .     S
C1182  O1242   1.296   .     A
C1182  O1236   1.296   .     A
C1182  C1188   1.479   .     S
C1183  C1184   1.423   .     A
C1183  C1194   1.487   .     S
C1184  C1193   1.469   .     S
C1185  C1199   1.466   .     S
C1187  C484    1.461   1_556 S
C1189  C1204   1.414   .     A
C1190  O1226   1.398   .     S
C1190  O1248   1.221   .     D
C1191  O1227   1.223   .     D
C1191  O1228   1.396   .     S
C1192  O1230   1.394   .     S
C1192  O1229   1.224   .     D
C1193  O1247   1.292   .     A
C1193  O1244   1.295   .     A
C1194  O1231   1.224   .     D
C1194  O1232   1.394   .     S
C1195  O1233   1.223   .     D
C1195  C1204   1.489   .     S
C1195  O1234   1.397   .     S
C1196  O1237   1.396   .     S
C1196  O1235   1.222   .     D
C1197  O1238   1.223   .     D
C1197  O1239   1.396   .     S
C1198  O1241   1.397   .     S
C1198  O1240   1.222   .     D
C1199  O1246   1.291   .     A
C1199  O1245   1.294   .     A
C1200  N1224   1.367   .     A
C1200  H1207   1.081   .     S
C1201  N1223   1.367   .     A
C1201  H1215   1.081   .     S
C1201  C734    1.416   1_565 S
C1202  N1224   1.366   .     A
C1202  H1216   1.081   .     S
C1203  N1223   1.366   .     A
C1203  H1217   1.079   .     S
C1203  C732    1.415   1_565 S
C1204  C1329   1.397   1_455 S
Cu1205 O1244   1.960   .     S
Cu1205 N1223   2.011   .     S
Cu1205 Cu1206  2.676   .     S
Cu1205 O1246   1.956   .     S
Cu1205 O1225   1.989   .     S
Cu1205 O1242   1.990   .     S
Cu1206 O1247   1.956   .     S
Cu1206 O1236   1.989   .     S
Cu1206 O1245   1.960   .     S
Cu1206 N1224   2.011   .     S
Cu1206 O1243   1.990   .     S
H1208  O1228   1.012   .     S
H1209  O1230   1.014   .     S
H1210  O1232   1.014   .     S
H1211  O1234   1.014   .     S
H1212  O1237   1.013   .     S
H1213  O1239   1.010   .     S
H1214  O1241   1.013   .     S
H1222  O1226   1.013   .     S
C1249  C1267   1.463   .     S
C1249  O1321   1.290   .     A
C1249  O1303   1.293   .     A
C1250  C1266   1.422   .     A
C1250  C1274   1.482   .     S
C1250  C1330   1.398   .     S
C1251  C1266   1.423   .     A
C1251  C1275   1.482   .     S
C1251  C1360   1.397   .     S
C1252  C1267   1.411   .     A
C1252  C1276   1.488   .     S
C1253  C1264   1.393   .     A
C1253  H1296   1.085   .     S
C1253  C1257   1.395   .     A
C1254  C1265   1.393   .     A
C1254  C1258   1.396   .     A
C1254  H1297   1.085   .     S
C1255  C1265   1.394   .     A
C1255  C1259   1.399   .     A
C1255  H1298   1.085   .     S
C1256  C1261   1.399   .     A
C1256  C1264   1.393   .     A
C1256  H1299   1.085   .     S
C1257  C1262   1.420   .     A
C1257  C1268   1.479   .     S
C1258  C1269   1.479   .     S
C1258  C1263   1.417   .     A
C1259  C1263   1.421   .     A
C1259  C1270   1.487   .     S
C1260  O1320   1.296   .     A
C1260  O1314   1.296   .     A
C1260  C1266   1.479   .     S
C1261  C1262   1.423   .     A
C1261  C1272   1.487   .     S
C1262  C1271   1.469   .     S
C1263  C1277   1.466   .     S
C1265  C562    1.461   1_556 S
C1267  C1282   1.414   .     A
C1268  O1304   1.398   .     S
C1268  O1326   1.221   .     D
C1269  O1305   1.223   .     D
C1269  O1306   1.396   .     S
C1270  O1308   1.394   .     S
C1270  O1307   1.224   .     D
C1271  O1325   1.292   .     A
C1271  O1322   1.295   .     A
C1272  O1309   1.224   .     D
C1272  O1310   1.394   .     S
C1273  O1311   1.223   .     D
C1273  C1282   1.489   .     S
C1273  O1312   1.397   .     S
C1274  O1315   1.396   .     S
C1274  O1313   1.222   .     D
C1275  O1316   1.223   .     D
C1275  O1317   1.396   .     S
C1276  O1319   1.397   .     S
C1276  O1318   1.222   .     D
C1277  O1324   1.291   .     A
C1277  O1323   1.294   .     A
C1278  N1302   1.367   .     A
C1278  H1285   1.081   .     S
C1279  N1301   1.367   .     A
C1279  H1293   1.081   .     S
C1279  C812    1.416   1_565 S
C1280  N1302   1.366   .     A
C1280  H1294   1.081   .     S
C1281  N1301   1.366   .     A
C1281  H1295   1.079   .     S
C1281  C810    1.415   1_565 S
Cu1283 O1322   1.960   .     S
Cu1283 N1301   2.011   .     S
Cu1283 Cu1284  2.676   .     S
Cu1283 O1324   1.956   .     S
Cu1283 O1303   1.989   .     S
Cu1283 O1320   1.990   .     S
Cu1284 O1325   1.956   .     S
Cu1284 O1314   1.989   .     S
Cu1284 O1323   1.960   .     S
Cu1284 N1302   2.011   .     S
Cu1284 O1321   1.990   .     S
H1286  O1306   1.012   .     S
H1287  O1308   1.014   .     S
H1288  O1310   1.014   .     S
H1289  O1312   1.014   .     S
H1290  O1315   1.013   .     S
H1291  O1317   1.010   .     S
H1292  O1319   1.013   .     S
H1300  O1304   1.013   .     S
C1327  C1345   1.463   .     S
C1327  O1399   1.290   .     A
C1327  O1381   1.293   .     A
C1328  C1344   1.422   .     A
C1328  C1352   1.482   .     S
C1328  C1174   1.398   1_655 S
C1329  C1344   1.423   .     A
C1329  C1353   1.482   .     S
C1329  C1204   1.397   1_655 S
C1330  C1345   1.411   .     A
C1330  C1354   1.488   .     S
C1331  C1342   1.393   .     A
C1331  H1374   1.085   .     S
C1331  C1335   1.395   .     A
C1332  C1343   1.393   .     A
C1332  C1336   1.396   .     A
C1332  H1375   1.085   .     S
C1333  C1343   1.394   .     A
C1333  C1337   1.399   .     A
C1333  H1376   1.085   .     S
C1334  C1339   1.399   .     A
C1334  C1342   1.393   .     A
C1334  H1377   1.085   .     S
C1335  C1340   1.420   .     A
C1335  C1346   1.479   .     S
C1336  C1347   1.479   .     S
C1336  C1341   1.417   .     A
C1337  C1341   1.421   .     A
C1337  C1348   1.487   .     S
C1338  O1398   1.296   .     A
C1338  O1392   1.296   .     A
C1338  C1344   1.479   .     S
C1339  C1340   1.423   .     A
C1339  C1350   1.487   .     S
C1340  C1349   1.469   .     S
C1341  C1355   1.466   .     S
C1343  C640    1.461   1_556 S
C1345  C1360   1.414   .     A
C1346  O1382   1.398   .     S
C1346  O1404   1.221   .     D
C1347  O1383   1.223   .     D
C1347  O1384   1.396   .     S
C1348  O1386   1.394   .     S
C1348  O1385   1.224   .     D
C1349  O1403   1.292   .     A
C1349  O1400   1.295   .     A
C1350  O1387   1.224   .     D
C1350  O1388   1.394   .     S
C1351  O1389   1.223   .     D
C1351  C1360   1.489   .     S
C1351  O1390   1.397   .     S
C1352  O1393   1.396   .     S
C1352  O1391   1.222   .     D
C1353  O1394   1.223   .     D
C1353  O1395   1.396   .     S
C1354  O1397   1.397   .     S
C1354  O1396   1.222   .     D
C1355  O1402   1.291   .     A
C1355  O1401   1.294   .     A
C1356  N1380   1.367   .     A
C1356  H1363   1.081   .     S
C1357  N1379   1.367   .     A
C1357  H1371   1.081   .     S
C1357  C890    1.416   1_565 S
C1358  N1380   1.366   .     A
C1358  H1372   1.081   .     S
C1359  N1379   1.366   .     A
C1359  H1373   1.079   .     S
C1359  C888    1.415   1_565 S
Cu1361 O1400   1.960   .     S
Cu1361 N1379   2.011   .     S
Cu1361 Cu1362  2.676   .     S
Cu1361 O1402   1.956   .     S
Cu1361 O1381   1.989   .     S
Cu1361 O1398   1.990   .     S
Cu1362 O1403   1.956   .     S
Cu1362 O1392   1.989   .     S
Cu1362 O1401   1.960   .     S
Cu1362 N1380   2.011   .     S
Cu1362 O1399   1.990   .     S
H1364  O1384   1.012   .     S
H1365  O1386   1.014   .     S
H1366  O1388   1.014   .     S
H1367  O1390   1.014   .     S
H1368  O1393   1.013   .     S
H1369  O1395   1.010   .     S
H1370  O1397   1.013   .     S
H1378  O1382   1.013   .     S
