data_str_m2_o10_o18_pcu_sym.106
_audit_creation_date              2020-01-03
_audit_creation_method            'Materials Studio'
_symmetry_space_group_name_H-M    'P1'
_symmetry_Int_Tables_number       1
_symmetry_cell_setting            triclinic
loop_
_symmetry_equiv_pos_as_xyz
  x,y,z
_cell_length_a                    22.7807
_cell_length_b                    26.3617
_cell_length_c                    31.3080
_cell_angle_alpha                 98.1048
_cell_angle_beta                  75.2923
_cell_angle_gamma                 104.2124
loop_
_atom_site_label
_atom_site_type_symbol
_atom_site_fract_x
_atom_site_fract_y
_atom_site_fract_z
_atom_site_U_iso_or_equiv
_atom_site_adp_type
_atom_site_occupancy
C1     C     0.18125   0.26664   0.25245   0.00000  Uiso   1.00
C2     C     0.15205   0.06669   0.24762   0.00000  Uiso   1.00
C3     C     0.11823   0.09131   0.02515   0.00000  Uiso   1.00
C4     C     0.24960   0.17160   0.45141   0.00000  Uiso   1.00
C5     C     0.07792   0.07122   0.49623   0.00000  Uiso   1.00
C6     C     0.29154   0.18937   0.47891   0.00000  Uiso   1.00
C7     C     0.18574   0.32306   0.25828   0.00000  Uiso   1.00
C8     C     0.14750   0.01028   0.24188   0.00000  Uiso   1.00
C9     C     0.12810   0.16032   0.33281   0.00000  Uiso   1.00
C10    C     0.20501   0.17082   0.16655   0.00000  Uiso   1.00
C11    C     0.10452   0.14515   0.37886   0.00000  Uiso   1.00
C12    C     0.22873   0.17375   0.11757   0.00000  Uiso   1.00
C13    C     0.04263   0.08123   0.43062   0.00000  Uiso   1.00
C14    C     0.31313   0.19710   0.05309   0.00000  Uiso   1.00
C15    C     0.05262   0.10312   0.39073   0.00000  Uiso   1.00
C16    C     0.29287   0.19098   0.09837   0.00000  Uiso   1.00
C17    C     0.14215   0.16623   0.40909   0.00000  Uiso   1.00
C18    C     0.18656   0.16132   0.08942   0.00000  Uiso   1.00
C19    C     0.13882   0.13753   0.44519   0.00000  Uiso   1.00
C20    C     0.20904   0.15821   0.04261   0.00000  Uiso   1.00
C21    C     0.08603   0.09646   0.45746   0.00000  Uiso   1.00
C22    C     0.27165   0.18243   0.02481   0.00000  Uiso   1.00
C23    C     0.18604   0.14870   0.46959   0.00000  Uiso   1.00
C24    C     0.16983   0.13368   0.01329   0.00000  Uiso   1.00
Cu25   Cu    0.10737   0.16108   0.24516   0.00000  Uiso   1.00
Cu26   Cu    0.22596   0.17225   0.25483   0.00000  Uiso   1.00
H27    H     0.00089   0.05109   0.43951   0.00000  Uiso   1.00
H28    H     0.02908   0.21161   0.04047   0.00000  Uiso   1.00
N29    N     0.31506   0.18068   0.26212   0.00000  Uiso   1.00
N30    N     0.01827   0.15265   0.23788   0.00000  Uiso   1.00
O31    O     0.12815   0.23809   0.24686   0.00000  Uiso   1.00
O32    O     0.20518   0.09524   0.25314   0.00000  Uiso   1.00
O33    O     0.22829   0.24753   0.25502   0.00000  Uiso   1.00
O34    O     0.10504   0.08580   0.24497   0.00000  Uiso   1.00
O35    O     0.08851   0.15930   0.30854   0.00000  Uiso   1.00
O36    O     0.24482   0.17403   0.19145   0.00000  Uiso   1.00
O37    O     0.18866   0.16874   0.31671   0.00000  Uiso   1.00
O38    O     0.14468   0.16460   0.18329   0.00000  Uiso   1.00
O39    O     0.03102   0.02746   0.00700   0.00000  Uiso   1.00
H40    H     0.02740   0.00448   0.47948   0.00000  Uiso   1.00
O41    O     0.01835   0.21306   0.45924   0.00000  Uiso   1.00
H42    H     0.03420   0.24206   0.47992   0.00000  Uiso   1.00
O43    O     0.12389   0.15694   0.10816   0.00000  Uiso   1.00
H44    H     0.10452   0.16791   0.08702   0.00000  Uiso   1.00
O45    O     0.18026   0.21550   0.40292   0.00000  Uiso   1.00
H46    H     0.18695   0.23251   0.43212   0.00000  Uiso   1.00
O47    O     0.00328   0.20598   0.12341   0.00000  Uiso   1.00
H48    H     0.00443   0.17356   0.13536   0.00000  Uiso   1.00
O49    O     0.01240   0.08014   0.36371   0.00000  Uiso   1.00
H50    H     0.00362   0.10814   0.35005   0.00000  Uiso   1.00
O51    O     0.11303   0.06622   0.06240   0.00000  Uiso   1.00
H52    H     0.07343   0.03968   0.06839   0.00000  Uiso   1.00
O53    O     0.27391   0.17398   0.40643   0.00000  Uiso   1.00
H54    H     0.24945   0.14435   0.39069   0.00000  Uiso   1.00
O55    O     0.22538   0.02134   0.28322   0.00000  Uiso   1.00
H56    H     0.24438   0.33250   0.29631   0.00000  Uiso   1.00
O57    O     0.10783   0.31199   0.21697   0.00000  Uiso   1.00
H58    H     0.08904   0.00083   0.20372   0.00000  Uiso   1.00
N59    N     0.33170   0.20949   0.29950   0.00000  Uiso   1.00
H60    H     0.04400   0.21848   0.29918   0.00000  Uiso   1.00
C61    C     0.30947   0.25741   0.31282   0.00000  Uiso   1.00
H62    H     0.32882   0.27885   0.34117   0.00000  Uiso   1.00
H63    H     0.25854   0.24958   0.32469   0.00000  Uiso   1.00
H64    H     0.32563   0.28332   0.28515   0.00000  Uiso   1.00
N65    N     0.00130   0.12323   0.20085   0.00000  Uiso   1.00
H66    H     0.28910   0.11454   0.20094   0.00000  Uiso   1.00
C67    C     0.02370   0.07539   0.18766   0.00000  Uiso   1.00
H68    H     0.00391   0.05359   0.15961   0.00000  Uiso   1.00
H69    H     0.00802   0.04978   0.21552   0.00000  Uiso   1.00
H70    H     0.07461   0.08341   0.17533   0.00000  Uiso   1.00
C71    C     0.51459   0.26664   0.25245   0.00000  Uiso   1.00
C72    C     0.48538   0.06669   0.24762   0.00000  Uiso   1.00
C73    C     0.45157   0.09131   0.02515   0.00000  Uiso   1.00
C74    C     0.58293   0.17160   0.45141   0.00000  Uiso   1.00
C75    C     0.41125   0.07122   0.49623   0.00000  Uiso   1.00
C76    C     0.62487   0.18937   0.47891   0.00000  Uiso   1.00
C77    C     0.51907   0.32306   0.25828   0.00000  Uiso   1.00
C78    C     0.48083   0.01028   0.24188   0.00000  Uiso   1.00
C79    C     0.46143   0.16032   0.33281   0.00000  Uiso   1.00
C80    C     0.53835   0.17082   0.16655   0.00000  Uiso   1.00
C81    C     0.43785   0.14515   0.37886   0.00000  Uiso   1.00
C82    C     0.56206   0.17375   0.11757   0.00000  Uiso   1.00
C83    C     0.37596   0.08123   0.43062   0.00000  Uiso   1.00
C84    C     0.64646   0.19710   0.05309   0.00000  Uiso   1.00
C85    C     0.38595   0.10312   0.39073   0.00000  Uiso   1.00
C86    C     0.62621   0.19098   0.09837   0.00000  Uiso   1.00
C87    C     0.47548   0.16623   0.40909   0.00000  Uiso   1.00
C88    C     0.51989   0.16132   0.08942   0.00000  Uiso   1.00
C89    C     0.47215   0.13753   0.44519   0.00000  Uiso   1.00
C90    C     0.54238   0.15821   0.04261   0.00000  Uiso   1.00
C91    C     0.41936   0.09646   0.45746   0.00000  Uiso   1.00
C92    C     0.60498   0.18243   0.02481   0.00000  Uiso   1.00
C93    C     0.51938   0.14870   0.46959   0.00000  Uiso   1.00
C94    C     0.50316   0.13368   0.01329   0.00000  Uiso   1.00
Cu95   Cu    0.44071   0.16108   0.24516   0.00000  Uiso   1.00
Cu96   Cu    0.55929   0.17225   0.25483   0.00000  Uiso   1.00
H97    H     0.33422   0.05109   0.43951   0.00000  Uiso   1.00
H98    H     0.36241   0.21161   0.04047   0.00000  Uiso   1.00
N99    N     0.64839   0.18068   0.26212   0.00000  Uiso   1.00
N100   N     0.35161   0.15265   0.23788   0.00000  Uiso   1.00
O101   O     0.46148   0.23809   0.24686   0.00000  Uiso   1.00
O102   O     0.53852   0.09524   0.25314   0.00000  Uiso   1.00
O103   O     0.56163   0.24753   0.25502   0.00000  Uiso   1.00
O104   O     0.43837   0.08580   0.24497   0.00000  Uiso   1.00
O105   O     0.42185   0.15930   0.30854   0.00000  Uiso   1.00
O106   O     0.57815   0.17403   0.19145   0.00000  Uiso   1.00
O107   O     0.52199   0.16874   0.31671   0.00000  Uiso   1.00
O108   O     0.47801   0.16460   0.18329   0.00000  Uiso   1.00
O109   O     0.36435   0.02746   0.00700   0.00000  Uiso   1.00
H110   H     0.36074   0.00448   0.47948   0.00000  Uiso   1.00
O111   O     0.35168   0.21306   0.45924   0.00000  Uiso   1.00
H112   H     0.36753   0.24206   0.47992   0.00000  Uiso   1.00
O113   O     0.45722   0.15694   0.10816   0.00000  Uiso   1.00
H114   H     0.43786   0.16791   0.08702   0.00000  Uiso   1.00
O115   O     0.51360   0.21550   0.40292   0.00000  Uiso   1.00
H116   H     0.52029   0.23251   0.43212   0.00000  Uiso   1.00
O117   O     0.33661   0.20598   0.12341   0.00000  Uiso   1.00
H118   H     0.33776   0.17356   0.13536   0.00000  Uiso   1.00
O119   O     0.34573   0.08014   0.36371   0.00000  Uiso   1.00
H120   H     0.33696   0.10814   0.35005   0.00000  Uiso   1.00
O121   O     0.44636   0.06622   0.06240   0.00000  Uiso   1.00
H122   H     0.40677   0.03968   0.06839   0.00000  Uiso   1.00
O123   O     0.60724   0.17398   0.40643   0.00000  Uiso   1.00
H124   H     0.58278   0.14435   0.39069   0.00000  Uiso   1.00
O125   O     0.55872   0.02134   0.28322   0.00000  Uiso   1.00
H126   H     0.57771   0.33250   0.29631   0.00000  Uiso   1.00
O127   O     0.44116   0.31199   0.21697   0.00000  Uiso   1.00
H128   H     0.42237   0.00083   0.20372   0.00000  Uiso   1.00
N129   N     0.66503   0.20949   0.29950   0.00000  Uiso   1.00
H130   H     0.37733   0.21848   0.29918   0.00000  Uiso   1.00
C131   C     0.64280   0.25741   0.31282   0.00000  Uiso   1.00
H132   H     0.66216   0.27885   0.34117   0.00000  Uiso   1.00
H133   H     0.59187   0.24958   0.32469   0.00000  Uiso   1.00
H134   H     0.65897   0.28332   0.28515   0.00000  Uiso   1.00
N135   N     0.33463   0.12323   0.20085   0.00000  Uiso   1.00
H136   H     0.62243   0.11454   0.20094   0.00000  Uiso   1.00
C137   C     0.35703   0.07539   0.18766   0.00000  Uiso   1.00
H138   H     0.33724   0.05359   0.15961   0.00000  Uiso   1.00
H139   H     0.34135   0.04978   0.21552   0.00000  Uiso   1.00
H140   H     0.40794   0.08341   0.17533   0.00000  Uiso   1.00
C141   C     0.84792   0.26664   0.25245   0.00000  Uiso   1.00
C142   C     0.81872   0.06669   0.24762   0.00000  Uiso   1.00
C143   C     0.78490   0.09131   0.02515   0.00000  Uiso   1.00
C144   C     0.91627   0.17160   0.45141   0.00000  Uiso   1.00
C145   C     0.74459   0.07122   0.49623   0.00000  Uiso   1.00
C146   C     0.95820   0.18937   0.47891   0.00000  Uiso   1.00
C147   C     0.85241   0.32306   0.25828   0.00000  Uiso   1.00
C148   C     0.81417   0.01028   0.24188   0.00000  Uiso   1.00
C149   C     0.79476   0.16032   0.33281   0.00000  Uiso   1.00
C150   C     0.87168   0.17082   0.16655   0.00000  Uiso   1.00
C151   C     0.77119   0.14515   0.37886   0.00000  Uiso   1.00
C152   C     0.89539   0.17375   0.11757   0.00000  Uiso   1.00
C153   C     0.70929   0.08123   0.43062   0.00000  Uiso   1.00
C154   C     0.97979   0.19710   0.05309   0.00000  Uiso   1.00
C155   C     0.71929   0.10312   0.39073   0.00000  Uiso   1.00
C156   C     0.95954   0.19098   0.09837   0.00000  Uiso   1.00
C157   C     0.80882   0.16623   0.40909   0.00000  Uiso   1.00
C158   C     0.85322   0.16132   0.08942   0.00000  Uiso   1.00
C159   C     0.80548   0.13753   0.44519   0.00000  Uiso   1.00
C160   C     0.87571   0.15821   0.04261   0.00000  Uiso   1.00
C161   C     0.75270   0.09646   0.45746   0.00000  Uiso   1.00
C162   C     0.93831   0.18243   0.02481   0.00000  Uiso   1.00
C163   C     0.85271   0.14870   0.46959   0.00000  Uiso   1.00
C164   C     0.83650   0.13368   0.01329   0.00000  Uiso   1.00
Cu165  Cu    0.77404   0.16108   0.24516   0.00000  Uiso   1.00
Cu166  Cu    0.89263   0.17225   0.25483   0.00000  Uiso   1.00
H167   H     0.66755   0.05109   0.43951   0.00000  Uiso   1.00
H168   H     0.69574   0.21161   0.04047   0.00000  Uiso   1.00
N169   N     0.98173   0.18068   0.26212   0.00000  Uiso   1.00
N170   N     0.68494   0.15265   0.23788   0.00000  Uiso   1.00
O171   O     0.79482   0.23809   0.24686   0.00000  Uiso   1.00
O172   O     0.87185   0.09524   0.25314   0.00000  Uiso   1.00
O173   O     0.89496   0.24753   0.25502   0.00000  Uiso   1.00
O174   O     0.77171   0.08580   0.24497   0.00000  Uiso   1.00
O175   O     0.75518   0.15930   0.30854   0.00000  Uiso   1.00
O176   O     0.91149   0.17403   0.19145   0.00000  Uiso   1.00
O177   O     0.85532   0.16874   0.31671   0.00000  Uiso   1.00
O178   O     0.81134   0.16460   0.18329   0.00000  Uiso   1.00
O179   O     0.69768   0.02746   0.00700   0.00000  Uiso   1.00
H180   H     0.69407   0.00448   0.47948   0.00000  Uiso   1.00
O181   O     0.68502   0.21306   0.45924   0.00000  Uiso   1.00
H182   H     0.70087   0.24206   0.47992   0.00000  Uiso   1.00
O183   O     0.79056   0.15694   0.10816   0.00000  Uiso   1.00
H184   H     0.77119   0.16791   0.08702   0.00000  Uiso   1.00
O185   O     0.84693   0.21550   0.40292   0.00000  Uiso   1.00
H186   H     0.85362   0.23251   0.43212   0.00000  Uiso   1.00
O187   O     0.66995   0.20598   0.12341   0.00000  Uiso   1.00
H188   H     0.67109   0.17356   0.13536   0.00000  Uiso   1.00
O189   O     0.67907   0.08014   0.36371   0.00000  Uiso   1.00
H190   H     0.67029   0.10814   0.35005   0.00000  Uiso   1.00
O191   O     0.77969   0.06622   0.06240   0.00000  Uiso   1.00
H192   H     0.74010   0.03968   0.06839   0.00000  Uiso   1.00
O193   O     0.94058   0.17398   0.40643   0.00000  Uiso   1.00
H194   H     0.91611   0.14435   0.39069   0.00000  Uiso   1.00
O195   O     0.89205   0.02134   0.28322   0.00000  Uiso   1.00
H196   H     0.91105   0.33250   0.29631   0.00000  Uiso   1.00
O197   O     0.77450   0.31199   0.21697   0.00000  Uiso   1.00
H198   H     0.75571   0.00083   0.20372   0.00000  Uiso   1.00
N199   N     0.99837   0.20949   0.29950   0.00000  Uiso   1.00
H200   H     0.71066   0.21848   0.29918   0.00000  Uiso   1.00
C201   C     0.97613   0.25741   0.31282   0.00000  Uiso   1.00
H202   H     0.99549   0.27885   0.34117   0.00000  Uiso   1.00
H203   H     0.92520   0.24958   0.32469   0.00000  Uiso   1.00
H204   H     0.99230   0.28332   0.28515   0.00000  Uiso   1.00
N205   N     0.66797   0.12323   0.20085   0.00000  Uiso   1.00
H206   H     0.95576   0.11454   0.20094   0.00000  Uiso   1.00
C207   C     0.69036   0.07539   0.18766   0.00000  Uiso   1.00
H208   H     0.67058   0.05359   0.15961   0.00000  Uiso   1.00
H209   H     0.67469   0.04978   0.21552   0.00000  Uiso   1.00
H210   H     0.74127   0.08341   0.17533   0.00000  Uiso   1.00
C211   C     0.18125   0.59997   0.25245   0.00000  Uiso   1.00
C212   C     0.15205   0.40003   0.24762   0.00000  Uiso   1.00
C213   C     0.11823   0.42464   0.02515   0.00000  Uiso   1.00
C214   C     0.24960   0.50493   0.45141   0.00000  Uiso   1.00
C215   C     0.07792   0.40455   0.49623   0.00000  Uiso   1.00
C216   C     0.29154   0.52270   0.47891   0.00000  Uiso   1.00
C217   C     0.18574   0.65639   0.25828   0.00000  Uiso   1.00
C218   C     0.14750   0.34362   0.24188   0.00000  Uiso   1.00
C219   C     0.12810   0.49366   0.33281   0.00000  Uiso   1.00
C220   C     0.20501   0.50415   0.16655   0.00000  Uiso   1.00
C221   C     0.10452   0.47848   0.37886   0.00000  Uiso   1.00
C222   C     0.22873   0.50708   0.11757   0.00000  Uiso   1.00
C223   C     0.04263   0.41457   0.43062   0.00000  Uiso   1.00
C224   C     0.31313   0.53043   0.05309   0.00000  Uiso   1.00
C225   C     0.05262   0.43646   0.39073   0.00000  Uiso   1.00
C226   C     0.29287   0.52431   0.09837   0.00000  Uiso   1.00
C227   C     0.14215   0.49957   0.40909   0.00000  Uiso   1.00
C228   C     0.18656   0.49465   0.08942   0.00000  Uiso   1.00
C229   C     0.13882   0.47087   0.44519   0.00000  Uiso   1.00
C230   C     0.20904   0.49154   0.04261   0.00000  Uiso   1.00
C231   C     0.08603   0.42979   0.45746   0.00000  Uiso   1.00
C232   C     0.27165   0.51576   0.02481   0.00000  Uiso   1.00
C233   C     0.18604   0.48203   0.46959   0.00000  Uiso   1.00
C234   C     0.16983   0.46702   0.01329   0.00000  Uiso   1.00
Cu235  Cu    0.10737   0.49441   0.24516   0.00000  Uiso   1.00
Cu236  Cu    0.22596   0.50559   0.25483   0.00000  Uiso   1.00
H237   H     0.00089   0.38442   0.43951   0.00000  Uiso   1.00
H238   H     0.02908   0.54494   0.04047   0.00000  Uiso   1.00
N239   N     0.31506   0.51401   0.26212   0.00000  Uiso   1.00
N240   N     0.01827   0.48599   0.23788   0.00000  Uiso   1.00
O241   O     0.12815   0.57142   0.24686   0.00000  Uiso   1.00
O242   O     0.20518   0.42858   0.25314   0.00000  Uiso   1.00
O243   O     0.22829   0.58086   0.25502   0.00000  Uiso   1.00
O244   O     0.10504   0.41914   0.24497   0.00000  Uiso   1.00
O245   O     0.08851   0.49263   0.30854   0.00000  Uiso   1.00
O246   O     0.24482   0.50737   0.19145   0.00000  Uiso   1.00
O247   O     0.18866   0.50207   0.31671   0.00000  Uiso   1.00
O248   O     0.14468   0.49793   0.18329   0.00000  Uiso   1.00
O249   O     0.03102   0.36079   0.00700   0.00000  Uiso   1.00
H250   H     0.02740   0.33781   0.47948   0.00000  Uiso   1.00
O251   O     0.01835   0.54640   0.45924   0.00000  Uiso   1.00
H252   H     0.03420   0.57539   0.47992   0.00000  Uiso   1.00
O253   O     0.12389   0.49027   0.10816   0.00000  Uiso   1.00
H254   H     0.10452   0.50124   0.08702   0.00000  Uiso   1.00
O255   O     0.18026   0.54883   0.40292   0.00000  Uiso   1.00
H256   H     0.18695   0.56584   0.43212   0.00000  Uiso   1.00
O257   O     0.00328   0.53931   0.12341   0.00000  Uiso   1.00
H258   H     0.00443   0.50689   0.13536   0.00000  Uiso   1.00
O259   O     0.01240   0.41348   0.36371   0.00000  Uiso   1.00
H260   H     0.00362   0.44148   0.35005   0.00000  Uiso   1.00
O261   O     0.11303   0.39955   0.06240   0.00000  Uiso   1.00
H262   H     0.07343   0.37302   0.06839   0.00000  Uiso   1.00
O263   O     0.27391   0.50731   0.40643   0.00000  Uiso   1.00
H264   H     0.24945   0.47768   0.39069   0.00000  Uiso   1.00
O265   O     0.22538   0.35467   0.28322   0.00000  Uiso   1.00
H266   H     0.24438   0.66584   0.29631   0.00000  Uiso   1.00
O267   O     0.10783   0.64533   0.21697   0.00000  Uiso   1.00
H268   H     0.08904   0.33417   0.20372   0.00000  Uiso   1.00
N269   N     0.33170   0.54283   0.29950   0.00000  Uiso   1.00
H270   H     0.04400   0.55182   0.29918   0.00000  Uiso   1.00
C271   C     0.30947   0.59074   0.31282   0.00000  Uiso   1.00
H272   H     0.32882   0.61218   0.34117   0.00000  Uiso   1.00
H273   H     0.25854   0.58291   0.32469   0.00000  Uiso   1.00
H274   H     0.32563   0.61665   0.28515   0.00000  Uiso   1.00
N275   N     0.00130   0.45656   0.20085   0.00000  Uiso   1.00
H276   H     0.28910   0.44787   0.20094   0.00000  Uiso   1.00
C277   C     0.02370   0.40873   0.18766   0.00000  Uiso   1.00
H278   H     0.00391   0.38692   0.15961   0.00000  Uiso   1.00
H279   H     0.00802   0.38312   0.21552   0.00000  Uiso   1.00
H280   H     0.07461   0.41674   0.17533   0.00000  Uiso   1.00
C281   C     0.51459   0.59997   0.25245   0.00000  Uiso   1.00
C282   C     0.48538   0.40003   0.24762   0.00000  Uiso   1.00
C283   C     0.45157   0.42464   0.02515   0.00000  Uiso   1.00
C284   C     0.58293   0.50493   0.45141   0.00000  Uiso   1.00
C285   C     0.41125   0.40455   0.49623   0.00000  Uiso   1.00
C286   C     0.62487   0.52270   0.47891   0.00000  Uiso   1.00
C287   C     0.51907   0.65639   0.25828   0.00000  Uiso   1.00
C288   C     0.48083   0.34362   0.24188   0.00000  Uiso   1.00
C289   C     0.46143   0.49366   0.33281   0.00000  Uiso   1.00
C290   C     0.53835   0.50415   0.16655   0.00000  Uiso   1.00
C291   C     0.43785   0.47848   0.37886   0.00000  Uiso   1.00
C292   C     0.56206   0.50708   0.11757   0.00000  Uiso   1.00
C293   C     0.37596   0.41457   0.43062   0.00000  Uiso   1.00
C294   C     0.64646   0.53043   0.05309   0.00000  Uiso   1.00
C295   C     0.38595   0.43646   0.39073   0.00000  Uiso   1.00
C296   C     0.62621   0.52431   0.09837   0.00000  Uiso   1.00
C297   C     0.47548   0.49957   0.40909   0.00000  Uiso   1.00
C298   C     0.51989   0.49465   0.08942   0.00000  Uiso   1.00
C299   C     0.47215   0.47087   0.44519   0.00000  Uiso   1.00
C300   C     0.54238   0.49154   0.04261   0.00000  Uiso   1.00
C301   C     0.41936   0.42979   0.45746   0.00000  Uiso   1.00
C302   C     0.60498   0.51576   0.02481   0.00000  Uiso   1.00
C303   C     0.51938   0.48203   0.46959   0.00000  Uiso   1.00
C304   C     0.50316   0.46702   0.01329   0.00000  Uiso   1.00
Cu305  Cu    0.44071   0.49441   0.24516   0.00000  Uiso   1.00
Cu306  Cu    0.55929   0.50559   0.25483   0.00000  Uiso   1.00
H307   H     0.33422   0.38442   0.43951   0.00000  Uiso   1.00
H308   H     0.36241   0.54494   0.04047   0.00000  Uiso   1.00
N309   N     0.64839   0.51401   0.26212   0.00000  Uiso   1.00
N310   N     0.35161   0.48599   0.23788   0.00000  Uiso   1.00
O311   O     0.46148   0.57142   0.24686   0.00000  Uiso   1.00
O312   O     0.53852   0.42858   0.25314   0.00000  Uiso   1.00
O313   O     0.56163   0.58086   0.25502   0.00000  Uiso   1.00
O314   O     0.43837   0.41914   0.24497   0.00000  Uiso   1.00
O315   O     0.42185   0.49263   0.30854   0.00000  Uiso   1.00
O316   O     0.57815   0.50737   0.19145   0.00000  Uiso   1.00
O317   O     0.52199   0.50207   0.31671   0.00000  Uiso   1.00
O318   O     0.47801   0.49793   0.18329   0.00000  Uiso   1.00
O319   O     0.36435   0.36079   0.00700   0.00000  Uiso   1.00
H320   H     0.36074   0.33781   0.47948   0.00000  Uiso   1.00
O321   O     0.35168   0.54640   0.45924   0.00000  Uiso   1.00
H322   H     0.36753   0.57539   0.47992   0.00000  Uiso   1.00
O323   O     0.45722   0.49027   0.10816   0.00000  Uiso   1.00
H324   H     0.43786   0.50124   0.08702   0.00000  Uiso   1.00
O325   O     0.51360   0.54883   0.40292   0.00000  Uiso   1.00
H326   H     0.52029   0.56584   0.43212   0.00000  Uiso   1.00
O327   O     0.33661   0.53931   0.12341   0.00000  Uiso   1.00
H328   H     0.33776   0.50689   0.13536   0.00000  Uiso   1.00
O329   O     0.34573   0.41348   0.36371   0.00000  Uiso   1.00
H330   H     0.33696   0.44148   0.35005   0.00000  Uiso   1.00
O331   O     0.44636   0.39955   0.06240   0.00000  Uiso   1.00
H332   H     0.40677   0.37302   0.06839   0.00000  Uiso   1.00
O333   O     0.60724   0.50731   0.40643   0.00000  Uiso   1.00
H334   H     0.58278   0.47768   0.39069   0.00000  Uiso   1.00
O335   O     0.55872   0.35467   0.28322   0.00000  Uiso   1.00
H336   H     0.57771   0.66584   0.29631   0.00000  Uiso   1.00
O337   O     0.44116   0.64533   0.21697   0.00000  Uiso   1.00
H338   H     0.42237   0.33417   0.20372   0.00000  Uiso   1.00
N339   N     0.66503   0.54283   0.29950   0.00000  Uiso   1.00
H340   H     0.37733   0.55182   0.29918   0.00000  Uiso   1.00
C341   C     0.64280   0.59074   0.31282   0.00000  Uiso   1.00
H342   H     0.66216   0.61218   0.34117   0.00000  Uiso   1.00
H343   H     0.59187   0.58291   0.32469   0.00000  Uiso   1.00
H344   H     0.65897   0.61665   0.28515   0.00000  Uiso   1.00
N345   N     0.33463   0.45656   0.20085   0.00000  Uiso   1.00
H346   H     0.62243   0.44787   0.20094   0.00000  Uiso   1.00
C347   C     0.35703   0.40873   0.18766   0.00000  Uiso   1.00
H348   H     0.33724   0.38692   0.15961   0.00000  Uiso   1.00
H349   H     0.34135   0.38312   0.21552   0.00000  Uiso   1.00
H350   H     0.40794   0.41674   0.17533   0.00000  Uiso   1.00
C351   C     0.84792   0.59997   0.25245   0.00000  Uiso   1.00
C352   C     0.81872   0.40003   0.24762   0.00000  Uiso   1.00
C353   C     0.78490   0.42464   0.02515   0.00000  Uiso   1.00
C354   C     0.91627   0.50493   0.45141   0.00000  Uiso   1.00
C355   C     0.74459   0.40455   0.49623   0.00000  Uiso   1.00
C356   C     0.95820   0.52270   0.47891   0.00000  Uiso   1.00
C357   C     0.85241   0.65639   0.25828   0.00000  Uiso   1.00
C358   C     0.81417   0.34362   0.24188   0.00000  Uiso   1.00
C359   C     0.79476   0.49366   0.33281   0.00000  Uiso   1.00
C360   C     0.87168   0.50415   0.16655   0.00000  Uiso   1.00
C361   C     0.77119   0.47848   0.37886   0.00000  Uiso   1.00
C362   C     0.89539   0.50708   0.11757   0.00000  Uiso   1.00
C363   C     0.70929   0.41457   0.43062   0.00000  Uiso   1.00
C364   C     0.97979   0.53043   0.05309   0.00000  Uiso   1.00
C365   C     0.71929   0.43646   0.39073   0.00000  Uiso   1.00
C366   C     0.95954   0.52431   0.09837   0.00000  Uiso   1.00
C367   C     0.80882   0.49957   0.40909   0.00000  Uiso   1.00
C368   C     0.85322   0.49465   0.08942   0.00000  Uiso   1.00
C369   C     0.80548   0.47087   0.44519   0.00000  Uiso   1.00
C370   C     0.87571   0.49154   0.04261   0.00000  Uiso   1.00
C371   C     0.75270   0.42979   0.45746   0.00000  Uiso   1.00
C372   C     0.93831   0.51576   0.02481   0.00000  Uiso   1.00
C373   C     0.85271   0.48203   0.46959   0.00000  Uiso   1.00
C374   C     0.83650   0.46702   0.01329   0.00000  Uiso   1.00
Cu375  Cu    0.77404   0.49441   0.24516   0.00000  Uiso   1.00
Cu376  Cu    0.89263   0.50559   0.25483   0.00000  Uiso   1.00
H377   H     0.66755   0.38442   0.43951   0.00000  Uiso   1.00
H378   H     0.69574   0.54494   0.04047   0.00000  Uiso   1.00
N379   N     0.98173   0.51401   0.26212   0.00000  Uiso   1.00
N380   N     0.68494   0.48599   0.23788   0.00000  Uiso   1.00
O381   O     0.79482   0.57142   0.24686   0.00000  Uiso   1.00
O382   O     0.87185   0.42858   0.25314   0.00000  Uiso   1.00
O383   O     0.89496   0.58086   0.25502   0.00000  Uiso   1.00
O384   O     0.77171   0.41914   0.24497   0.00000  Uiso   1.00
O385   O     0.75518   0.49263   0.30854   0.00000  Uiso   1.00
O386   O     0.91149   0.50737   0.19145   0.00000  Uiso   1.00
O387   O     0.85532   0.50207   0.31671   0.00000  Uiso   1.00
O388   O     0.81134   0.49793   0.18329   0.00000  Uiso   1.00
O389   O     0.69768   0.36079   0.00700   0.00000  Uiso   1.00
H390   H     0.69407   0.33781   0.47948   0.00000  Uiso   1.00
O391   O     0.68502   0.54640   0.45924   0.00000  Uiso   1.00
H392   H     0.70087   0.57539   0.47992   0.00000  Uiso   1.00
O393   O     0.79056   0.49027   0.10816   0.00000  Uiso   1.00
H394   H     0.77119   0.50124   0.08702   0.00000  Uiso   1.00
O395   O     0.84693   0.54883   0.40292   0.00000  Uiso   1.00
H396   H     0.85362   0.56584   0.43212   0.00000  Uiso   1.00
O397   O     0.66995   0.53931   0.12341   0.00000  Uiso   1.00
H398   H     0.67109   0.50689   0.13536   0.00000  Uiso   1.00
O399   O     0.67907   0.41348   0.36371   0.00000  Uiso   1.00
H400   H     0.67029   0.44148   0.35005   0.00000  Uiso   1.00
O401   O     0.77969   0.39955   0.06240   0.00000  Uiso   1.00
H402   H     0.74010   0.37302   0.06839   0.00000  Uiso   1.00
O403   O     0.94058   0.50731   0.40643   0.00000  Uiso   1.00
H404   H     0.91611   0.47768   0.39069   0.00000  Uiso   1.00
O405   O     0.89205   0.35467   0.28322   0.00000  Uiso   1.00
H406   H     0.91105   0.66584   0.29631   0.00000  Uiso   1.00
O407   O     0.77450   0.64533   0.21697   0.00000  Uiso   1.00
H408   H     0.75571   0.33417   0.20372   0.00000  Uiso   1.00
N409   N     0.99837   0.54283   0.29950   0.00000  Uiso   1.00
H410   H     0.71066   0.55182   0.29918   0.00000  Uiso   1.00
C411   C     0.97613   0.59074   0.31282   0.00000  Uiso   1.00
H412   H     0.99549   0.61218   0.34117   0.00000  Uiso   1.00
H413   H     0.92520   0.58291   0.32469   0.00000  Uiso   1.00
H414   H     0.99230   0.61665   0.28515   0.00000  Uiso   1.00
N415   N     0.66797   0.45656   0.20085   0.00000  Uiso   1.00
H416   H     0.95576   0.44787   0.20094   0.00000  Uiso   1.00
C417   C     0.69036   0.40873   0.18766   0.00000  Uiso   1.00
H418   H     0.67058   0.38692   0.15961   0.00000  Uiso   1.00
H419   H     0.67469   0.38312   0.21552   0.00000  Uiso   1.00
H420   H     0.74127   0.41674   0.17533   0.00000  Uiso   1.00
C421   C     0.18125   0.93331   0.25245   0.00000  Uiso   1.00
C422   C     0.15205   0.73336   0.24762   0.00000  Uiso   1.00
C423   C     0.11823   0.75798   0.02515   0.00000  Uiso   1.00
C424   C     0.24960   0.83827   0.45141   0.00000  Uiso   1.00
C425   C     0.07792   0.73789   0.49623   0.00000  Uiso   1.00
C426   C     0.29154   0.85603   0.47891   0.00000  Uiso   1.00
C427   C     0.18574   0.98972   0.25828   0.00000  Uiso   1.00
C428   C     0.14750   0.67695   0.24188   0.00000  Uiso   1.00
C429   C     0.12810   0.82699   0.33281   0.00000  Uiso   1.00
C430   C     0.20501   0.83749   0.16655   0.00000  Uiso   1.00
C431   C     0.10452   0.81181   0.37886   0.00000  Uiso   1.00
C432   C     0.22873   0.84042   0.11757   0.00000  Uiso   1.00
C433   C     0.04263   0.74790   0.43062   0.00000  Uiso   1.00
C434   C     0.31313   0.86376   0.05309   0.00000  Uiso   1.00
C435   C     0.05262   0.76979   0.39073   0.00000  Uiso   1.00
C436   C     0.29287   0.85764   0.09837   0.00000  Uiso   1.00
C437   C     0.14215   0.83290   0.40909   0.00000  Uiso   1.00
C438   C     0.18656   0.82799   0.08942   0.00000  Uiso   1.00
C439   C     0.13882   0.80420   0.44519   0.00000  Uiso   1.00
C440   C     0.20904   0.82488   0.04261   0.00000  Uiso   1.00
C441   C     0.08603   0.76312   0.45746   0.00000  Uiso   1.00
C442   C     0.27165   0.84909   0.02481   0.00000  Uiso   1.00
C443   C     0.18604   0.81536   0.46959   0.00000  Uiso   1.00
C444   C     0.16983   0.80035   0.01329   0.00000  Uiso   1.00
Cu445  Cu    0.10737   0.82775   0.24516   0.00000  Uiso   1.00
Cu446  Cu    0.22596   0.83892   0.25483   0.00000  Uiso   1.00
H447   H     0.00089   0.71775   0.43951   0.00000  Uiso   1.00
H448   H     0.02908   0.87828   0.04047   0.00000  Uiso   1.00
N449   N     0.31506   0.84735   0.26212   0.00000  Uiso   1.00
N450   N     0.01827   0.81932   0.23788   0.00000  Uiso   1.00
O451   O     0.12815   0.90476   0.24686   0.00000  Uiso   1.00
O452   O     0.20518   0.76191   0.25314   0.00000  Uiso   1.00
O453   O     0.22829   0.91420   0.25502   0.00000  Uiso   1.00
O454   O     0.10504   0.75247   0.24497   0.00000  Uiso   1.00
O455   O     0.08851   0.82597   0.30854   0.00000  Uiso   1.00
O456   O     0.24482   0.84070   0.19145   0.00000  Uiso   1.00
O457   O     0.18866   0.83540   0.31671   0.00000  Uiso   1.00
O458   O     0.14468   0.83126   0.18329   0.00000  Uiso   1.00
O459   O     0.03102   0.69412   0.00700   0.00000  Uiso   1.00
H460   H     0.02740   0.67115   0.47948   0.00000  Uiso   1.00
O461   O     0.01835   0.87973   0.45924   0.00000  Uiso   1.00
H462   H     0.03420   0.90873   0.47992   0.00000  Uiso   1.00
O463   O     0.12389   0.82361   0.10816   0.00000  Uiso   1.00
H464   H     0.10452   0.83457   0.08702   0.00000  Uiso   1.00
O465   O     0.18026   0.88217   0.40292   0.00000  Uiso   1.00
H466   H     0.18695   0.89918   0.43212   0.00000  Uiso   1.00
O467   O     0.00328   0.87265   0.12341   0.00000  Uiso   1.00
H468   H     0.00443   0.84023   0.13536   0.00000  Uiso   1.00
O469   O     0.01240   0.74681   0.36371   0.00000  Uiso   1.00
H470   H     0.00362   0.77481   0.35005   0.00000  Uiso   1.00
O471   O     0.11303   0.73288   0.06240   0.00000  Uiso   1.00
H472   H     0.07343   0.70635   0.06839   0.00000  Uiso   1.00
O473   O     0.27391   0.84064   0.40643   0.00000  Uiso   1.00
H474   H     0.24945   0.81102   0.39069   0.00000  Uiso   1.00
O475   O     0.22538   0.68801   0.28322   0.00000  Uiso   1.00
H476   H     0.24438   0.99917   0.29631   0.00000  Uiso   1.00
O477   O     0.10783   0.97866   0.21697   0.00000  Uiso   1.00
H478   H     0.08904   0.66750   0.20372   0.00000  Uiso   1.00
N479   N     0.33170   0.87616   0.29950   0.00000  Uiso   1.00
H480   H     0.04400   0.88515   0.29918   0.00000  Uiso   1.00
C481   C     0.30947   0.92408   0.31282   0.00000  Uiso   1.00
H482   H     0.32882   0.94552   0.34117   0.00000  Uiso   1.00
H483   H     0.25854   0.91624   0.32469   0.00000  Uiso   1.00
H484   H     0.32563   0.94999   0.28515   0.00000  Uiso   1.00
N485   N     0.00130   0.78990   0.20085   0.00000  Uiso   1.00
H486   H     0.28910   0.78120   0.20094   0.00000  Uiso   1.00
C487   C     0.02370   0.74206   0.18766   0.00000  Uiso   1.00
H488   H     0.00391   0.72025   0.15961   0.00000  Uiso   1.00
H489   H     0.00802   0.71645   0.21552   0.00000  Uiso   1.00
H490   H     0.07461   0.75007   0.17533   0.00000  Uiso   1.00
C491   C     0.51459   0.93331   0.25245   0.00000  Uiso   1.00
C492   C     0.48538   0.73336   0.24762   0.00000  Uiso   1.00
C493   C     0.45157   0.75798   0.02515   0.00000  Uiso   1.00
C494   C     0.58293   0.83827   0.45141   0.00000  Uiso   1.00
C495   C     0.41125   0.73789   0.49623   0.00000  Uiso   1.00
C496   C     0.62487   0.85603   0.47891   0.00000  Uiso   1.00
C497   C     0.51907   0.98972   0.25828   0.00000  Uiso   1.00
C498   C     0.48083   0.67695   0.24188   0.00000  Uiso   1.00
C499   C     0.46143   0.82699   0.33281   0.00000  Uiso   1.00
C500   C     0.53835   0.83749   0.16655   0.00000  Uiso   1.00
C501   C     0.43785   0.81181   0.37886   0.00000  Uiso   1.00
C502   C     0.56206   0.84042   0.11757   0.00000  Uiso   1.00
C503   C     0.37596   0.74790   0.43062   0.00000  Uiso   1.00
C504   C     0.64646   0.86376   0.05309   0.00000  Uiso   1.00
C505   C     0.38595   0.76979   0.39073   0.00000  Uiso   1.00
C506   C     0.62621   0.85764   0.09837   0.00000  Uiso   1.00
C507   C     0.47548   0.83290   0.40909   0.00000  Uiso   1.00
C508   C     0.51989   0.82799   0.08942   0.00000  Uiso   1.00
C509   C     0.47215   0.80420   0.44519   0.00000  Uiso   1.00
C510   C     0.54238   0.82488   0.04261   0.00000  Uiso   1.00
C511   C     0.41936   0.76312   0.45746   0.00000  Uiso   1.00
C512   C     0.60498   0.84909   0.02481   0.00000  Uiso   1.00
C513   C     0.51938   0.81536   0.46959   0.00000  Uiso   1.00
C514   C     0.50316   0.80035   0.01329   0.00000  Uiso   1.00
Cu515  Cu    0.44071   0.82775   0.24516   0.00000  Uiso   1.00
Cu516  Cu    0.55929   0.83892   0.25483   0.00000  Uiso   1.00
H517   H     0.33422   0.71775   0.43951   0.00000  Uiso   1.00
H518   H     0.36241   0.87828   0.04047   0.00000  Uiso   1.00
N519   N     0.64839   0.84735   0.26212   0.00000  Uiso   1.00
N520   N     0.35161   0.81932   0.23788   0.00000  Uiso   1.00
O521   O     0.46148   0.90476   0.24686   0.00000  Uiso   1.00
O522   O     0.53852   0.76191   0.25314   0.00000  Uiso   1.00
O523   O     0.56163   0.91420   0.25502   0.00000  Uiso   1.00
O524   O     0.43837   0.75247   0.24497   0.00000  Uiso   1.00
O525   O     0.42185   0.82597   0.30854   0.00000  Uiso   1.00
O526   O     0.57815   0.84070   0.19145   0.00000  Uiso   1.00
O527   O     0.52199   0.83540   0.31671   0.00000  Uiso   1.00
O528   O     0.47801   0.83126   0.18329   0.00000  Uiso   1.00
O529   O     0.36435   0.69412   0.00700   0.00000  Uiso   1.00
H530   H     0.36074   0.67115   0.47948   0.00000  Uiso   1.00
O531   O     0.35168   0.87973   0.45924   0.00000  Uiso   1.00
H532   H     0.36753   0.90873   0.47992   0.00000  Uiso   1.00
O533   O     0.45722   0.82361   0.10816   0.00000  Uiso   1.00
H534   H     0.43786   0.83457   0.08702   0.00000  Uiso   1.00
O535   O     0.51360   0.88217   0.40292   0.00000  Uiso   1.00
H536   H     0.52029   0.89918   0.43212   0.00000  Uiso   1.00
O537   O     0.33661   0.87265   0.12341   0.00000  Uiso   1.00
H538   H     0.33776   0.84023   0.13536   0.00000  Uiso   1.00
O539   O     0.34573   0.74681   0.36371   0.00000  Uiso   1.00
H540   H     0.33696   0.77481   0.35005   0.00000  Uiso   1.00
O541   O     0.44636   0.73288   0.06240   0.00000  Uiso   1.00
H542   H     0.40677   0.70635   0.06839   0.00000  Uiso   1.00
O543   O     0.60724   0.84064   0.40643   0.00000  Uiso   1.00
H544   H     0.58278   0.81102   0.39069   0.00000  Uiso   1.00
O545   O     0.55872   0.68801   0.28322   0.00000  Uiso   1.00
H546   H     0.57771   0.99917   0.29631   0.00000  Uiso   1.00
O547   O     0.44116   0.97866   0.21697   0.00000  Uiso   1.00
H548   H     0.42237   0.66750   0.20372   0.00000  Uiso   1.00
N549   N     0.66503   0.87616   0.29950   0.00000  Uiso   1.00
H550   H     0.37733   0.88515   0.29918   0.00000  Uiso   1.00
C551   C     0.64280   0.92408   0.31282   0.00000  Uiso   1.00
H552   H     0.66216   0.94552   0.34117   0.00000  Uiso   1.00
H553   H     0.59187   0.91624   0.32469   0.00000  Uiso   1.00
H554   H     0.65897   0.94999   0.28515   0.00000  Uiso   1.00
N555   N     0.33463   0.78990   0.20085   0.00000  Uiso   1.00
H556   H     0.62243   0.78120   0.20094   0.00000  Uiso   1.00
C557   C     0.35703   0.74206   0.18766   0.00000  Uiso   1.00
H558   H     0.33724   0.72025   0.15961   0.00000  Uiso   1.00
H559   H     0.34135   0.71645   0.21552   0.00000  Uiso   1.00
H560   H     0.40794   0.75007   0.17533   0.00000  Uiso   1.00
C561   C     0.84792   0.93331   0.25245   0.00000  Uiso   1.00
C562   C     0.81872   0.73336   0.24762   0.00000  Uiso   1.00
C563   C     0.78490   0.75798   0.02515   0.00000  Uiso   1.00
C564   C     0.91627   0.83827   0.45141   0.00000  Uiso   1.00
C565   C     0.74459   0.73789   0.49623   0.00000  Uiso   1.00
C566   C     0.95820   0.85603   0.47891   0.00000  Uiso   1.00
C567   C     0.85241   0.98972   0.25828   0.00000  Uiso   1.00
C568   C     0.81417   0.67695   0.24188   0.00000  Uiso   1.00
C569   C     0.79476   0.82699   0.33281   0.00000  Uiso   1.00
C570   C     0.87168   0.83749   0.16655   0.00000  Uiso   1.00
C571   C     0.77119   0.81181   0.37886   0.00000  Uiso   1.00
C572   C     0.89539   0.84042   0.11757   0.00000  Uiso   1.00
C573   C     0.70929   0.74790   0.43062   0.00000  Uiso   1.00
C574   C     0.97979   0.86376   0.05309   0.00000  Uiso   1.00
C575   C     0.71929   0.76979   0.39073   0.00000  Uiso   1.00
C576   C     0.95954   0.85764   0.09837   0.00000  Uiso   1.00
C577   C     0.80882   0.83290   0.40909   0.00000  Uiso   1.00
C578   C     0.85322   0.82799   0.08942   0.00000  Uiso   1.00
C579   C     0.80548   0.80420   0.44519   0.00000  Uiso   1.00
C580   C     0.87571   0.82488   0.04261   0.00000  Uiso   1.00
C581   C     0.75270   0.76312   0.45746   0.00000  Uiso   1.00
C582   C     0.93831   0.84909   0.02481   0.00000  Uiso   1.00
C583   C     0.85271   0.81536   0.46959   0.00000  Uiso   1.00
C584   C     0.83650   0.80035   0.01329   0.00000  Uiso   1.00
Cu585  Cu    0.77404   0.82775   0.24516   0.00000  Uiso   1.00
Cu586  Cu    0.89263   0.83892   0.25483   0.00000  Uiso   1.00
H587   H     0.66755   0.71775   0.43951   0.00000  Uiso   1.00
H588   H     0.69574   0.87828   0.04047   0.00000  Uiso   1.00
N589   N     0.98173   0.84735   0.26212   0.00000  Uiso   1.00
N590   N     0.68494   0.81932   0.23788   0.00000  Uiso   1.00
O591   O     0.79482   0.90476   0.24686   0.00000  Uiso   1.00
O592   O     0.87185   0.76191   0.25314   0.00000  Uiso   1.00
O593   O     0.89496   0.91420   0.25502   0.00000  Uiso   1.00
O594   O     0.77171   0.75247   0.24497   0.00000  Uiso   1.00
O595   O     0.75518   0.82597   0.30854   0.00000  Uiso   1.00
O596   O     0.91149   0.84070   0.19145   0.00000  Uiso   1.00
O597   O     0.85532   0.83540   0.31671   0.00000  Uiso   1.00
O598   O     0.81134   0.83126   0.18329   0.00000  Uiso   1.00
O599   O     0.69768   0.69412   0.00700   0.00000  Uiso   1.00
H600   H     0.69407   0.67115   0.47948   0.00000  Uiso   1.00
O601   O     0.68502   0.87973   0.45924   0.00000  Uiso   1.00
H602   H     0.70087   0.90873   0.47992   0.00000  Uiso   1.00
O603   O     0.79056   0.82361   0.10816   0.00000  Uiso   1.00
H604   H     0.77119   0.83457   0.08702   0.00000  Uiso   1.00
O605   O     0.84693   0.88217   0.40292   0.00000  Uiso   1.00
H606   H     0.85362   0.89918   0.43212   0.00000  Uiso   1.00
O607   O     0.66995   0.87265   0.12341   0.00000  Uiso   1.00
H608   H     0.67109   0.84023   0.13536   0.00000  Uiso   1.00
O609   O     0.67907   0.74681   0.36371   0.00000  Uiso   1.00
H610   H     0.67029   0.77481   0.35005   0.00000  Uiso   1.00
O611   O     0.77969   0.73288   0.06240   0.00000  Uiso   1.00
H612   H     0.74010   0.70635   0.06839   0.00000  Uiso   1.00
O613   O     0.94058   0.84064   0.40643   0.00000  Uiso   1.00
H614   H     0.91611   0.81102   0.39069   0.00000  Uiso   1.00
O615   O     0.89205   0.68801   0.28322   0.00000  Uiso   1.00
H616   H     0.91105   0.99917   0.29631   0.00000  Uiso   1.00
O617   O     0.77450   0.97866   0.21697   0.00000  Uiso   1.00
H618   H     0.75571   0.66750   0.20372   0.00000  Uiso   1.00
N619   N     0.99837   0.87616   0.29950   0.00000  Uiso   1.00
H620   H     0.71066   0.88515   0.29918   0.00000  Uiso   1.00
C621   C     0.97613   0.92408   0.31282   0.00000  Uiso   1.00
H622   H     0.99549   0.94552   0.34117   0.00000  Uiso   1.00
H623   H     0.92520   0.91624   0.32469   0.00000  Uiso   1.00
H624   H     0.99230   0.94999   0.28515   0.00000  Uiso   1.00
N625   N     0.66797   0.78990   0.20085   0.00000  Uiso   1.00
H626   H     0.95576   0.78120   0.20094   0.00000  Uiso   1.00
C627   C     0.69036   0.74206   0.18766   0.00000  Uiso   1.00
H628   H     0.67058   0.72025   0.15961   0.00000  Uiso   1.00
H629   H     0.67469   0.71645   0.21552   0.00000  Uiso   1.00
H630   H     0.74127   0.75007   0.17533   0.00000  Uiso   1.00
C631   C     0.18125   0.26664   0.75245   0.00000  Uiso   1.00
C632   C     0.15205   0.06669   0.74762   0.00000  Uiso   1.00
C633   C     0.11823   0.09131   0.52515   0.00000  Uiso   1.00
C634   C     0.24960   0.17160   0.95141   0.00000  Uiso   1.00
C635   C     0.07792   0.07122   0.99623   0.00000  Uiso   1.00
C636   C     0.29154   0.18937   0.97891   0.00000  Uiso   1.00
C637   C     0.18574   0.32306   0.75828   0.00000  Uiso   1.00
C638   C     0.14750   0.01028   0.74188   0.00000  Uiso   1.00
C639   C     0.12810   0.16032   0.83281   0.00000  Uiso   1.00
C640   C     0.20501   0.17082   0.66655   0.00000  Uiso   1.00
C641   C     0.10452   0.14515   0.87886   0.00000  Uiso   1.00
C642   C     0.22873   0.17375   0.61757   0.00000  Uiso   1.00
C643   C     0.04263   0.08123   0.93062   0.00000  Uiso   1.00
C644   C     0.31313   0.19710   0.55309   0.00000  Uiso   1.00
C645   C     0.05262   0.10312   0.89073   0.00000  Uiso   1.00
C646   C     0.29287   0.19098   0.59837   0.00000  Uiso   1.00
C647   C     0.14215   0.16623   0.90909   0.00000  Uiso   1.00
C648   C     0.18656   0.16132   0.58942   0.00000  Uiso   1.00
C649   C     0.13882   0.13753   0.94519   0.00000  Uiso   1.00
C650   C     0.20904   0.15821   0.54261   0.00000  Uiso   1.00
C651   C     0.08603   0.09646   0.95746   0.00000  Uiso   1.00
C652   C     0.27165   0.18243   0.52481   0.00000  Uiso   1.00
C653   C     0.18604   0.14870   0.96959   0.00000  Uiso   1.00
C654   C     0.16983   0.13368   0.51329   0.00000  Uiso   1.00
Cu655  Cu    0.10737   0.16108   0.74516   0.00000  Uiso   1.00
Cu656  Cu    0.22596   0.17225   0.75483   0.00000  Uiso   1.00
H657   H     0.00089   0.05109   0.93951   0.00000  Uiso   1.00
H658   H     0.02908   0.21161   0.54047   0.00000  Uiso   1.00
N659   N     0.31506   0.18068   0.76212   0.00000  Uiso   1.00
N660   N     0.01827   0.15265   0.73788   0.00000  Uiso   1.00
O661   O     0.12815   0.23809   0.74686   0.00000  Uiso   1.00
O662   O     0.20518   0.09524   0.75314   0.00000  Uiso   1.00
O663   O     0.22829   0.24753   0.75502   0.00000  Uiso   1.00
O664   O     0.10504   0.08580   0.74497   0.00000  Uiso   1.00
O665   O     0.08851   0.15930   0.80854   0.00000  Uiso   1.00
O666   O     0.24482   0.17403   0.69145   0.00000  Uiso   1.00
O667   O     0.18866   0.16874   0.81671   0.00000  Uiso   1.00
O668   O     0.14468   0.16460   0.68329   0.00000  Uiso   1.00
O669   O     0.03102   0.02746   0.50700   0.00000  Uiso   1.00
H670   H     0.02740   0.00448   0.97948   0.00000  Uiso   1.00
O671   O     0.01835   0.21306   0.95924   0.00000  Uiso   1.00
H672   H     0.03420   0.24206   0.97992   0.00000  Uiso   1.00
O673   O     0.12389   0.15694   0.60816   0.00000  Uiso   1.00
H674   H     0.10452   0.16791   0.58702   0.00000  Uiso   1.00
O675   O     0.18026   0.21550   0.90292   0.00000  Uiso   1.00
H676   H     0.18695   0.23251   0.93212   0.00000  Uiso   1.00
O677   O     0.00328   0.20598   0.62341   0.00000  Uiso   1.00
H678   H     0.00443   0.17356   0.63536   0.00000  Uiso   1.00
O679   O     0.01240   0.08014   0.86371   0.00000  Uiso   1.00
H680   H     0.00362   0.10814   0.85005   0.00000  Uiso   1.00
O681   O     0.11303   0.06622   0.56240   0.00000  Uiso   1.00
H682   H     0.07343   0.03968   0.56839   0.00000  Uiso   1.00
O683   O     0.27391   0.17398   0.90643   0.00000  Uiso   1.00
H684   H     0.24945   0.14435   0.89069   0.00000  Uiso   1.00
O685   O     0.22538   0.02134   0.78322   0.00000  Uiso   1.00
H686   H     0.24438   0.33250   0.79631   0.00000  Uiso   1.00
O687   O     0.10783   0.31199   0.71697   0.00000  Uiso   1.00
H688   H     0.08904   0.00083   0.70372   0.00000  Uiso   1.00
N689   N     0.33170   0.20949   0.79950   0.00000  Uiso   1.00
H690   H     0.04400   0.21848   0.79918   0.00000  Uiso   1.00
C691   C     0.30947   0.25741   0.81282   0.00000  Uiso   1.00
H692   H     0.32882   0.27885   0.84117   0.00000  Uiso   1.00
H693   H     0.25854   0.24958   0.82469   0.00000  Uiso   1.00
H694   H     0.32563   0.28332   0.78515   0.00000  Uiso   1.00
N695   N     0.00130   0.12323   0.70085   0.00000  Uiso   1.00
H696   H     0.28910   0.11454   0.70094   0.00000  Uiso   1.00
C697   C     0.02370   0.07539   0.68766   0.00000  Uiso   1.00
H698   H     0.00391   0.05359   0.65961   0.00000  Uiso   1.00
H699   H     0.00802   0.04978   0.71552   0.00000  Uiso   1.00
H700   H     0.07461   0.08341   0.67533   0.00000  Uiso   1.00
C701   C     0.51459   0.26664   0.75245   0.00000  Uiso   1.00
C702   C     0.48538   0.06669   0.74762   0.00000  Uiso   1.00
C703   C     0.45157   0.09131   0.52515   0.00000  Uiso   1.00
C704   C     0.58293   0.17160   0.95141   0.00000  Uiso   1.00
C705   C     0.41125   0.07122   0.99623   0.00000  Uiso   1.00
C706   C     0.62487   0.18937   0.97891   0.00000  Uiso   1.00
C707   C     0.51907   0.32306   0.75828   0.00000  Uiso   1.00
C708   C     0.48083   0.01028   0.74188   0.00000  Uiso   1.00
C709   C     0.46143   0.16032   0.83281   0.00000  Uiso   1.00
C710   C     0.53835   0.17082   0.66655   0.00000  Uiso   1.00
C711   C     0.43785   0.14515   0.87886   0.00000  Uiso   1.00
C712   C     0.56206   0.17375   0.61757   0.00000  Uiso   1.00
C713   C     0.37596   0.08123   0.93062   0.00000  Uiso   1.00
C714   C     0.64646   0.19710   0.55309   0.00000  Uiso   1.00
C715   C     0.38595   0.10312   0.89073   0.00000  Uiso   1.00
C716   C     0.62621   0.19098   0.59837   0.00000  Uiso   1.00
C717   C     0.47548   0.16623   0.90909   0.00000  Uiso   1.00
C718   C     0.51989   0.16132   0.58942   0.00000  Uiso   1.00
C719   C     0.47215   0.13753   0.94519   0.00000  Uiso   1.00
C720   C     0.54238   0.15821   0.54261   0.00000  Uiso   1.00
C721   C     0.41936   0.09646   0.95746   0.00000  Uiso   1.00
C722   C     0.60498   0.18243   0.52481   0.00000  Uiso   1.00
C723   C     0.51938   0.14870   0.96959   0.00000  Uiso   1.00
C724   C     0.50316   0.13368   0.51329   0.00000  Uiso   1.00
Cu725  Cu    0.44071   0.16108   0.74516   0.00000  Uiso   1.00
Cu726  Cu    0.55929   0.17225   0.75483   0.00000  Uiso   1.00
H727   H     0.33422   0.05109   0.93951   0.00000  Uiso   1.00
H728   H     0.36241   0.21161   0.54047   0.00000  Uiso   1.00
N729   N     0.64839   0.18068   0.76212   0.00000  Uiso   1.00
N730   N     0.35161   0.15265   0.73788   0.00000  Uiso   1.00
O731   O     0.46148   0.23809   0.74686   0.00000  Uiso   1.00
O732   O     0.53852   0.09524   0.75314   0.00000  Uiso   1.00
O733   O     0.56163   0.24753   0.75502   0.00000  Uiso   1.00
O734   O     0.43837   0.08580   0.74497   0.00000  Uiso   1.00
O735   O     0.42185   0.15930   0.80854   0.00000  Uiso   1.00
O736   O     0.57815   0.17403   0.69145   0.00000  Uiso   1.00
O737   O     0.52199   0.16874   0.81671   0.00000  Uiso   1.00
O738   O     0.47801   0.16460   0.68329   0.00000  Uiso   1.00
O739   O     0.36435   0.02746   0.50700   0.00000  Uiso   1.00
H740   H     0.36074   0.00448   0.97948   0.00000  Uiso   1.00
O741   O     0.35168   0.21306   0.95924   0.00000  Uiso   1.00
H742   H     0.36753   0.24206   0.97992   0.00000  Uiso   1.00
O743   O     0.45722   0.15694   0.60816   0.00000  Uiso   1.00
H744   H     0.43786   0.16791   0.58702   0.00000  Uiso   1.00
O745   O     0.51360   0.21550   0.90292   0.00000  Uiso   1.00
H746   H     0.52029   0.23251   0.93212   0.00000  Uiso   1.00
O747   O     0.33661   0.20598   0.62341   0.00000  Uiso   1.00
H748   H     0.33776   0.17356   0.63536   0.00000  Uiso   1.00
O749   O     0.34573   0.08014   0.86371   0.00000  Uiso   1.00
H750   H     0.33696   0.10814   0.85005   0.00000  Uiso   1.00
O751   O     0.44636   0.06622   0.56240   0.00000  Uiso   1.00
H752   H     0.40677   0.03968   0.56839   0.00000  Uiso   1.00
O753   O     0.60724   0.17398   0.90643   0.00000  Uiso   1.00
H754   H     0.58278   0.14435   0.89069   0.00000  Uiso   1.00
O755   O     0.55872   0.02134   0.78322   0.00000  Uiso   1.00
H756   H     0.57771   0.33250   0.79631   0.00000  Uiso   1.00
O757   O     0.44116   0.31199   0.71697   0.00000  Uiso   1.00
H758   H     0.42237   0.00083   0.70372   0.00000  Uiso   1.00
N759   N     0.66503   0.20949   0.79950   0.00000  Uiso   1.00
H760   H     0.37733   0.21848   0.79918   0.00000  Uiso   1.00
C761   C     0.64280   0.25741   0.81282   0.00000  Uiso   1.00
H762   H     0.66216   0.27885   0.84117   0.00000  Uiso   1.00
H763   H     0.59187   0.24958   0.82469   0.00000  Uiso   1.00
H764   H     0.65897   0.28332   0.78515   0.00000  Uiso   1.00
N765   N     0.33463   0.12323   0.70085   0.00000  Uiso   1.00
H766   H     0.62243   0.11454   0.70094   0.00000  Uiso   1.00
C767   C     0.35703   0.07539   0.68766   0.00000  Uiso   1.00
H768   H     0.33724   0.05359   0.65961   0.00000  Uiso   1.00
H769   H     0.34135   0.04978   0.71552   0.00000  Uiso   1.00
H770   H     0.40794   0.08341   0.67533   0.00000  Uiso   1.00
C771   C     0.84792   0.26664   0.75245   0.00000  Uiso   1.00
C772   C     0.81872   0.06669   0.74762   0.00000  Uiso   1.00
C773   C     0.78490   0.09131   0.52515   0.00000  Uiso   1.00
C774   C     0.91627   0.17160   0.95141   0.00000  Uiso   1.00
C775   C     0.74459   0.07122   0.99623   0.00000  Uiso   1.00
C776   C     0.95820   0.18937   0.97891   0.00000  Uiso   1.00
C777   C     0.85241   0.32306   0.75828   0.00000  Uiso   1.00
C778   C     0.81417   0.01028   0.74188   0.00000  Uiso   1.00
C779   C     0.79476   0.16032   0.83281   0.00000  Uiso   1.00
C780   C     0.87168   0.17082   0.66655   0.00000  Uiso   1.00
C781   C     0.77119   0.14515   0.87886   0.00000  Uiso   1.00
C782   C     0.89539   0.17375   0.61757   0.00000  Uiso   1.00
C783   C     0.70929   0.08123   0.93062   0.00000  Uiso   1.00
C784   C     0.97979   0.19710   0.55309   0.00000  Uiso   1.00
C785   C     0.71929   0.10312   0.89073   0.00000  Uiso   1.00
C786   C     0.95954   0.19098   0.59837   0.00000  Uiso   1.00
C787   C     0.80882   0.16623   0.90909   0.00000  Uiso   1.00
C788   C     0.85322   0.16132   0.58942   0.00000  Uiso   1.00
C789   C     0.80548   0.13753   0.94519   0.00000  Uiso   1.00
C790   C     0.87571   0.15821   0.54261   0.00000  Uiso   1.00
C791   C     0.75270   0.09646   0.95746   0.00000  Uiso   1.00
C792   C     0.93831   0.18243   0.52481   0.00000  Uiso   1.00
C793   C     0.85271   0.14870   0.96959   0.00000  Uiso   1.00
C794   C     0.83650   0.13368   0.51329   0.00000  Uiso   1.00
Cu795  Cu    0.77404   0.16108   0.74516   0.00000  Uiso   1.00
Cu796  Cu    0.89263   0.17225   0.75483   0.00000  Uiso   1.00
H797   H     0.66755   0.05109   0.93951   0.00000  Uiso   1.00
H798   H     0.69574   0.21161   0.54047   0.00000  Uiso   1.00
N799   N     0.98173   0.18068   0.76212   0.00000  Uiso   1.00
N800   N     0.68494   0.15265   0.73788   0.00000  Uiso   1.00
O801   O     0.79482   0.23809   0.74686   0.00000  Uiso   1.00
O802   O     0.87185   0.09524   0.75314   0.00000  Uiso   1.00
O803   O     0.89496   0.24753   0.75502   0.00000  Uiso   1.00
O804   O     0.77171   0.08580   0.74497   0.00000  Uiso   1.00
O805   O     0.75518   0.15930   0.80854   0.00000  Uiso   1.00
O806   O     0.91149   0.17403   0.69145   0.00000  Uiso   1.00
O807   O     0.85532   0.16874   0.81671   0.00000  Uiso   1.00
O808   O     0.81134   0.16460   0.68329   0.00000  Uiso   1.00
O809   O     0.69768   0.02746   0.50700   0.00000  Uiso   1.00
H810   H     0.69407   0.00448   0.97948   0.00000  Uiso   1.00
O811   O     0.68502   0.21306   0.95924   0.00000  Uiso   1.00
H812   H     0.70087   0.24206   0.97992   0.00000  Uiso   1.00
O813   O     0.79056   0.15694   0.60816   0.00000  Uiso   1.00
H814   H     0.77119   0.16791   0.58702   0.00000  Uiso   1.00
O815   O     0.84693   0.21550   0.90292   0.00000  Uiso   1.00
H816   H     0.85362   0.23251   0.93212   0.00000  Uiso   1.00
O817   O     0.66995   0.20598   0.62341   0.00000  Uiso   1.00
H818   H     0.67109   0.17356   0.63536   0.00000  Uiso   1.00
O819   O     0.67907   0.08014   0.86371   0.00000  Uiso   1.00
H820   H     0.67029   0.10814   0.85005   0.00000  Uiso   1.00
O821   O     0.77969   0.06622   0.56240   0.00000  Uiso   1.00
H822   H     0.74010   0.03968   0.56839   0.00000  Uiso   1.00
O823   O     0.94058   0.17398   0.90643   0.00000  Uiso   1.00
H824   H     0.91611   0.14435   0.89069   0.00000  Uiso   1.00
O825   O     0.89205   0.02134   0.78322   0.00000  Uiso   1.00
H826   H     0.91105   0.33250   0.79631   0.00000  Uiso   1.00
O827   O     0.77450   0.31199   0.71697   0.00000  Uiso   1.00
H828   H     0.75571   0.00083   0.70372   0.00000  Uiso   1.00
N829   N     0.99837   0.20949   0.79950   0.00000  Uiso   1.00
H830   H     0.71066   0.21848   0.79918   0.00000  Uiso   1.00
C831   C     0.97613   0.25741   0.81282   0.00000  Uiso   1.00
H832   H     0.99549   0.27885   0.84117   0.00000  Uiso   1.00
H833   H     0.92520   0.24958   0.82469   0.00000  Uiso   1.00
H834   H     0.99230   0.28332   0.78515   0.00000  Uiso   1.00
N835   N     0.66797   0.12323   0.70085   0.00000  Uiso   1.00
H836   H     0.95576   0.11454   0.70094   0.00000  Uiso   1.00
C837   C     0.69036   0.07539   0.68766   0.00000  Uiso   1.00
H838   H     0.67058   0.05359   0.65961   0.00000  Uiso   1.00
H839   H     0.67469   0.04978   0.71552   0.00000  Uiso   1.00
H840   H     0.74127   0.08341   0.67533   0.00000  Uiso   1.00
C841   C     0.18125   0.59997   0.75245   0.00000  Uiso   1.00
C842   C     0.15205   0.40003   0.74762   0.00000  Uiso   1.00
C843   C     0.11823   0.42464   0.52515   0.00000  Uiso   1.00
C844   C     0.24960   0.50493   0.95141   0.00000  Uiso   1.00
C845   C     0.07792   0.40455   0.99623   0.00000  Uiso   1.00
C846   C     0.29154   0.52270   0.97891   0.00000  Uiso   1.00
C847   C     0.18574   0.65639   0.75828   0.00000  Uiso   1.00
C848   C     0.14750   0.34362   0.74188   0.00000  Uiso   1.00
C849   C     0.12810   0.49366   0.83281   0.00000  Uiso   1.00
C850   C     0.20501   0.50415   0.66655   0.00000  Uiso   1.00
C851   C     0.10452   0.47848   0.87886   0.00000  Uiso   1.00
C852   C     0.22873   0.50708   0.61757   0.00000  Uiso   1.00
C853   C     0.04263   0.41457   0.93062   0.00000  Uiso   1.00
C854   C     0.31313   0.53043   0.55309   0.00000  Uiso   1.00
C855   C     0.05262   0.43646   0.89073   0.00000  Uiso   1.00
C856   C     0.29287   0.52431   0.59837   0.00000  Uiso   1.00
C857   C     0.14215   0.49957   0.90909   0.00000  Uiso   1.00
C858   C     0.18656   0.49465   0.58942   0.00000  Uiso   1.00
C859   C     0.13882   0.47087   0.94519   0.00000  Uiso   1.00
C860   C     0.20904   0.49154   0.54261   0.00000  Uiso   1.00
C861   C     0.08603   0.42979   0.95746   0.00000  Uiso   1.00
C862   C     0.27165   0.51576   0.52481   0.00000  Uiso   1.00
C863   C     0.18604   0.48203   0.96959   0.00000  Uiso   1.00
C864   C     0.16983   0.46702   0.51329   0.00000  Uiso   1.00
Cu865  Cu    0.10737   0.49441   0.74516   0.00000  Uiso   1.00
Cu866  Cu    0.22596   0.50559   0.75483   0.00000  Uiso   1.00
H867   H     0.00089   0.38442   0.93951   0.00000  Uiso   1.00
H868   H     0.02908   0.54494   0.54047   0.00000  Uiso   1.00
N869   N     0.31506   0.51401   0.76212   0.00000  Uiso   1.00
N870   N     0.01827   0.48599   0.73788   0.00000  Uiso   1.00
O871   O     0.12815   0.57142   0.74686   0.00000  Uiso   1.00
O872   O     0.20518   0.42858   0.75314   0.00000  Uiso   1.00
O873   O     0.22829   0.58086   0.75502   0.00000  Uiso   1.00
O874   O     0.10504   0.41914   0.74497   0.00000  Uiso   1.00
O875   O     0.08851   0.49263   0.80854   0.00000  Uiso   1.00
O876   O     0.24482   0.50737   0.69145   0.00000  Uiso   1.00
O877   O     0.18866   0.50207   0.81671   0.00000  Uiso   1.00
O878   O     0.14468   0.49793   0.68329   0.00000  Uiso   1.00
O879   O     0.03102   0.36079   0.50700   0.00000  Uiso   1.00
H880   H     0.02740   0.33781   0.97948   0.00000  Uiso   1.00
O881   O     0.01835   0.54640   0.95924   0.00000  Uiso   1.00
H882   H     0.03420   0.57539   0.97992   0.00000  Uiso   1.00
O883   O     0.12389   0.49027   0.60816   0.00000  Uiso   1.00
H884   H     0.10452   0.50124   0.58702   0.00000  Uiso   1.00
O885   O     0.18026   0.54883   0.90292   0.00000  Uiso   1.00
H886   H     0.18695   0.56584   0.93212   0.00000  Uiso   1.00
O887   O     0.00328   0.53931   0.62341   0.00000  Uiso   1.00
H888   H     0.00443   0.50689   0.63536   0.00000  Uiso   1.00
O889   O     0.01240   0.41348   0.86371   0.00000  Uiso   1.00
H890   H     0.00362   0.44148   0.85005   0.00000  Uiso   1.00
O891   O     0.11303   0.39955   0.56240   0.00000  Uiso   1.00
H892   H     0.07343   0.37302   0.56839   0.00000  Uiso   1.00
O893   O     0.27391   0.50731   0.90643   0.00000  Uiso   1.00
H894   H     0.24945   0.47768   0.89069   0.00000  Uiso   1.00
O895   O     0.22538   0.35467   0.78322   0.00000  Uiso   1.00
H896   H     0.24438   0.66584   0.79631   0.00000  Uiso   1.00
O897   O     0.10783   0.64533   0.71697   0.00000  Uiso   1.00
H898   H     0.08904   0.33417   0.70372   0.00000  Uiso   1.00
N899   N     0.33170   0.54283   0.79950   0.00000  Uiso   1.00
H900   H     0.04400   0.55182   0.79918   0.00000  Uiso   1.00
C901   C     0.30947   0.59074   0.81282   0.00000  Uiso   1.00
H902   H     0.32882   0.61218   0.84117   0.00000  Uiso   1.00
H903   H     0.25854   0.58291   0.82469   0.00000  Uiso   1.00
H904   H     0.32563   0.61665   0.78515   0.00000  Uiso   1.00
N905   N     0.00130   0.45656   0.70085   0.00000  Uiso   1.00
H906   H     0.28910   0.44787   0.70094   0.00000  Uiso   1.00
C907   C     0.02370   0.40873   0.68766   0.00000  Uiso   1.00
H908   H     0.00391   0.38692   0.65961   0.00000  Uiso   1.00
H909   H     0.00802   0.38312   0.71552   0.00000  Uiso   1.00
H910   H     0.07461   0.41674   0.67533   0.00000  Uiso   1.00
C911   C     0.51459   0.59997   0.75245   0.00000  Uiso   1.00
C912   C     0.48538   0.40003   0.74762   0.00000  Uiso   1.00
C913   C     0.45157   0.42464   0.52515   0.00000  Uiso   1.00
C914   C     0.58293   0.50493   0.95141   0.00000  Uiso   1.00
C915   C     0.41125   0.40455   0.99623   0.00000  Uiso   1.00
C916   C     0.62487   0.52270   0.97891   0.00000  Uiso   1.00
C917   C     0.51907   0.65639   0.75828   0.00000  Uiso   1.00
C918   C     0.48083   0.34362   0.74188   0.00000  Uiso   1.00
C919   C     0.46143   0.49366   0.83281   0.00000  Uiso   1.00
C920   C     0.53835   0.50415   0.66655   0.00000  Uiso   1.00
C921   C     0.43785   0.47848   0.87886   0.00000  Uiso   1.00
C922   C     0.56206   0.50708   0.61757   0.00000  Uiso   1.00
C923   C     0.37596   0.41457   0.93062   0.00000  Uiso   1.00
C924   C     0.64646   0.53043   0.55309   0.00000  Uiso   1.00
C925   C     0.38595   0.43646   0.89073   0.00000  Uiso   1.00
C926   C     0.62621   0.52431   0.59837   0.00000  Uiso   1.00
C927   C     0.47548   0.49957   0.90909   0.00000  Uiso   1.00
C928   C     0.51989   0.49465   0.58942   0.00000  Uiso   1.00
C929   C     0.47215   0.47087   0.94519   0.00000  Uiso   1.00
C930   C     0.54238   0.49154   0.54261   0.00000  Uiso   1.00
C931   C     0.41936   0.42979   0.95746   0.00000  Uiso   1.00
C932   C     0.60498   0.51576   0.52481   0.00000  Uiso   1.00
C933   C     0.51938   0.48203   0.96959   0.00000  Uiso   1.00
C934   C     0.50316   0.46702   0.51329   0.00000  Uiso   1.00
Cu935  Cu    0.44071   0.49441   0.74516   0.00000  Uiso   1.00
Cu936  Cu    0.55929   0.50559   0.75483   0.00000  Uiso   1.00
H937   H     0.33422   0.38442   0.93951   0.00000  Uiso   1.00
H938   H     0.36241   0.54494   0.54047   0.00000  Uiso   1.00
N939   N     0.64839   0.51401   0.76212   0.00000  Uiso   1.00
N940   N     0.35161   0.48599   0.73788   0.00000  Uiso   1.00
O941   O     0.46148   0.57142   0.74686   0.00000  Uiso   1.00
O942   O     0.53852   0.42858   0.75314   0.00000  Uiso   1.00
O943   O     0.56163   0.58086   0.75502   0.00000  Uiso   1.00
O944   O     0.43837   0.41914   0.74497   0.00000  Uiso   1.00
O945   O     0.42185   0.49263   0.80854   0.00000  Uiso   1.00
O946   O     0.57815   0.50737   0.69145   0.00000  Uiso   1.00
O947   O     0.52199   0.50207   0.81671   0.00000  Uiso   1.00
O948   O     0.47801   0.49793   0.68329   0.00000  Uiso   1.00
O949   O     0.36435   0.36079   0.50700   0.00000  Uiso   1.00
H950   H     0.36074   0.33781   0.97948   0.00000  Uiso   1.00
O951   O     0.35168   0.54640   0.95924   0.00000  Uiso   1.00
H952   H     0.36753   0.57539   0.97992   0.00000  Uiso   1.00
O953   O     0.45722   0.49027   0.60816   0.00000  Uiso   1.00
H954   H     0.43786   0.50124   0.58702   0.00000  Uiso   1.00
O955   O     0.51360   0.54883   0.90292   0.00000  Uiso   1.00
H956   H     0.52029   0.56584   0.93212   0.00000  Uiso   1.00
O957   O     0.33661   0.53931   0.62341   0.00000  Uiso   1.00
H958   H     0.33776   0.50689   0.63536   0.00000  Uiso   1.00
O959   O     0.34573   0.41348   0.86371   0.00000  Uiso   1.00
H960   H     0.33696   0.44148   0.85005   0.00000  Uiso   1.00
O961   O     0.44636   0.39955   0.56240   0.00000  Uiso   1.00
H962   H     0.40677   0.37302   0.56839   0.00000  Uiso   1.00
O963   O     0.60724   0.50731   0.90643   0.00000  Uiso   1.00
H964   H     0.58278   0.47768   0.89069   0.00000  Uiso   1.00
O965   O     0.55872   0.35467   0.78322   0.00000  Uiso   1.00
H966   H     0.57771   0.66584   0.79631   0.00000  Uiso   1.00
O967   O     0.44116   0.64533   0.71697   0.00000  Uiso   1.00
H968   H     0.42237   0.33417   0.70372   0.00000  Uiso   1.00
N969   N     0.66503   0.54283   0.79950   0.00000  Uiso   1.00
H970   H     0.37733   0.55182   0.79918   0.00000  Uiso   1.00
C971   C     0.64280   0.59074   0.81282   0.00000  Uiso   1.00
H972   H     0.66216   0.61218   0.84117   0.00000  Uiso   1.00
H973   H     0.59187   0.58291   0.82469   0.00000  Uiso   1.00
H974   H     0.65897   0.61665   0.78515   0.00000  Uiso   1.00
N975   N     0.33463   0.45656   0.70085   0.00000  Uiso   1.00
H976   H     0.62243   0.44787   0.70094   0.00000  Uiso   1.00
C977   C     0.35703   0.40873   0.68766   0.00000  Uiso   1.00
H978   H     0.33724   0.38692   0.65961   0.00000  Uiso   1.00
H979   H     0.34135   0.38312   0.71552   0.00000  Uiso   1.00
H980   H     0.40794   0.41674   0.67533   0.00000  Uiso   1.00
C981   C     0.84792   0.59997   0.75245   0.00000  Uiso   1.00
C982   C     0.81872   0.40003   0.74762   0.00000  Uiso   1.00
C983   C     0.78490   0.42464   0.52515   0.00000  Uiso   1.00
C984   C     0.91627   0.50493   0.95141   0.00000  Uiso   1.00
C985   C     0.74459   0.40455   0.99623   0.00000  Uiso   1.00
C986   C     0.95820   0.52270   0.97891   0.00000  Uiso   1.00
C987   C     0.85241   0.65639   0.75828   0.00000  Uiso   1.00
C988   C     0.81417   0.34362   0.74188   0.00000  Uiso   1.00
C989   C     0.79476   0.49366   0.83281   0.00000  Uiso   1.00
C990   C     0.87168   0.50415   0.66655   0.00000  Uiso   1.00
C991   C     0.77119   0.47848   0.87886   0.00000  Uiso   1.00
C992   C     0.89539   0.50708   0.61757   0.00000  Uiso   1.00
C993   C     0.70929   0.41457   0.93062   0.00000  Uiso   1.00
C994   C     0.97979   0.53043   0.55309   0.00000  Uiso   1.00
C995   C     0.71929   0.43646   0.89073   0.00000  Uiso   1.00
C996   C     0.95954   0.52431   0.59837   0.00000  Uiso   1.00
C997   C     0.80882   0.49957   0.90909   0.00000  Uiso   1.00
C998   C     0.85322   0.49465   0.58942   0.00000  Uiso   1.00
C999   C     0.80548   0.47087   0.94519   0.00000  Uiso   1.00
C1000  C     0.87571   0.49154   0.54261   0.00000  Uiso   1.00
C1001  C     0.75270   0.42979   0.95746   0.00000  Uiso   1.00
C1002  C     0.93831   0.51576   0.52481   0.00000  Uiso   1.00
C1003  C     0.85271   0.48203   0.96959   0.00000  Uiso   1.00
C1004  C     0.83650   0.46702   0.51329   0.00000  Uiso   1.00
Cu1005 Cu    0.77404   0.49441   0.74516   0.00000  Uiso   1.00
Cu1006 Cu    0.89263   0.50559   0.75483   0.00000  Uiso   1.00
H1007  H     0.66755   0.38442   0.93951   0.00000  Uiso   1.00
H1008  H     0.69574   0.54494   0.54047   0.00000  Uiso   1.00
N1009  N     0.98173   0.51401   0.76212   0.00000  Uiso   1.00
N1010  N     0.68494   0.48599   0.73788   0.00000  Uiso   1.00
O1011  O     0.79482   0.57142   0.74686   0.00000  Uiso   1.00
O1012  O     0.87185   0.42858   0.75314   0.00000  Uiso   1.00
O1013  O     0.89496   0.58086   0.75502   0.00000  Uiso   1.00
O1014  O     0.77171   0.41914   0.74497   0.00000  Uiso   1.00
O1015  O     0.75518   0.49263   0.80854   0.00000  Uiso   1.00
O1016  O     0.91149   0.50737   0.69145   0.00000  Uiso   1.00
O1017  O     0.85532   0.50207   0.81671   0.00000  Uiso   1.00
O1018  O     0.81134   0.49793   0.68329   0.00000  Uiso   1.00
O1019  O     0.69768   0.36079   0.50700   0.00000  Uiso   1.00
H1020  H     0.69407   0.33781   0.97948   0.00000  Uiso   1.00
O1021  O     0.68502   0.54640   0.95924   0.00000  Uiso   1.00
H1022  H     0.70087   0.57539   0.97992   0.00000  Uiso   1.00
O1023  O     0.79056   0.49027   0.60816   0.00000  Uiso   1.00
H1024  H     0.77119   0.50124   0.58702   0.00000  Uiso   1.00
O1025  O     0.84693   0.54883   0.90292   0.00000  Uiso   1.00
H1026  H     0.85362   0.56584   0.93212   0.00000  Uiso   1.00
O1027  O     0.66995   0.53931   0.62341   0.00000  Uiso   1.00
H1028  H     0.67109   0.50689   0.63536   0.00000  Uiso   1.00
O1029  O     0.67907   0.41348   0.86371   0.00000  Uiso   1.00
H1030  H     0.67029   0.44148   0.85005   0.00000  Uiso   1.00
O1031  O     0.77969   0.39955   0.56240   0.00000  Uiso   1.00
H1032  H     0.74010   0.37302   0.56839   0.00000  Uiso   1.00
O1033  O     0.94058   0.50731   0.90643   0.00000  Uiso   1.00
H1034  H     0.91611   0.47768   0.89069   0.00000  Uiso   1.00
O1035  O     0.89205   0.35467   0.78322   0.00000  Uiso   1.00
H1036  H     0.91105   0.66584   0.79631   0.00000  Uiso   1.00
O1037  O     0.77450   0.64533   0.71697   0.00000  Uiso   1.00
H1038  H     0.75571   0.33417   0.70372   0.00000  Uiso   1.00
N1039  N     0.99837   0.54283   0.79950   0.00000  Uiso   1.00
H1040  H     0.71066   0.55182   0.79918   0.00000  Uiso   1.00
C1041  C     0.97613   0.59074   0.81282   0.00000  Uiso   1.00
H1042  H     0.99549   0.61218   0.84117   0.00000  Uiso   1.00
H1043  H     0.92520   0.58291   0.82469   0.00000  Uiso   1.00
H1044  H     0.99230   0.61665   0.78515   0.00000  Uiso   1.00
N1045  N     0.66797   0.45656   0.70085   0.00000  Uiso   1.00
H1046  H     0.95576   0.44787   0.70094   0.00000  Uiso   1.00
C1047  C     0.69036   0.40873   0.68766   0.00000  Uiso   1.00
H1048  H     0.67058   0.38692   0.65961   0.00000  Uiso   1.00
H1049  H     0.67469   0.38312   0.71552   0.00000  Uiso   1.00
H1050  H     0.74127   0.41674   0.67533   0.00000  Uiso   1.00
C1051  C     0.18125   0.93331   0.75245   0.00000  Uiso   1.00
C1052  C     0.15205   0.73336   0.74762   0.00000  Uiso   1.00
C1053  C     0.11823   0.75798   0.52515   0.00000  Uiso   1.00
C1054  C     0.24960   0.83827   0.95141   0.00000  Uiso   1.00
C1055  C     0.07792   0.73789   0.99623   0.00000  Uiso   1.00
C1056  C     0.29154   0.85603   0.97891   0.00000  Uiso   1.00
C1057  C     0.18574   0.98972   0.75828   0.00000  Uiso   1.00
C1058  C     0.14750   0.67695   0.74188   0.00000  Uiso   1.00
C1059  C     0.12810   0.82699   0.83281   0.00000  Uiso   1.00
C1060  C     0.20501   0.83749   0.66655   0.00000  Uiso   1.00
C1061  C     0.10452   0.81181   0.87886   0.00000  Uiso   1.00
C1062  C     0.22873   0.84042   0.61757   0.00000  Uiso   1.00
C1063  C     0.04263   0.74790   0.93062   0.00000  Uiso   1.00
C1064  C     0.31313   0.86376   0.55309   0.00000  Uiso   1.00
C1065  C     0.05262   0.76979   0.89073   0.00000  Uiso   1.00
C1066  C     0.29287   0.85764   0.59837   0.00000  Uiso   1.00
C1067  C     0.14215   0.83290   0.90909   0.00000  Uiso   1.00
C1068  C     0.18656   0.82799   0.58942   0.00000  Uiso   1.00
C1069  C     0.13882   0.80420   0.94519   0.00000  Uiso   1.00
C1070  C     0.20904   0.82488   0.54261   0.00000  Uiso   1.00
C1071  C     0.08603   0.76312   0.95746   0.00000  Uiso   1.00
C1072  C     0.27165   0.84909   0.52481   0.00000  Uiso   1.00
C1073  C     0.18604   0.81536   0.96959   0.00000  Uiso   1.00
C1074  C     0.16983   0.80035   0.51329   0.00000  Uiso   1.00
Cu1075 Cu    0.10737   0.82775   0.74516   0.00000  Uiso   1.00
Cu1076 Cu    0.22596   0.83892   0.75483   0.00000  Uiso   1.00
H1077  H     0.00089   0.71775   0.93951   0.00000  Uiso   1.00
H1078  H     0.02908   0.87828   0.54047   0.00000  Uiso   1.00
N1079  N     0.31506   0.84735   0.76212   0.00000  Uiso   1.00
N1080  N     0.01827   0.81932   0.73788   0.00000  Uiso   1.00
O1081  O     0.12815   0.90476   0.74686   0.00000  Uiso   1.00
O1082  O     0.20518   0.76191   0.75314   0.00000  Uiso   1.00
O1083  O     0.22829   0.91420   0.75502   0.00000  Uiso   1.00
O1084  O     0.10504   0.75247   0.74497   0.00000  Uiso   1.00
O1085  O     0.08851   0.82597   0.80854   0.00000  Uiso   1.00
O1086  O     0.24482   0.84070   0.69145   0.00000  Uiso   1.00
O1087  O     0.18866   0.83540   0.81671   0.00000  Uiso   1.00
O1088  O     0.14468   0.83126   0.68329   0.00000  Uiso   1.00
O1089  O     0.03102   0.69412   0.50700   0.00000  Uiso   1.00
H1090  H     0.02740   0.67115   0.97948   0.00000  Uiso   1.00
O1091  O     0.01835   0.87973   0.95924   0.00000  Uiso   1.00
H1092  H     0.03420   0.90873   0.97992   0.00000  Uiso   1.00
O1093  O     0.12389   0.82361   0.60816   0.00000  Uiso   1.00
H1094  H     0.10452   0.83457   0.58702   0.00000  Uiso   1.00
O1095  O     0.18026   0.88217   0.90292   0.00000  Uiso   1.00
H1096  H     0.18695   0.89918   0.93212   0.00000  Uiso   1.00
O1097  O     0.00328   0.87265   0.62341   0.00000  Uiso   1.00
H1098  H     0.00443   0.84023   0.63536   0.00000  Uiso   1.00
O1099  O     0.01240   0.74681   0.86371   0.00000  Uiso   1.00
H1100  H     0.00362   0.77481   0.85005   0.00000  Uiso   1.00
O1101  O     0.11303   0.73288   0.56240   0.00000  Uiso   1.00
H1102  H     0.07343   0.70635   0.56839   0.00000  Uiso   1.00
O1103  O     0.27391   0.84064   0.90643   0.00000  Uiso   1.00
H1104  H     0.24945   0.81102   0.89069   0.00000  Uiso   1.00
O1105  O     0.22538   0.68801   0.78322   0.00000  Uiso   1.00
H1106  H     0.24438   0.99917   0.79631   0.00000  Uiso   1.00
O1107  O     0.10783   0.97866   0.71697   0.00000  Uiso   1.00
H1108  H     0.08904   0.66750   0.70372   0.00000  Uiso   1.00
N1109  N     0.33170   0.87616   0.79950   0.00000  Uiso   1.00
H1110  H     0.04400   0.88515   0.79918   0.00000  Uiso   1.00
C1111  C     0.30947   0.92408   0.81282   0.00000  Uiso   1.00
H1112  H     0.32882   0.94552   0.84117   0.00000  Uiso   1.00
H1113  H     0.25854   0.91624   0.82469   0.00000  Uiso   1.00
H1114  H     0.32563   0.94999   0.78515   0.00000  Uiso   1.00
N1115  N     0.00130   0.78990   0.70085   0.00000  Uiso   1.00
H1116  H     0.28910   0.78120   0.70094   0.00000  Uiso   1.00
C1117  C     0.02370   0.74206   0.68766   0.00000  Uiso   1.00
H1118  H     0.00391   0.72025   0.65961   0.00000  Uiso   1.00
H1119  H     0.00802   0.71645   0.71552   0.00000  Uiso   1.00
H1120  H     0.07461   0.75007   0.67533   0.00000  Uiso   1.00
C1121  C     0.51459   0.93331   0.75245   0.00000  Uiso   1.00
C1122  C     0.48538   0.73336   0.74762   0.00000  Uiso   1.00
C1123  C     0.45157   0.75798   0.52515   0.00000  Uiso   1.00
C1124  C     0.58293   0.83827   0.95141   0.00000  Uiso   1.00
C1125  C     0.41125   0.73789   0.99623   0.00000  Uiso   1.00
C1126  C     0.62487   0.85603   0.97891   0.00000  Uiso   1.00
C1127  C     0.51907   0.98972   0.75828   0.00000  Uiso   1.00
C1128  C     0.48083   0.67695   0.74188   0.00000  Uiso   1.00
C1129  C     0.46143   0.82699   0.83281   0.00000  Uiso   1.00
C1130  C     0.53835   0.83749   0.66655   0.00000  Uiso   1.00
C1131  C     0.43785   0.81181   0.87886   0.00000  Uiso   1.00
C1132  C     0.56206   0.84042   0.61757   0.00000  Uiso   1.00
C1133  C     0.37596   0.74790   0.93062   0.00000  Uiso   1.00
C1134  C     0.64646   0.86376   0.55309   0.00000  Uiso   1.00
C1135  C     0.38595   0.76979   0.89073   0.00000  Uiso   1.00
C1136  C     0.62621   0.85764   0.59837   0.00000  Uiso   1.00
C1137  C     0.47548   0.83290   0.90909   0.00000  Uiso   1.00
C1138  C     0.51989   0.82799   0.58942   0.00000  Uiso   1.00
C1139  C     0.47215   0.80420   0.94519   0.00000  Uiso   1.00
C1140  C     0.54238   0.82488   0.54261   0.00000  Uiso   1.00
C1141  C     0.41936   0.76312   0.95746   0.00000  Uiso   1.00
C1142  C     0.60498   0.84909   0.52481   0.00000  Uiso   1.00
C1143  C     0.51938   0.81536   0.96959   0.00000  Uiso   1.00
C1144  C     0.50316   0.80035   0.51329   0.00000  Uiso   1.00
Cu1145 Cu    0.44071   0.82775   0.74516   0.00000  Uiso   1.00
Cu1146 Cu    0.55929   0.83892   0.75483   0.00000  Uiso   1.00
H1147  H     0.33422   0.71775   0.93951   0.00000  Uiso   1.00
H1148  H     0.36241   0.87828   0.54047   0.00000  Uiso   1.00
N1149  N     0.64839   0.84735   0.76212   0.00000  Uiso   1.00
N1150  N     0.35161   0.81932   0.73788   0.00000  Uiso   1.00
O1151  O     0.46148   0.90476   0.74686   0.00000  Uiso   1.00
O1152  O     0.53852   0.76191   0.75314   0.00000  Uiso   1.00
O1153  O     0.56163   0.91420   0.75502   0.00000  Uiso   1.00
O1154  O     0.43837   0.75247   0.74497   0.00000  Uiso   1.00
O1155  O     0.42185   0.82597   0.80854   0.00000  Uiso   1.00
O1156  O     0.57815   0.84070   0.69145   0.00000  Uiso   1.00
O1157  O     0.52199   0.83540   0.81671   0.00000  Uiso   1.00
O1158  O     0.47801   0.83126   0.68329   0.00000  Uiso   1.00
O1159  O     0.36435   0.69412   0.50700   0.00000  Uiso   1.00
H1160  H     0.36074   0.67115   0.97948   0.00000  Uiso   1.00
O1161  O     0.35168   0.87973   0.95924   0.00000  Uiso   1.00
H1162  H     0.36753   0.90873   0.97992   0.00000  Uiso   1.00
O1163  O     0.45722   0.82361   0.60816   0.00000  Uiso   1.00
H1164  H     0.43786   0.83457   0.58702   0.00000  Uiso   1.00
O1165  O     0.51360   0.88217   0.90292   0.00000  Uiso   1.00
H1166  H     0.52029   0.89918   0.93212   0.00000  Uiso   1.00
O1167  O     0.33661   0.87265   0.62341   0.00000  Uiso   1.00
H1168  H     0.33776   0.84023   0.63536   0.00000  Uiso   1.00
O1169  O     0.34573   0.74681   0.86371   0.00000  Uiso   1.00
H1170  H     0.33696   0.77481   0.85005   0.00000  Uiso   1.00
O1171  O     0.44636   0.73288   0.56240   0.00000  Uiso   1.00
H1172  H     0.40677   0.70635   0.56839   0.00000  Uiso   1.00
O1173  O     0.60724   0.84064   0.90643   0.00000  Uiso   1.00
H1174  H     0.58278   0.81102   0.89069   0.00000  Uiso   1.00
O1175  O     0.55872   0.68801   0.78322   0.00000  Uiso   1.00
H1176  H     0.57771   0.99917   0.79631   0.00000  Uiso   1.00
O1177  O     0.44116   0.97866   0.71697   0.00000  Uiso   1.00
H1178  H     0.42237   0.66750   0.70372   0.00000  Uiso   1.00
N1179  N     0.66503   0.87616   0.79950   0.00000  Uiso   1.00
H1180  H     0.37733   0.88515   0.79918   0.00000  Uiso   1.00
C1181  C     0.64280   0.92408   0.81282   0.00000  Uiso   1.00
H1182  H     0.66216   0.94552   0.84117   0.00000  Uiso   1.00
H1183  H     0.59187   0.91624   0.82469   0.00000  Uiso   1.00
H1184  H     0.65897   0.94999   0.78515   0.00000  Uiso   1.00
N1185  N     0.33463   0.78990   0.70085   0.00000  Uiso   1.00
H1186  H     0.62243   0.78120   0.70094   0.00000  Uiso   1.00
C1187  C     0.35703   0.74206   0.68766   0.00000  Uiso   1.00
H1188  H     0.33724   0.72025   0.65961   0.00000  Uiso   1.00
H1189  H     0.34135   0.71645   0.71552   0.00000  Uiso   1.00
H1190  H     0.40794   0.75007   0.67533   0.00000  Uiso   1.00
C1191  C     0.84792   0.93331   0.75245   0.00000  Uiso   1.00
C1192  C     0.81872   0.73336   0.74762   0.00000  Uiso   1.00
C1193  C     0.78490   0.75798   0.52515   0.00000  Uiso   1.00
C1194  C     0.91627   0.83827   0.95141   0.00000  Uiso   1.00
C1195  C     0.74459   0.73789   0.99623   0.00000  Uiso   1.00
C1196  C     0.95820   0.85603   0.97891   0.00000  Uiso   1.00
C1197  C     0.85241   0.98972   0.75828   0.00000  Uiso   1.00
C1198  C     0.81417   0.67695   0.74188   0.00000  Uiso   1.00
C1199  C     0.79476   0.82699   0.83281   0.00000  Uiso   1.00
C1200  C     0.87168   0.83749   0.66655   0.00000  Uiso   1.00
C1201  C     0.77119   0.81181   0.87886   0.00000  Uiso   1.00
C1202  C     0.89539   0.84042   0.61757   0.00000  Uiso   1.00
C1203  C     0.70929   0.74790   0.93062   0.00000  Uiso   1.00
C1204  C     0.97979   0.86376   0.55309   0.00000  Uiso   1.00
C1205  C     0.71929   0.76979   0.89073   0.00000  Uiso   1.00
C1206  C     0.95954   0.85764   0.59837   0.00000  Uiso   1.00
C1207  C     0.80882   0.83290   0.90909   0.00000  Uiso   1.00
C1208  C     0.85322   0.82799   0.58942   0.00000  Uiso   1.00
C1209  C     0.80548   0.80420   0.94519   0.00000  Uiso   1.00
C1210  C     0.87571   0.82488   0.54261   0.00000  Uiso   1.00
C1211  C     0.75270   0.76312   0.95746   0.00000  Uiso   1.00
C1212  C     0.93831   0.84909   0.52481   0.00000  Uiso   1.00
C1213  C     0.85271   0.81536   0.96959   0.00000  Uiso   1.00
C1214  C     0.83650   0.80035   0.51329   0.00000  Uiso   1.00
Cu1215 Cu    0.77404   0.82775   0.74516   0.00000  Uiso   1.00
Cu1216 Cu    0.89263   0.83892   0.75483   0.00000  Uiso   1.00
H1217  H     0.66755   0.71775   0.93951   0.00000  Uiso   1.00
H1218  H     0.69574   0.87828   0.54047   0.00000  Uiso   1.00
N1219  N     0.98173   0.84735   0.76212   0.00000  Uiso   1.00
N1220  N     0.68494   0.81932   0.73788   0.00000  Uiso   1.00
O1221  O     0.79482   0.90476   0.74686   0.00000  Uiso   1.00
O1222  O     0.87185   0.76191   0.75314   0.00000  Uiso   1.00
O1223  O     0.89496   0.91420   0.75502   0.00000  Uiso   1.00
O1224  O     0.77171   0.75247   0.74497   0.00000  Uiso   1.00
O1225  O     0.75518   0.82597   0.80854   0.00000  Uiso   1.00
O1226  O     0.91149   0.84070   0.69145   0.00000  Uiso   1.00
O1227  O     0.85532   0.83540   0.81671   0.00000  Uiso   1.00
O1228  O     0.81134   0.83126   0.68329   0.00000  Uiso   1.00
O1229  O     0.69768   0.69412   0.50700   0.00000  Uiso   1.00
H1230  H     0.69407   0.67115   0.97948   0.00000  Uiso   1.00
O1231  O     0.68502   0.87973   0.95924   0.00000  Uiso   1.00
H1232  H     0.70087   0.90873   0.97992   0.00000  Uiso   1.00
O1233  O     0.79056   0.82361   0.60816   0.00000  Uiso   1.00
H1234  H     0.77119   0.83457   0.58702   0.00000  Uiso   1.00
O1235  O     0.84693   0.88217   0.90292   0.00000  Uiso   1.00
H1236  H     0.85362   0.89918   0.93212   0.00000  Uiso   1.00
O1237  O     0.66995   0.87265   0.62341   0.00000  Uiso   1.00
H1238  H     0.67109   0.84023   0.63536   0.00000  Uiso   1.00
O1239  O     0.67907   0.74681   0.86371   0.00000  Uiso   1.00
H1240  H     0.67029   0.77481   0.85005   0.00000  Uiso   1.00
O1241  O     0.77969   0.73288   0.56240   0.00000  Uiso   1.00
H1242  H     0.74010   0.70635   0.56839   0.00000  Uiso   1.00
O1243  O     0.94058   0.84064   0.90643   0.00000  Uiso   1.00
H1244  H     0.91611   0.81102   0.89069   0.00000  Uiso   1.00
O1245  O     0.89205   0.68801   0.78322   0.00000  Uiso   1.00
H1246  H     0.91105   0.99917   0.79631   0.00000  Uiso   1.00
O1247  O     0.77450   0.97866   0.71697   0.00000  Uiso   1.00
H1248  H     0.75571   0.66750   0.70372   0.00000  Uiso   1.00
N1249  N     0.99837   0.87616   0.79950   0.00000  Uiso   1.00
H1250  H     0.71066   0.88515   0.79918   0.00000  Uiso   1.00
C1251  C     0.97613   0.92408   0.81282   0.00000  Uiso   1.00
H1252  H     0.99549   0.94552   0.84117   0.00000  Uiso   1.00
H1253  H     0.92520   0.91624   0.82469   0.00000  Uiso   1.00
H1254  H     0.99230   0.94999   0.78515   0.00000  Uiso   1.00
N1255  N     0.66797   0.78990   0.70085   0.00000  Uiso   1.00
H1256  H     0.95576   0.78120   0.70094   0.00000  Uiso   1.00
C1257  C     0.69036   0.74206   0.68766   0.00000  Uiso   1.00
H1258  H     0.67058   0.72025   0.65961   0.00000  Uiso   1.00
H1259  H     0.67469   0.71645   0.71552   0.00000  Uiso   1.00
H1260  H     0.74127   0.75007   0.67533   0.00000  Uiso   1.00
loop_
_geom_bond_atom_site_label_1
_geom_bond_atom_site_label_2
_geom_bond_distance
_geom_bond_site_symmetry_2
_ccdc_geom_bond_type
C1     O33     1.315   .     A
C1     O31     1.298   .     A
C1     C7      1.454   .     S
C2     O34     1.315   .     A
C2     O32     1.298   .     A
C2     C8      1.454   .     S
C3     C24     1.420   .     A
C3     O51     1.386   .     S
C3     C635    1.412   1_554 S
C4     O53     1.380   .     S
C4     C23     1.426   .     A
C4     C6      1.399   .     A
C5     C21     1.415   .     A
C5     C633    1.412   .     S
C5     O669    1.381   .     S
C6     C652    1.417   .     S
C6     O111    1.381   .     S
C7     C218    1.361   .     S
C7     O265    1.387   .     S
C8     C427    1.361   1_545 S
C8     O477    1.387   1_545 S
C9     C11     1.480   .     S
C9     O35     1.312   .     A
C9     O37     1.317   .     A
C10    O38     1.319   .     A
C10    C12     1.497   .     S
C10    O36     1.319   .     A
C11    C15     1.419   .     A
C11    C17     1.403   .     A
C12    C16     1.417   .     A
C12    C18     1.415   .     A
C13    C15     1.392   .     A
C13    C21     1.406   .     A
C13    H27     1.082   .     S
C14    C22     1.405   .     A
C14    C16     1.394   .     A
C14    H98     1.081   .     S
C15    O49     1.378   .     S
C16    O117    1.371   .     S
C17    C19     1.423   .     A
C17    O45     1.382   .     S
C18    C20     1.422   .     A
C18    O43     1.381   .     S
C19    C21     1.418   .     A
C19    C23     1.423   .     A
C20    C24     1.423   .     A
C20    C22     1.415   .     A
C22    C636    1.417   1_554 S
C23    C654    1.411   .     S
C24    C653    1.411   1_554 S
Cu25   O31     1.964   .     S
Cu25   N30     2.054   .     S
Cu25   O38     1.913   .     S
Cu25   O34     1.971   .     S
Cu25   Cu26    2.734   .     S
Cu25   O35     1.926   .     S
Cu26   O37     1.913   .     S
Cu26   O33     1.971   .     S
Cu26   O32     1.964   .     S
Cu26   O36     1.926   .     S
Cu26   N29     2.054   .     S
H28    C154    1.081   1_455 S
N29    N59     1.387   .     S
N29    N100    1.280   .     S
N30    N65     1.386   .     S
N30    N169    1.280   1_455 S
O39    C635    1.381   1_554 S
O39    H670    0.990   1_554 S
H40    O669    0.990   .     S
O41    H42     0.989   .     S
O41    C146    1.381   1_455 S
O43    H44     0.991   .     S
O45    H46     0.991   .     S
O47    H48     0.989   .     S
O47    C156    1.371   1_455 S
O49    H50     0.986   .     S
O51    H52     0.990   .     S
O53    H54     0.990   .     S
O55    C427    1.387   1_545 S
O55    H476    0.989   1_545 S
H56    O265    0.989   .     S
O57    C218    1.387   .     S
O57    H268    0.989   .     S
H58    O477    0.989   1_545 S
N59    C61     1.444   .     S
N59    H130    1.006   .     S
H60    N199    1.006   1_455 S
C61    H64     1.111   .     S
C61    H63     1.101   .     S
C61    H62     1.112   .     S
N65    C67     1.443   .     S
N65    H206    1.005   1_455 S
H66    N135    1.005   .     S
C67    H70     1.102   .     S
C67    H68     1.112   .     S
C67    H69     1.111   .     S
C71    O103    1.315   .     A
C71    O101    1.298   .     A
C71    C77     1.454   .     S
C72    O104    1.315   .     A
C72    O102    1.298   .     A
C72    C78     1.454   .     S
C73    C94     1.420   .     A
C73    O121    1.386   .     S
C73    C705    1.412   1_554 S
C74    O123    1.380   .     S
C74    C93     1.426   .     A
C74    C76     1.399   .     A
C75    C91     1.415   .     A
C75    C703    1.412   .     S
C75    O739    1.381   .     S
C76    C722    1.417   .     S
C76    O181    1.381   .     S
C77    C288    1.361   .     S
C77    O335    1.387   .     S
C78    C497    1.361   1_545 S
C78    O547    1.387   1_545 S
C79    C81     1.480   .     S
C79    O105    1.312   .     A
C79    O107    1.317   .     A
C80    O108    1.319   .     A
C80    C82     1.497   .     S
C80    O106    1.319   .     A
C81    C85     1.419   .     A
C81    C87     1.403   .     A
C82    C86     1.417   .     A
C82    C88     1.415   .     A
C83    C85     1.392   .     A
C83    C91     1.406   .     A
C83    H97     1.082   .     S
C84    C92     1.405   .     A
C84    C86     1.394   .     A
C84    H168    1.081   .     S
C85    O119    1.378   .     S
C86    O187    1.371   .     S
C87    C89     1.423   .     A
C87    O115    1.382   .     S
C88    C90     1.422   .     A
C88    O113    1.381   .     S
C89    C91     1.418   .     A
C89    C93     1.423   .     A
C90    C94     1.423   .     A
C90    C92     1.415   .     A
C92    C706    1.417   1_554 S
C93    C724    1.411   .     S
C94    C723    1.411   1_554 S
Cu95   O101    1.964   .     S
Cu95   N100    2.054   .     S
Cu95   O108    1.913   .     S
Cu95   O104    1.971   .     S
Cu95   Cu96    2.734   .     S
Cu95   O105    1.926   .     S
Cu96   O107    1.913   .     S
Cu96   O103    1.971   .     S
Cu96   O102    1.964   .     S
Cu96   O106    1.926   .     S
Cu96   N99     2.054   .     S
N99    N129    1.387   .     S
N99    N170    1.280   .     S
N100   N135    1.386   .     S
O109   C705    1.381   1_554 S
O109   H740    0.990   1_554 S
H110   O739    0.990   .     S
O111   H112    0.989   .     S
O113   H114    0.991   .     S
O115   H116    0.991   .     S
O117   H118    0.989   .     S
O119   H120    0.986   .     S
O121   H122    0.990   .     S
O123   H124    0.990   .     S
O125   C497    1.387   1_545 S
O125   H546    0.989   1_545 S
H126   O335    0.989   .     S
O127   C288    1.387   .     S
O127   H338    0.989   .     S
H128   O547    0.989   1_545 S
N129   C131    1.444   .     S
N129   H200    1.006   .     S
C131   H134    1.111   .     S
C131   H133    1.101   .     S
C131   H132    1.112   .     S
N135   C137    1.443   .     S
H136   N205    1.005   .     S
C137   H140    1.102   .     S
C137   H138    1.112   .     S
C137   H139    1.111   .     S
C141   O173    1.315   .     A
C141   O171    1.298   .     A
C141   C147    1.454   .     S
C142   O174    1.315   .     A
C142   O172    1.298   .     A
C142   C148    1.454   .     S
C143   C164    1.420   .     A
C143   O191    1.386   .     S
C143   C775    1.412   1_554 S
C144   O193    1.380   .     S
C144   C163    1.426   .     A
C144   C146    1.399   .     A
C145   C161    1.415   .     A
C145   C773    1.412   .     S
C145   O809    1.381   .     S
C146   C792    1.417   .     S
C146   O41     1.381   1_655 S
C147   C358    1.361   .     S
C147   O405    1.387   .     S
C148   C567    1.361   1_545 S
C148   O617    1.387   1_545 S
C149   C151    1.480   .     S
C149   O175    1.312   .     A
C149   O177    1.317   .     A
C150   O178    1.319   .     A
C150   C152    1.497   .     S
C150   O176    1.319   .     A
C151   C155    1.419   .     A
C151   C157    1.403   .     A
C152   C156    1.417   .     A
C152   C158    1.415   .     A
C153   C155    1.392   .     A
C153   C161    1.406   .     A
C153   H167    1.082   .     S
C154   C162    1.405   .     A
C154   C156    1.394   .     A
C154   H28     1.081   1_655 S
C155   O189    1.378   .     S
C156   O47     1.371   1_655 S
C157   C159    1.423   .     A
C157   O185    1.382   .     S
C158   C160    1.422   .     A
C158   O183    1.381   .     S
C159   C161    1.418   .     A
C159   C163    1.423   .     A
C160   C164    1.423   .     A
C160   C162    1.415   .     A
C162   C776    1.417   1_554 S
C163   C794    1.411   .     S
C164   C793    1.411   1_554 S
Cu165  O171    1.964   .     S
Cu165  N170    2.054   .     S
Cu165  O178    1.913   .     S
Cu165  O174    1.971   .     S
Cu165  Cu166   2.734   .     S
Cu165  O175    1.926   .     S
Cu166  O177    1.913   .     S
Cu166  O173    1.971   .     S
Cu166  O172    1.964   .     S
Cu166  O176    1.926   .     S
Cu166  N169    2.054   .     S
N169   N199    1.387   .     S
N169   N30     1.280   1_655 S
N170   N205    1.386   .     S
O179   C775    1.381   1_554 S
O179   H810    0.990   1_554 S
H180   O809    0.990   .     S
O181   H182    0.989   .     S
O183   H184    0.991   .     S
O185   H186    0.991   .     S
O187   H188    0.989   .     S
O189   H190    0.986   .     S
O191   H192    0.990   .     S
O193   H194    0.990   .     S
O195   C567    1.387   1_545 S
O195   H616    0.989   1_545 S
H196   O405    0.989   .     S
O197   C358    1.387   .     S
O197   H408    0.989   .     S
H198   O617    0.989   1_545 S
N199   C201    1.444   .     S
N199   H60     1.006   1_655 S
C201   H204    1.111   .     S
C201   H203    1.101   .     S
C201   H202    1.112   .     S
N205   C207    1.443   .     S
H206   N65     1.005   1_655 S
C207   H210    1.102   .     S
C207   H208    1.112   .     S
C207   H209    1.111   .     S
C211   O243    1.315   .     A
C211   O241    1.298   .     A
C211   C217    1.454   .     S
C212   O244    1.315   .     A
C212   O242    1.298   .     A
C212   C218    1.454   .     S
C213   C234    1.420   .     A
C213   O261    1.386   .     S
C213   C845    1.412   1_554 S
C214   O263    1.380   .     S
C214   C233    1.426   .     A
C214   C216    1.399   .     A
C215   C231    1.415   .     A
C215   C843    1.412   .     S
C215   O879    1.381   .     S
C216   C862    1.417   .     S
C216   O321    1.381   .     S
C217   C428    1.361   .     S
C217   O475    1.387   .     S
C219   C221    1.480   .     S
C219   O245    1.312   .     A
C219   O247    1.317   .     A
C220   O248    1.319   .     A
C220   C222    1.497   .     S
C220   O246    1.319   .     A
C221   C225    1.419   .     A
C221   C227    1.403   .     A
C222   C226    1.417   .     A
C222   C228    1.415   .     A
C223   C225    1.392   .     A
C223   C231    1.406   .     A
C223   H237    1.082   .     S
C224   C232    1.405   .     A
C224   C226    1.394   .     A
C224   H308    1.081   .     S
C225   O259    1.378   .     S
C226   O327    1.371   .     S
C227   C229    1.423   .     A
C227   O255    1.382   .     S
C228   C230    1.422   .     A
C228   O253    1.381   .     S
C229   C231    1.418   .     A
C229   C233    1.423   .     A
C230   C234    1.423   .     A
C230   C232    1.415   .     A
C232   C846    1.417   1_554 S
C233   C864    1.411   .     S
C234   C863    1.411   1_554 S
Cu235  O241    1.964   .     S
Cu235  N240    2.054   .     S
Cu235  O248    1.913   .     S
Cu235  O244    1.971   .     S
Cu235  Cu236   2.734   .     S
Cu235  O245    1.926   .     S
Cu236  O247    1.913   .     S
Cu236  O243    1.971   .     S
Cu236  O242    1.964   .     S
Cu236  O246    1.926   .     S
Cu236  N239    2.054   .     S
H238   C364    1.081   1_455 S
N239   N269    1.387   .     S
N239   N310    1.280   .     S
N240   N275    1.386   .     S
N240   N379    1.280   1_455 S
O249   C845    1.381   1_554 S
O249   H880    0.990   1_554 S
H250   O879    0.990   .     S
O251   H252    0.989   .     S
O251   C356    1.381   1_455 S
O253   H254    0.991   .     S
O255   H256    0.991   .     S
O257   H258    0.989   .     S
O257   C366    1.371   1_455 S
O259   H260    0.986   .     S
O261   H262    0.990   .     S
O263   H264    0.990   .     S
H266   O475    0.989   .     S
O267   C428    1.387   .     S
O267   H478    0.989   .     S
N269   C271    1.444   .     S
N269   H340    1.006   .     S
H270   N409    1.006   1_455 S
C271   H274    1.111   .     S
C271   H273    1.101   .     S
C271   H272    1.112   .     S
N275   C277    1.443   .     S
N275   H416    1.005   1_455 S
H276   N345    1.005   .     S
C277   H280    1.102   .     S
C277   H278    1.112   .     S
C277   H279    1.111   .     S
C281   O313    1.315   .     A
C281   O311    1.298   .     A
C281   C287    1.454   .     S
C282   O314    1.315   .     A
C282   O312    1.298   .     A
C282   C288    1.454   .     S
C283   C304    1.420   .     A
C283   O331    1.386   .     S
C283   C915    1.412   1_554 S
C284   O333    1.380   .     S
C284   C303    1.426   .     A
C284   C286    1.399   .     A
C285   C301    1.415   .     A
C285   C913    1.412   .     S
C285   O949    1.381   .     S
C286   C932    1.417   .     S
C286   O391    1.381   .     S
C287   C498    1.361   .     S
C287   O545    1.387   .     S
C289   C291    1.480   .     S
C289   O315    1.312   .     A
C289   O317    1.317   .     A
C290   O318    1.319   .     A
C290   C292    1.497   .     S
C290   O316    1.319   .     A
C291   C295    1.419   .     A
C291   C297    1.403   .     A
C292   C296    1.417   .     A
C292   C298    1.415   .     A
C293   C295    1.392   .     A
C293   C301    1.406   .     A
C293   H307    1.082   .     S
C294   C302    1.405   .     A
C294   C296    1.394   .     A
C294   H378    1.081   .     S
C295   O329    1.378   .     S
C296   O397    1.371   .     S
C297   C299    1.423   .     A
C297   O325    1.382   .     S
C298   C300    1.422   .     A
C298   O323    1.381   .     S
C299   C301    1.418   .     A
C299   C303    1.423   .     A
C300   C304    1.423   .     A
C300   C302    1.415   .     A
C302   C916    1.417   1_554 S
C303   C934    1.411   .     S
C304   C933    1.411   1_554 S
Cu305  O311    1.964   .     S
Cu305  N310    2.054   .     S
Cu305  O318    1.913   .     S
Cu305  O314    1.971   .     S
Cu305  Cu306   2.734   .     S
Cu305  O315    1.926   .     S
Cu306  O317    1.913   .     S
Cu306  O313    1.971   .     S
Cu306  O312    1.964   .     S
Cu306  O316    1.926   .     S
Cu306  N309    2.054   .     S
N309   N339    1.387   .     S
N309   N380    1.280   .     S
N310   N345    1.386   .     S
O319   C915    1.381   1_554 S
O319   H950    0.990   1_554 S
H320   O949    0.990   .     S
O321   H322    0.989   .     S
O323   H324    0.991   .     S
O325   H326    0.991   .     S
O327   H328    0.989   .     S
O329   H330    0.986   .     S
O331   H332    0.990   .     S
O333   H334    0.990   .     S
H336   O545    0.989   .     S
O337   C498    1.387   .     S
O337   H548    0.989   .     S
N339   C341    1.444   .     S
N339   H410    1.006   .     S
C341   H344    1.111   .     S
C341   H343    1.101   .     S
C341   H342    1.112   .     S
N345   C347    1.443   .     S
H346   N415    1.005   .     S
C347   H350    1.102   .     S
C347   H348    1.112   .     S
C347   H349    1.111   .     S
C351   O383    1.315   .     A
C351   O381    1.298   .     A
C351   C357    1.454   .     S
C352   O384    1.315   .     A
C352   O382    1.298   .     A
C352   C358    1.454   .     S
C353   C374    1.420   .     A
C353   O401    1.386   .     S
C353   C985    1.412   1_554 S
C354   O403    1.380   .     S
C354   C373    1.426   .     A
C354   C356    1.399   .     A
C355   C371    1.415   .     A
C355   C983    1.412   .     S
C355   O1019   1.381   .     S
C356   C1002   1.417   .     S
C356   O251    1.381   1_655 S
C357   C568    1.361   .     S
C357   O615    1.387   .     S
C359   C361    1.480   .     S
C359   O385    1.312   .     A
C359   O387    1.317   .     A
C360   O388    1.319   .     A
C360   C362    1.497   .     S
C360   O386    1.319   .     A
C361   C365    1.419   .     A
C361   C367    1.403   .     A
C362   C366    1.417   .     A
C362   C368    1.415   .     A
C363   C365    1.392   .     A
C363   C371    1.406   .     A
C363   H377    1.082   .     S
C364   C372    1.405   .     A
C364   C366    1.394   .     A
C364   H238    1.081   1_655 S
C365   O399    1.378   .     S
C366   O257    1.371   1_655 S
C367   C369    1.423   .     A
C367   O395    1.382   .     S
C368   C370    1.422   .     A
C368   O393    1.381   .     S
C369   C371    1.418   .     A
C369   C373    1.423   .     A
C370   C374    1.423   .     A
C370   C372    1.415   .     A
C372   C986    1.417   1_554 S
C373   C1004   1.411   .     S
C374   C1003   1.411   1_554 S
Cu375  O381    1.964   .     S
Cu375  N380    2.054   .     S
Cu375  O388    1.913   .     S
Cu375  O384    1.971   .     S
Cu375  Cu376   2.734   .     S
Cu375  O385    1.926   .     S
Cu376  O387    1.913   .     S
Cu376  O383    1.971   .     S
Cu376  O382    1.964   .     S
Cu376  O386    1.926   .     S
Cu376  N379    2.054   .     S
N379   N409    1.387   .     S
N379   N240    1.280   1_655 S
N380   N415    1.386   .     S
O389   C985    1.381   1_554 S
O389   H1020   0.990   1_554 S
H390   O1019   0.990   .     S
O391   H392    0.989   .     S
O393   H394    0.991   .     S
O395   H396    0.991   .     S
O397   H398    0.989   .     S
O399   H400    0.986   .     S
O401   H402    0.990   .     S
O403   H404    0.990   .     S
H406   O615    0.989   .     S
O407   C568    1.387   .     S
O407   H618    0.989   .     S
N409   C411    1.444   .     S
N409   H270    1.006   1_655 S
C411   H414    1.111   .     S
C411   H413    1.101   .     S
C411   H412    1.112   .     S
N415   C417    1.443   .     S
H416   N275    1.005   1_655 S
C417   H420    1.102   .     S
C417   H418    1.112   .     S
C417   H419    1.111   .     S
C421   O453    1.315   .     A
C421   O451    1.298   .     A
C421   C427    1.454   .     S
C422   O454    1.315   .     A
C422   O452    1.298   .     A
C422   C428    1.454   .     S
C423   C444    1.420   .     A
C423   O471    1.386   .     S
C423   C1055   1.412   1_554 S
C424   O473    1.380   .     S
C424   C443    1.426   .     A
C424   C426    1.399   .     A
C425   C441    1.415   .     A
C425   C1053   1.412   .     S
C425   O1089   1.381   .     S
C426   C1072   1.417   .     S
C426   O531    1.381   .     S
C427   C8      1.361   1_565 S
C427   O55     1.387   1_565 S
C429   C431    1.480   .     S
C429   O455    1.312   .     A
C429   O457    1.317   .     A
C430   O458    1.319   .     A
C430   C432    1.497   .     S
C430   O456    1.319   .     A
C431   C435    1.419   .     A
C431   C437    1.403   .     A
C432   C436    1.417   .     A
C432   C438    1.415   .     A
C433   C435    1.392   .     A
C433   C441    1.406   .     A
C433   H447    1.082   .     S
C434   C442    1.405   .     A
C434   C436    1.394   .     A
C434   H518    1.081   .     S
C435   O469    1.378   .     S
C436   O537    1.371   .     S
C437   C439    1.423   .     A
C437   O465    1.382   .     S
C438   C440    1.422   .     A
C438   O463    1.381   .     S
C439   C441    1.418   .     A
C439   C443    1.423   .     A
C440   C444    1.423   .     A
C440   C442    1.415   .     A
C442   C1056   1.417   1_554 S
C443   C1074   1.411   .     S
C444   C1073   1.411   1_554 S
Cu445  O451    1.964   .     S
Cu445  N450    2.054   .     S
Cu445  O458    1.913   .     S
Cu445  O454    1.971   .     S
Cu445  Cu446   2.734   .     S
Cu445  O455    1.926   .     S
Cu446  O457    1.913   .     S
Cu446  O453    1.971   .     S
Cu446  O452    1.964   .     S
Cu446  O456    1.926   .     S
Cu446  N449    2.054   .     S
H448   C574    1.081   1_455 S
N449   N479    1.387   .     S
N449   N520    1.280   .     S
N450   N485    1.386   .     S
N450   N589    1.280   1_455 S
O459   C1055   1.381   1_554 S
O459   H1090   0.990   1_554 S
H460   O1089   0.990   .     S
O461   H462    0.989   .     S
O461   C566    1.381   1_455 S
O463   H464    0.991   .     S
O465   H466    0.991   .     S
O467   H468    0.989   .     S
O467   C576    1.371   1_455 S
O469   H470    0.986   .     S
O471   H472    0.990   .     S
O473   H474    0.990   .     S
H476   O55     0.989   1_565 S
O477   C8      1.387   1_565 S
O477   H58     0.989   1_565 S
N479   C481    1.444   .     S
N479   H550    1.006   .     S
H480   N619    1.006   1_455 S
C481   H484    1.111   .     S
C481   H483    1.101   .     S
C481   H482    1.112   .     S
N485   C487    1.443   .     S
N485   H626    1.005   1_455 S
H486   N555    1.005   .     S
C487   H490    1.102   .     S
C487   H488    1.112   .     S
C487   H489    1.111   .     S
C491   O523    1.315   .     A
C491   O521    1.298   .     A
C491   C497    1.454   .     S
C492   O524    1.315   .     A
C492   O522    1.298   .     A
C492   C498    1.454   .     S
C493   C514    1.420   .     A
C493   O541    1.386   .     S
C493   C1125   1.412   1_554 S
C494   O543    1.380   .     S
C494   C513    1.426   .     A
C494   C496    1.399   .     A
C495   C511    1.415   .     A
C495   C1123   1.412   .     S
C495   O1159   1.381   .     S
C496   C1142   1.417   .     S
C496   O601    1.381   .     S
C497   C78     1.361   1_565 S
C497   O125    1.387   1_565 S
C499   C501    1.480   .     S
C499   O525    1.312   .     A
C499   O527    1.317   .     A
C500   O528    1.319   .     A
C500   C502    1.497   .     S
C500   O526    1.319   .     A
C501   C505    1.419   .     A
C501   C507    1.403   .     A
C502   C506    1.417   .     A
C502   C508    1.415   .     A
C503   C505    1.392   .     A
C503   C511    1.406   .     A
C503   H517    1.082   .     S
C504   C512    1.405   .     A
C504   C506    1.394   .     A
C504   H588    1.081   .     S
C505   O539    1.378   .     S
C506   O607    1.371   .     S
C507   C509    1.423   .     A
C507   O535    1.382   .     S
C508   C510    1.422   .     A
C508   O533    1.381   .     S
C509   C511    1.418   .     A
C509   C513    1.423   .     A
C510   C514    1.423   .     A
C510   C512    1.415   .     A
C512   C1126   1.417   1_554 S
C513   C1144   1.411   .     S
C514   C1143   1.411   1_554 S
Cu515  O521    1.964   .     S
Cu515  N520    2.054   .     S
Cu515  O528    1.913   .     S
Cu515  O524    1.971   .     S
Cu515  Cu516   2.734   .     S
Cu515  O525    1.926   .     S
Cu516  O527    1.913   .     S
Cu516  O523    1.971   .     S
Cu516  O522    1.964   .     S
Cu516  O526    1.926   .     S
Cu516  N519    2.054   .     S
N519   N549    1.387   .     S
N519   N590    1.280   .     S
N520   N555    1.386   .     S
O529   C1125   1.381   1_554 S
O529   H1160   0.990   1_554 S
H530   O1159   0.990   .     S
O531   H532    0.989   .     S
O533   H534    0.991   .     S
O535   H536    0.991   .     S
O537   H538    0.989   .     S
O539   H540    0.986   .     S
O541   H542    0.990   .     S
O543   H544    0.990   .     S
H546   O125    0.989   1_565 S
O547   C78     1.387   1_565 S
O547   H128    0.989   1_565 S
N549   C551    1.444   .     S
N549   H620    1.006   .     S
C551   H554    1.111   .     S
C551   H553    1.101   .     S
C551   H552    1.112   .     S
N555   C557    1.443   .     S
H556   N625    1.005   .     S
C557   H560    1.102   .     S
C557   H558    1.112   .     S
C557   H559    1.111   .     S
C561   O593    1.315   .     A
C561   O591    1.298   .     A
C561   C567    1.454   .     S
C562   O594    1.315   .     A
C562   O592    1.298   .     A
C562   C568    1.454   .     S
C563   C584    1.420   .     A
C563   O611    1.386   .     S
C563   C1195   1.412   1_554 S
C564   O613    1.380   .     S
C564   C583    1.426   .     A
C564   C566    1.399   .     A
C565   C581    1.415   .     A
C565   C1193   1.412   .     S
C565   O1229   1.381   .     S
C566   C1212   1.417   .     S
C566   O461    1.381   1_655 S
C567   C148    1.361   1_565 S
C567   O195    1.387   1_565 S
C569   C571    1.480   .     S
C569   O595    1.312   .     A
C569   O597    1.317   .     A
C570   O598    1.319   .     A
C570   C572    1.497   .     S
C570   O596    1.319   .     A
C571   C575    1.419   .     A
C571   C577    1.403   .     A
C572   C576    1.417   .     A
C572   C578    1.415   .     A
C573   C575    1.392   .     A
C573   C581    1.406   .     A
C573   H587    1.082   .     S
C574   C582    1.405   .     A
C574   C576    1.394   .     A
C574   H448    1.081   1_655 S
C575   O609    1.378   .     S
C576   O467    1.371   1_655 S
C577   C579    1.423   .     A
C577   O605    1.382   .     S
C578   C580    1.422   .     A
C578   O603    1.381   .     S
C579   C581    1.418   .     A
C579   C583    1.423   .     A
C580   C584    1.423   .     A
C580   C582    1.415   .     A
C582   C1196   1.417   1_554 S
C583   C1214   1.411   .     S
C584   C1213   1.411   1_554 S
Cu585  O591    1.964   .     S
Cu585  N590    2.054   .     S
Cu585  O598    1.913   .     S
Cu585  O594    1.971   .     S
Cu585  Cu586   2.734   .     S
Cu585  O595    1.926   .     S
Cu586  O597    1.913   .     S
Cu586  O593    1.971   .     S
Cu586  O592    1.964   .     S
Cu586  O596    1.926   .     S
Cu586  N589    2.054   .     S
N589   N619    1.387   .     S
N589   N450    1.280   1_655 S
N590   N625    1.386   .     S
O599   C1195   1.381   1_554 S
O599   H1230   0.990   1_554 S
H600   O1229   0.990   .     S
O601   H602    0.989   .     S
O603   H604    0.991   .     S
O605   H606    0.991   .     S
O607   H608    0.989   .     S
O609   H610    0.986   .     S
O611   H612    0.990   .     S
O613   H614    0.990   .     S
H616   O195    0.989   1_565 S
O617   C148    1.387   1_565 S
O617   H198    0.989   1_565 S
N619   C621    1.444   .     S
N619   H480    1.006   1_655 S
C621   H624    1.111   .     S
C621   H623    1.101   .     S
C621   H622    1.112   .     S
N625   C627    1.443   .     S
H626   N485    1.005   1_655 S
C627   H630    1.102   .     S
C627   H628    1.112   .     S
C627   H629    1.111   .     S
C631   O663    1.315   .     A
C631   O661    1.298   .     A
C631   C637    1.454   .     S
C632   O664    1.315   .     A
C632   O662    1.298   .     A
C632   C638    1.454   .     S
C633   C654    1.420   .     A
C633   O681    1.386   .     S
C634   O683    1.380   .     S
C634   C653    1.426   .     A
C634   C636    1.399   .     A
C635   C651    1.415   .     A
C635   C3      1.412   1_556 S
C635   O39     1.381   1_556 S
C636   C22     1.417   1_556 S
C636   O741    1.381   .     S
C637   C848    1.361   .     S
C637   O895    1.387   .     S
C638   C1057   1.361   1_545 S
C638   O1107   1.387   1_545 S
C639   C641    1.480   .     S
C639   O665    1.312   .     A
C639   O667    1.317   .     A
C640   O668    1.319   .     A
C640   C642    1.497   .     S
C640   O666    1.319   .     A
C641   C645    1.419   .     A
C641   C647    1.403   .     A
C642   C646    1.417   .     A
C642   C648    1.415   .     A
C643   C645    1.392   .     A
C643   C651    1.406   .     A
C643   H657    1.082   .     S
C644   C652    1.405   .     A
C644   C646    1.394   .     A
C644   H728    1.081   .     S
C645   O679    1.378   .     S
C646   O747    1.371   .     S
C647   C649    1.423   .     A
C647   O675    1.382   .     S
C648   C650    1.422   .     A
C648   O673    1.381   .     S
C649   C651    1.418   .     A
C649   C653    1.423   .     A
C650   C654    1.423   .     A
C650   C652    1.415   .     A
C653   C24     1.411   1_556 S
Cu655  O661    1.964   .     S
Cu655  N660    2.054   .     S
Cu655  O668    1.913   .     S
Cu655  O664    1.971   .     S
Cu655  Cu656   2.734   .     S
Cu655  O665    1.926   .     S
Cu656  O667    1.913   .     S
Cu656  O663    1.971   .     S
Cu656  O662    1.964   .     S
Cu656  O666    1.926   .     S
Cu656  N659    2.054   .     S
H658   C784    1.081   1_455 S
N659   N689    1.387   .     S
N659   N730    1.280   .     S
N660   N695    1.386   .     S
N660   N799    1.280   1_455 S
H670   O39     0.990   1_556 S
O671   H672    0.989   .     S
O671   C776    1.381   1_455 S
O673   H674    0.991   .     S
O675   H676    0.991   .     S
O677   H678    0.989   .     S
O677   C786    1.371   1_455 S
O679   H680    0.986   .     S
O681   H682    0.990   .     S
O683   H684    0.990   .     S
O685   C1057   1.387   1_545 S
O685   H1106   0.989   1_545 S
H686   O895    0.989   .     S
O687   C848    1.387   .     S
O687   H898    0.989   .     S
H688   O1107   0.989   1_545 S
N689   C691    1.444   .     S
N689   H760    1.006   .     S
H690   N829    1.006   1_455 S
C691   H694    1.111   .     S
C691   H693    1.101   .     S
C691   H692    1.112   .     S
N695   C697    1.443   .     S
N695   H836    1.005   1_455 S
H696   N765    1.005   .     S
C697   H700    1.102   .     S
C697   H698    1.112   .     S
C697   H699    1.111   .     S
C701   O733    1.315   .     A
C701   O731    1.298   .     A
C701   C707    1.454   .     S
C702   O734    1.315   .     A
C702   O732    1.298   .     A
C702   C708    1.454   .     S
C703   C724    1.420   .     A
C703   O751    1.386   .     S
C704   O753    1.380   .     S
C704   C723    1.426   .     A
C704   C706    1.399   .     A
C705   C721    1.415   .     A
C705   C73     1.412   1_556 S
C705   O109    1.381   1_556 S
C706   C92     1.417   1_556 S
C706   O811    1.381   .     S
C707   C918    1.361   .     S
C707   O965    1.387   .     S
C708   C1127   1.361   1_545 S
C708   O1177   1.387   1_545 S
C709   C711    1.480   .     S
C709   O735    1.312   .     A
C709   O737    1.317   .     A
C710   O738    1.319   .     A
C710   C712    1.497   .     S
C710   O736    1.319   .     A
C711   C715    1.419   .     A
C711   C717    1.403   .     A
C712   C716    1.417   .     A
C712   C718    1.415   .     A
C713   C715    1.392   .     A
C713   C721    1.406   .     A
C713   H727    1.082   .     S
C714   C722    1.405   .     A
C714   C716    1.394   .     A
C714   H798    1.081   .     S
C715   O749    1.378   .     S
C716   O817    1.371   .     S
C717   C719    1.423   .     A
C717   O745    1.382   .     S
C718   C720    1.422   .     A
C718   O743    1.381   .     S
C719   C721    1.418   .     A
C719   C723    1.423   .     A
C720   C724    1.423   .     A
C720   C722    1.415   .     A
C723   C94     1.411   1_556 S
Cu725  O731    1.964   .     S
Cu725  N730    2.054   .     S
Cu725  O738    1.913   .     S
Cu725  O734    1.971   .     S
Cu725  Cu726   2.734   .     S
Cu725  O735    1.926   .     S
Cu726  O737    1.913   .     S
Cu726  O733    1.971   .     S
Cu726  O732    1.964   .     S
Cu726  O736    1.926   .     S
Cu726  N729    2.054   .     S
N729   N759    1.387   .     S
N729   N800    1.280   .     S
N730   N765    1.386   .     S
H740   O109    0.990   1_556 S
O741   H742    0.989   .     S
O743   H744    0.991   .     S
O745   H746    0.991   .     S
O747   H748    0.989   .     S
O749   H750    0.986   .     S
O751   H752    0.990   .     S
O753   H754    0.990   .     S
O755   C1127   1.387   1_545 S
O755   H1176   0.989   1_545 S
H756   O965    0.989   .     S
O757   C918    1.387   .     S
O757   H968    0.989   .     S
H758   O1177   0.989   1_545 S
N759   C761    1.444   .     S
N759   H830    1.006   .     S
C761   H764    1.111   .     S
C761   H763    1.101   .     S
C761   H762    1.112   .     S
N765   C767    1.443   .     S
H766   N835    1.005   .     S
C767   H770    1.102   .     S
C767   H768    1.112   .     S
C767   H769    1.111   .     S
C771   O803    1.315   .     A
C771   O801    1.298   .     A
C771   C777    1.454   .     S
C772   O804    1.315   .     A
C772   O802    1.298   .     A
C772   C778    1.454   .     S
C773   C794    1.420   .     A
C773   O821    1.386   .     S
C774   O823    1.380   .     S
C774   C793    1.426   .     A
C774   C776    1.399   .     A
C775   C791    1.415   .     A
C775   C143    1.412   1_556 S
C775   O179    1.381   1_556 S
C776   C162    1.417   1_556 S
C776   O671    1.381   1_655 S
C777   C988    1.361   .     S
C777   O1035   1.387   .     S
C778   C1197   1.361   1_545 S
C778   O1247   1.387   1_545 S
C779   C781    1.480   .     S
C779   O805    1.312   .     A
C779   O807    1.317   .     A
C780   O808    1.319   .     A
C780   C782    1.497   .     S
C780   O806    1.319   .     A
C781   C785    1.419   .     A
C781   C787    1.403   .     A
C782   C786    1.417   .     A
C782   C788    1.415   .     A
C783   C785    1.392   .     A
C783   C791    1.406   .     A
C783   H797    1.082   .     S
C784   C792    1.405   .     A
C784   C786    1.394   .     A
C784   H658    1.081   1_655 S
C785   O819    1.378   .     S
C786   O677    1.371   1_655 S
C787   C789    1.423   .     A
C787   O815    1.382   .     S
C788   C790    1.422   .     A
C788   O813    1.381   .     S
C789   C791    1.418   .     A
C789   C793    1.423   .     A
C790   C794    1.423   .     A
C790   C792    1.415   .     A
C793   C164    1.411   1_556 S
Cu795  O801    1.964   .     S
Cu795  N800    2.054   .     S
Cu795  O808    1.913   .     S
Cu795  O804    1.971   .     S
Cu795  Cu796   2.734   .     S
Cu795  O805    1.926   .     S
Cu796  O807    1.913   .     S
Cu796  O803    1.971   .     S
Cu796  O802    1.964   .     S
Cu796  O806    1.926   .     S
Cu796  N799    2.054   .     S
N799   N829    1.387   .     S
N799   N660    1.280   1_655 S
N800   N835    1.386   .     S
H810   O179    0.990   1_556 S
O811   H812    0.989   .     S
O813   H814    0.991   .     S
O815   H816    0.991   .     S
O817   H818    0.989   .     S
O819   H820    0.986   .     S
O821   H822    0.990   .     S
O823   H824    0.990   .     S
O825   C1197   1.387   1_545 S
O825   H1246   0.989   1_545 S
H826   O1035   0.989   .     S
O827   C988    1.387   .     S
O827   H1038   0.989   .     S
H828   O1247   0.989   1_545 S
N829   C831    1.444   .     S
N829   H690    1.006   1_655 S
C831   H834    1.111   .     S
C831   H833    1.101   .     S
C831   H832    1.112   .     S
N835   C837    1.443   .     S
H836   N695    1.005   1_655 S
C837   H840    1.102   .     S
C837   H838    1.112   .     S
C837   H839    1.111   .     S
C841   O873    1.315   .     A
C841   O871    1.298   .     A
C841   C847    1.454   .     S
C842   O874    1.315   .     A
C842   O872    1.298   .     A
C842   C848    1.454   .     S
C843   C864    1.420   .     A
C843   O891    1.386   .     S
C844   O893    1.380   .     S
C844   C863    1.426   .     A
C844   C846    1.399   .     A
C845   C861    1.415   .     A
C845   C213    1.412   1_556 S
C845   O249    1.381   1_556 S
C846   C232    1.417   1_556 S
C846   O951    1.381   .     S
C847   C1058   1.361   .     S
C847   O1105   1.387   .     S
C849   C851    1.480   .     S
C849   O875    1.312   .     A
C849   O877    1.317   .     A
C850   O878    1.319   .     A
C850   C852    1.497   .     S
C850   O876    1.319   .     A
C851   C855    1.419   .     A
C851   C857    1.403   .     A
C852   C856    1.417   .     A
C852   C858    1.415   .     A
C853   C855    1.392   .     A
C853   C861    1.406   .     A
C853   H867    1.082   .     S
C854   C862    1.405   .     A
C854   C856    1.394   .     A
C854   H938    1.081   .     S
C855   O889    1.378   .     S
C856   O957    1.371   .     S
C857   C859    1.423   .     A
C857   O885    1.382   .     S
C858   C860    1.422   .     A
C858   O883    1.381   .     S
C859   C861    1.418   .     A
C859   C863    1.423   .     A
C860   C864    1.423   .     A
C860   C862    1.415   .     A
C863   C234    1.411   1_556 S
Cu865  O871    1.964   .     S
Cu865  N870    2.054   .     S
Cu865  O878    1.913   .     S
Cu865  O874    1.971   .     S
Cu865  Cu866   2.734   .     S
Cu865  O875    1.926   .     S
Cu866  O877    1.913   .     S
Cu866  O873    1.971   .     S
Cu866  O872    1.964   .     S
Cu866  O876    1.926   .     S
Cu866  N869    2.054   .     S
H868   C994    1.081   1_455 S
N869   N899    1.387   .     S
N869   N940    1.280   .     S
N870   N905    1.386   .     S
N870   N1009   1.280   1_455 S
H880   O249    0.990   1_556 S
O881   H882    0.989   .     S
O881   C986    1.381   1_455 S
O883   H884    0.991   .     S
O885   H886    0.991   .     S
O887   H888    0.989   .     S
O887   C996    1.371   1_455 S
O889   H890    0.986   .     S
O891   H892    0.990   .     S
O893   H894    0.990   .     S
H896   O1105   0.989   .     S
O897   C1058   1.387   .     S
O897   H1108   0.989   .     S
N899   C901    1.444   .     S
N899   H970    1.006   .     S
H900   N1039   1.006   1_455 S
C901   H904    1.111   .     S
C901   H903    1.101   .     S
C901   H902    1.112   .     S
N905   C907    1.443   .     S
N905   H1046   1.005   1_455 S
H906   N975    1.005   .     S
C907   H910    1.102   .     S
C907   H908    1.112   .     S
C907   H909    1.111   .     S
C911   O943    1.315   .     A
C911   O941    1.298   .     A
C911   C917    1.454   .     S
C912   O944    1.315   .     A
C912   O942    1.298   .     A
C912   C918    1.454   .     S
C913   C934    1.420   .     A
C913   O961    1.386   .     S
C914   O963    1.380   .     S
C914   C933    1.426   .     A
C914   C916    1.399   .     A
C915   C931    1.415   .     A
C915   C283    1.412   1_556 S
C915   O319    1.381   1_556 S
C916   C302    1.417   1_556 S
C916   O1021   1.381   .     S
C917   C1128   1.361   .     S
C917   O1175   1.387   .     S
C919   C921    1.480   .     S
C919   O945    1.312   .     A
C919   O947    1.317   .     A
C920   O948    1.319   .     A
C920   C922    1.497   .     S
C920   O946    1.319   .     A
C921   C925    1.419   .     A
C921   C927    1.403   .     A
C922   C926    1.417   .     A
C922   C928    1.415   .     A
C923   C925    1.392   .     A
C923   C931    1.406   .     A
C923   H937    1.082   .     S
C924   C932    1.405   .     A
C924   C926    1.394   .     A
C924   H1008   1.081   .     S
C925   O959    1.378   .     S
C926   O1027   1.371   .     S
C927   C929    1.423   .     A
C927   O955    1.382   .     S
C928   C930    1.422   .     A
C928   O953    1.381   .     S
C929   C931    1.418   .     A
C929   C933    1.423   .     A
C930   C934    1.423   .     A
C930   C932    1.415   .     A
C933   C304    1.411   1_556 S
Cu935  O941    1.964   .     S
Cu935  N940    2.054   .     S
Cu935  O948    1.913   .     S
Cu935  O944    1.971   .     S
Cu935  Cu936   2.734   .     S
Cu935  O945    1.926   .     S
Cu936  O947    1.913   .     S
Cu936  O943    1.971   .     S
Cu936  O942    1.964   .     S
Cu936  O946    1.926   .     S
Cu936  N939    2.054   .     S
N939   N969    1.387   .     S
N939   N1010   1.280   .     S
N940   N975    1.386   .     S
H950   O319    0.990   1_556 S
O951   H952    0.989   .     S
O953   H954    0.991   .     S
O955   H956    0.991   .     S
O957   H958    0.989   .     S
O959   H960    0.986   .     S
O961   H962    0.990   .     S
O963   H964    0.990   .     S
H966   O1175   0.989   .     S
O967   C1128   1.387   .     S
O967   H1178   0.989   .     S
N969   C971    1.444   .     S
N969   H1040   1.006   .     S
C971   H974    1.111   .     S
C971   H973    1.101   .     S
C971   H972    1.112   .     S
N975   C977    1.443   .     S
H976   N1045   1.005   .     S
C977   H980    1.102   .     S
C977   H978    1.112   .     S
C977   H979    1.111   .     S
C981   O1013   1.315   .     A
C981   O1011   1.298   .     A
C981   C987    1.454   .     S
C982   O1014   1.315   .     A
C982   O1012   1.298   .     A
C982   C988    1.454   .     S
C983   C1004   1.420   .     A
C983   O1031   1.386   .     S
C984   O1033   1.380   .     S
C984   C1003   1.426   .     A
C984   C986    1.399   .     A
C985   C1001   1.415   .     A
C985   C353    1.412   1_556 S
C985   O389    1.381   1_556 S
C986   C372    1.417   1_556 S
C986   O881    1.381   1_655 S
C987   C1198   1.361   .     S
C987   O1245   1.387   .     S
C989   C991    1.480   .     S
C989   O1015   1.312   .     A
C989   O1017   1.317   .     A
C990   O1018   1.319   .     A
C990   C992    1.497   .     S
C990   O1016   1.319   .     A
C991   C995    1.419   .     A
C991   C997    1.403   .     A
C992   C996    1.417   .     A
C992   C998    1.415   .     A
C993   C995    1.392   .     A
C993   C1001   1.406   .     A
C993   H1007   1.082   .     S
C994   C1002   1.405   .     A
C994   C996    1.394   .     A
C994   H868    1.081   1_655 S
C995   O1029   1.378   .     S
C996   O887    1.371   1_655 S
C997   C999    1.423   .     A
C997   O1025   1.382   .     S
C998   C1000   1.422   .     A
C998   O1023   1.381   .     S
C999   C1001   1.418   .     A
C999   C1003   1.423   .     A
C1000  C1004   1.423   .     A
C1000  C1002   1.415   .     A
C1003  C374    1.411   1_556 S
Cu1005 O1011   1.964   .     S
Cu1005 N1010   2.054   .     S
Cu1005 O1018   1.913   .     S
Cu1005 O1014   1.971   .     S
Cu1005 Cu1006  2.734   .     S
Cu1005 O1015   1.926   .     S
Cu1006 O1017   1.913   .     S
Cu1006 O1013   1.971   .     S
Cu1006 O1012   1.964   .     S
Cu1006 O1016   1.926   .     S
Cu1006 N1009   2.054   .     S
N1009  N1039   1.387   .     S
N1009  N870    1.280   1_655 S
N1010  N1045   1.386   .     S
H1020  O389    0.990   1_556 S
O1021  H1022   0.989   .     S
O1023  H1024   0.991   .     S
O1025  H1026   0.991   .     S
O1027  H1028   0.989   .     S
O1029  H1030   0.986   .     S
O1031  H1032   0.990   .     S
O1033  H1034   0.990   .     S
H1036  O1245   0.989   .     S
O1037  C1198   1.387   .     S
O1037  H1248   0.989   .     S
N1039  C1041   1.444   .     S
N1039  H900    1.006   1_655 S
C1041  H1044   1.111   .     S
C1041  H1043   1.101   .     S
C1041  H1042   1.112   .     S
N1045  C1047   1.443   .     S
H1046  N905    1.005   1_655 S
C1047  H1050   1.102   .     S
C1047  H1048   1.112   .     S
C1047  H1049   1.111   .     S
C1051  O1083   1.315   .     A
C1051  O1081   1.298   .     A
C1051  C1057   1.454   .     S
C1052  O1084   1.315   .     A
C1052  O1082   1.298   .     A
C1052  C1058   1.454   .     S
C1053  C1074   1.420   .     A
C1053  O1101   1.386   .     S
C1054  O1103   1.380   .     S
C1054  C1073   1.426   .     A
C1054  C1056   1.399   .     A
C1055  C1071   1.415   .     A
C1055  C423    1.412   1_556 S
C1055  O459    1.381   1_556 S
C1056  C442    1.417   1_556 S
C1056  O1161   1.381   .     S
C1057  C638    1.361   1_565 S
C1057  O685    1.387   1_565 S
C1059  C1061   1.480   .     S
C1059  O1085   1.312   .     A
C1059  O1087   1.317   .     A
C1060  O1088   1.319   .     A
C1060  C1062   1.497   .     S
C1060  O1086   1.319   .     A
C1061  C1065   1.419   .     A
C1061  C1067   1.403   .     A
C1062  C1066   1.417   .     A
C1062  C1068   1.415   .     A
C1063  C1065   1.392   .     A
C1063  C1071   1.406   .     A
C1063  H1077   1.082   .     S
C1064  C1072   1.405   .     A
C1064  C1066   1.394   .     A
C1064  H1148   1.081   .     S
C1065  O1099   1.378   .     S
C1066  O1167   1.371   .     S
C1067  C1069   1.423   .     A
C1067  O1095   1.382   .     S
C1068  C1070   1.422   .     A
C1068  O1093   1.381   .     S
C1069  C1071   1.418   .     A
C1069  C1073   1.423   .     A
C1070  C1074   1.423   .     A
C1070  C1072   1.415   .     A
C1073  C444    1.411   1_556 S
Cu1075 O1081   1.964   .     S
Cu1075 N1080   2.054   .     S
Cu1075 O1088   1.913   .     S
Cu1075 O1084   1.971   .     S
Cu1075 Cu1076  2.734   .     S
Cu1075 O1085   1.926   .     S
Cu1076 O1087   1.913   .     S
Cu1076 O1083   1.971   .     S
Cu1076 O1082   1.964   .     S
Cu1076 O1086   1.926   .     S
Cu1076 N1079   2.054   .     S
H1078  C1204   1.081   1_455 S
N1079  N1109   1.387   .     S
N1079  N1150   1.280   .     S
N1080  N1115   1.386   .     S
N1080  N1219   1.280   1_455 S
H1090  O459    0.990   1_556 S
O1091  H1092   0.989   .     S
O1091  C1196   1.381   1_455 S
O1093  H1094   0.991   .     S
O1095  H1096   0.991   .     S
O1097  H1098   0.989   .     S
O1097  C1206   1.371   1_455 S
O1099  H1100   0.986   .     S
O1101  H1102   0.990   .     S
O1103  H1104   0.990   .     S
H1106  O685    0.989   1_565 S
O1107  C638    1.387   1_565 S
O1107  H688    0.989   1_565 S
N1109  C1111   1.444   .     S
N1109  H1180   1.006   .     S
H1110  N1249   1.006   1_455 S
C1111  H1114   1.111   .     S
C1111  H1113   1.101   .     S
C1111  H1112   1.112   .     S
N1115  C1117   1.443   .     S
N1115  H1256   1.005   1_455 S
H1116  N1185   1.005   .     S
C1117  H1120   1.102   .     S
C1117  H1118   1.112   .     S
C1117  H1119   1.111   .     S
C1121  O1153   1.315   .     A
C1121  O1151   1.298   .     A
C1121  C1127   1.454   .     S
C1122  O1154   1.315   .     A
C1122  O1152   1.298   .     A
C1122  C1128   1.454   .     S
C1123  C1144   1.420   .     A
C1123  O1171   1.386   .     S
C1124  O1173   1.380   .     S
C1124  C1143   1.426   .     A
C1124  C1126   1.399   .     A
C1125  C1141   1.415   .     A
C1125  C493    1.412   1_556 S
C1125  O529    1.381   1_556 S
C1126  C512    1.417   1_556 S
C1126  O1231   1.381   .     S
C1127  C708    1.361   1_565 S
C1127  O755    1.387   1_565 S
C1129  C1131   1.480   .     S
C1129  O1155   1.312   .     A
C1129  O1157   1.317   .     A
C1130  O1158   1.319   .     A
C1130  C1132   1.497   .     S
C1130  O1156   1.319   .     A
C1131  C1135   1.419   .     A
C1131  C1137   1.403   .     A
C1132  C1136   1.417   .     A
C1132  C1138   1.415   .     A
C1133  C1135   1.392   .     A
C1133  C1141   1.406   .     A
C1133  H1147   1.082   .     S
C1134  C1142   1.405   .     A
C1134  C1136   1.394   .     A
C1134  H1218   1.081   .     S
C1135  O1169   1.378   .     S
C1136  O1237   1.371   .     S
C1137  C1139   1.423   .     A
C1137  O1165   1.382   .     S
C1138  C1140   1.422   .     A
C1138  O1163   1.381   .     S
C1139  C1141   1.418   .     A
C1139  C1143   1.423   .     A
C1140  C1144   1.423   .     A
C1140  C1142   1.415   .     A
C1143  C514    1.411   1_556 S
Cu1145 O1151   1.964   .     S
Cu1145 N1150   2.054   .     S
Cu1145 O1158   1.913   .     S
Cu1145 O1154   1.971   .     S
Cu1145 Cu1146  2.734   .     S
Cu1145 O1155   1.926   .     S
Cu1146 O1157   1.913   .     S
Cu1146 O1153   1.971   .     S
Cu1146 O1152   1.964   .     S
Cu1146 O1156   1.926   .     S
Cu1146 N1149   2.054   .     S
N1149  N1179   1.387   .     S
N1149  N1220   1.280   .     S
N1150  N1185   1.386   .     S
H1160  O529    0.990   1_556 S
O1161  H1162   0.989   .     S
O1163  H1164   0.991   .     S
O1165  H1166   0.991   .     S
O1167  H1168   0.989   .     S
O1169  H1170   0.986   .     S
O1171  H1172   0.990   .     S
O1173  H1174   0.990   .     S
H1176  O755    0.989   1_565 S
O1177  C708    1.387   1_565 S
O1177  H758    0.989   1_565 S
N1179  C1181   1.444   .     S
N1179  H1250   1.006   .     S
C1181  H1184   1.111   .     S
C1181  H1183   1.101   .     S
C1181  H1182   1.112   .     S
N1185  C1187   1.443   .     S
H1186  N1255   1.005   .     S
C1187  H1190   1.102   .     S
C1187  H1188   1.112   .     S
C1187  H1189   1.111   .     S
C1191  O1223   1.315   .     A
C1191  O1221   1.298   .     A
C1191  C1197   1.454   .     S
C1192  O1224   1.315   .     A
C1192  O1222   1.298   .     A
C1192  C1198   1.454   .     S
C1193  C1214   1.420   .     A
C1193  O1241   1.386   .     S
C1194  O1243   1.380   .     S
C1194  C1213   1.426   .     A
C1194  C1196   1.399   .     A
C1195  C1211   1.415   .     A
C1195  C563    1.412   1_556 S
C1195  O599    1.381   1_556 S
C1196  C582    1.417   1_556 S
C1196  O1091   1.381   1_655 S
C1197  C778    1.361   1_565 S
C1197  O825    1.387   1_565 S
C1199  C1201   1.480   .     S
C1199  O1225   1.312   .     A
C1199  O1227   1.317   .     A
C1200  O1228   1.319   .     A
C1200  C1202   1.497   .     S
C1200  O1226   1.319   .     A
C1201  C1205   1.419   .     A
C1201  C1207   1.403   .     A
C1202  C1206   1.417   .     A
C1202  C1208   1.415   .     A
C1203  C1205   1.392   .     A
C1203  C1211   1.406   .     A
C1203  H1217   1.082   .     S
C1204  C1212   1.405   .     A
C1204  C1206   1.394   .     A
C1204  H1078   1.081   1_655 S
C1205  O1239   1.378   .     S
C1206  O1097   1.371   1_655 S
C1207  C1209   1.423   .     A
C1207  O1235   1.382   .     S
C1208  C1210   1.422   .     A
C1208  O1233   1.381   .     S
C1209  C1211   1.418   .     A
C1209  C1213   1.423   .     A
C1210  C1214   1.423   .     A
C1210  C1212   1.415   .     A
C1213  C584    1.411   1_556 S
Cu1215 O1221   1.964   .     S
Cu1215 N1220   2.054   .     S
Cu1215 O1228   1.913   .     S
Cu1215 O1224   1.971   .     S
Cu1215 Cu1216  2.734   .     S
Cu1215 O1225   1.926   .     S
Cu1216 O1227   1.913   .     S
Cu1216 O1223   1.971   .     S
Cu1216 O1222   1.964   .     S
Cu1216 O1226   1.926   .     S
Cu1216 N1219   2.054   .     S
N1219  N1249   1.387   .     S
N1219  N1080   1.280   1_655 S
N1220  N1255   1.386   .     S
H1230  O599    0.990   1_556 S
O1231  H1232   0.989   .     S
O1233  H1234   0.991   .     S
O1235  H1236   0.991   .     S
O1237  H1238   0.989   .     S
O1239  H1240   0.986   .     S
O1241  H1242   0.990   .     S
O1243  H1244   0.990   .     S
H1246  O825    0.989   1_565 S
O1247  C778    1.387   1_565 S
O1247  H828    0.989   1_565 S
N1249  C1251   1.444   .     S
N1249  H1110   1.006   1_655 S
C1251  H1254   1.111   .     S
C1251  H1253   1.101   .     S
C1251  H1252   1.112   .     S
N1255  C1257   1.443   .     S
H1256  N1115   1.005   1_655 S
C1257  H1260   1.102   .     S
C1257  H1258   1.112   .     S
C1257  H1259   1.111   .     S
