data_str_m3_o1_o16_pcu_sym.144
_audit_creation_date              2020-01-03
_audit_creation_method            'Materials Studio'
_symmetry_space_group_name_H-M    'P1'
_symmetry_Int_Tables_number       1
_symmetry_cell_setting            triclinic
loop_
_symmetry_equiv_pos_as_xyz
  x,y,z
_cell_length_a                    29.6699
_cell_length_b                    31.9165
_cell_length_c                    26.7640
_cell_angle_alpha                 90.3840
_cell_angle_beta                  71.6424
_cell_angle_gamma                 89.2017
loop_
_atom_site_label
_atom_site_type_symbol
_atom_site_fract_x
_atom_site_fract_y
_atom_site_fract_z
_atom_site_U_iso_or_equiv
_atom_site_adp_type
_atom_site_occupancy
C1     C     0.16646   0.24654   0.24991   0.00000  Uiso   1.00
C2     C     0.14972   0.17912   0.49018   0.00000  Uiso   1.00
C3     C     0.16310   0.18160   0.43490   0.00000  Uiso   1.00
C4     C     0.18575   0.17848   0.01439   0.00000  Uiso   1.00
C5     C     0.23323   0.16845   0.48381   0.00000  Uiso   1.00
C6     C     0.24647   0.17314   0.42932   0.00000  Uiso   1.00
C7     C     0.21208   0.18693   0.40763   0.00000  Uiso   1.00
C8     C     0.17619   0.18644   0.06797   0.00000  Uiso   1.00
C9     C     0.25252   0.15483   0.06324   0.00000  Uiso   1.00
C10    C     0.12787   0.17608   0.40913   0.00000  Uiso   1.00
C11    C     0.20436   0.31136   0.21715   0.00000  Uiso   1.00
C12    C     0.14120   0.16969   0.35155   0.00000  Uiso   1.00
C13    C     0.20410   0.02094   0.21806   0.00000  Uiso   1.00
C14    C     0.16584   0.04252   0.25323   0.00000  Uiso   1.00
C15    C     0.12712   0.02160   0.28814   0.00000  Uiso   1.00
C16    C     0.12741   0.31168   0.28590   0.00000  Uiso   1.00
C17    C     0.16586   0.29058   0.25066   0.00000  Uiso   1.00
C18    C     0.31672   0.13371   0.22837   0.00000  Uiso   1.00
C19    C     0.03080   0.13370   0.22952   0.00000  Uiso   1.00
C20    C     0.01823   0.20067   0.26811   0.00000  Uiso   1.00
C21    C     0.30373   0.20071   0.26799   0.00000  Uiso   1.00
C22    C     0.16639   0.08676   0.25142   0.00000  Uiso   1.00
C23    C     0.19248   0.16803   0.14904   0.00000  Uiso   1.00
C24    C     0.26618   0.15599   0.00891   0.00000  Uiso   1.00
C25    C     0.20775   0.17044   0.09266   0.00000  Uiso   1.00
C26    C     0.08008   0.17241   0.43951   0.00000  Uiso   1.00
C27    C     0.06714   0.17131   0.49410   0.00000  Uiso   1.00
C28    C     0.10158   0.17312   0.01913   0.00000  Uiso   1.00
H29    H     0.27731   0.14287   0.08221   0.00000  Uiso   1.00
H30    H     0.23310   0.03728   0.19057   0.00000  Uiso   1.00
H31    H     0.09839   0.29432   0.31206   0.00000  Uiso   1.00
H32    H     0.05454   0.10748   0.21328   0.00000  Uiso   1.00
H33    H     0.03140   0.22768   0.28345   0.00000  Uiso   1.00
H34    H     0.28108   0.22774   0.28326   0.00000  Uiso   1.00
H35    H     0.30201   0.14627   0.48722   0.00000  Uiso   1.00
H36    H     0.05292   0.16834   0.42095   0.00000  Uiso   1.00
H37    H     0.09040   0.16770   0.06105   0.00000  Uiso   1.00
H38    H     0.03049   0.16706   0.01730   0.00000  Uiso   1.00
H39    H     0.22497   0.20094   0.36941   0.00000  Uiso   1.00
H40    H     0.23391   0.29439   0.18979   0.00000  Uiso   1.00
N41    N     0.04760   0.16668   0.25002   0.00000  Uiso   1.00
N42    N     0.28573   0.16665   0.25001   0.00000  Uiso   1.00
O43    O     0.12846   0.22775   0.25001   0.00000  Uiso   1.00
O44    O     0.20490   0.22774   0.25001   0.00000  Uiso   1.00
O45    O     0.10947   0.16666   0.32681   0.00000  Uiso   1.00
O46    O     0.18591   0.16665   0.32681   0.00000  Uiso   1.00
O47    O     0.12843   0.10559   0.25000   0.00000  Uiso   1.00
O48    O     0.20488   0.10558   0.25000   0.00000  Uiso   1.00
O49    O     0.14742   0.16668   0.17319   0.00000  Uiso   1.00
O50    O     0.22387   0.16667   0.17319   0.00000  Uiso   1.00
Zn51   Zn    0.11562   0.16667   0.25000   0.00000  Uiso   1.00
Zn52   Zn    0.21771   0.16666   0.25000   0.00000  Uiso   1.00
C53    C     0.08653   0.04433   0.32833   0.00000  Uiso   1.00
H54    H     0.10057   0.06665   0.35159   0.00000  Uiso   1.00
H55    H     0.06442   0.06157   0.30841   0.00000  Uiso   1.00
H56    H     0.06305   0.02227   0.35631   0.00000  Uiso   1.00
C57    C     0.30239   0.09737   0.20148   0.00000  Uiso   1.00
H58    H     0.00056   0.08073   0.17442   0.00000  Uiso   1.00
H59    H     0.28337   0.07451   0.23144   0.00000  Uiso   1.00
H60    H     0.28076   0.10816   0.17694   0.00000  Uiso   1.00
C61    C     0.29645   0.16509   0.39389   0.00000  Uiso   1.00
H62    H     0.29695   0.16105   0.35285   0.00000  Uiso   1.00
H63    H     0.31945   0.19145   0.39694   0.00000  Uiso   1.00
H64    H     0.31081   0.13499   0.40343   0.00000  Uiso   1.00
I65    I     0.12633   0.23573   0.10573   0.00000  Uiso   1.00
C66    C     0.49980   0.24654   0.24991   0.00000  Uiso   1.00
C67    C     0.48305   0.17912   0.49018   0.00000  Uiso   1.00
C68    C     0.49643   0.18160   0.43490   0.00000  Uiso   1.00
C69    C     0.51908   0.17848   0.01439   0.00000  Uiso   1.00
C70    C     0.56657   0.16845   0.48381   0.00000  Uiso   1.00
C71    C     0.57980   0.17314   0.42932   0.00000  Uiso   1.00
C72    C     0.54541   0.18693   0.40763   0.00000  Uiso   1.00
C73    C     0.50952   0.18644   0.06797   0.00000  Uiso   1.00
C74    C     0.58585   0.15483   0.06324   0.00000  Uiso   1.00
C75    C     0.46120   0.17608   0.40913   0.00000  Uiso   1.00
C76    C     0.53769   0.31136   0.21715   0.00000  Uiso   1.00
C77    C     0.47453   0.16969   0.35155   0.00000  Uiso   1.00
C78    C     0.53743   0.02094   0.21806   0.00000  Uiso   1.00
C79    C     0.49918   0.04252   0.25323   0.00000  Uiso   1.00
C80    C     0.46045   0.02160   0.28814   0.00000  Uiso   1.00
C81    C     0.46074   0.31168   0.28590   0.00000  Uiso   1.00
C82    C     0.49920   0.29058   0.25066   0.00000  Uiso   1.00
C83    C     0.65006   0.13371   0.22837   0.00000  Uiso   1.00
C84    C     0.36413   0.13370   0.22952   0.00000  Uiso   1.00
C85    C     0.35156   0.20067   0.26811   0.00000  Uiso   1.00
C86    C     0.63707   0.20071   0.26799   0.00000  Uiso   1.00
C87    C     0.49972   0.08676   0.25142   0.00000  Uiso   1.00
C88    C     0.52581   0.16803   0.14904   0.00000  Uiso   1.00
C89    C     0.59951   0.15599   0.00891   0.00000  Uiso   1.00
C90    C     0.54108   0.17044   0.09266   0.00000  Uiso   1.00
C91    C     0.41342   0.17241   0.43951   0.00000  Uiso   1.00
C92    C     0.40048   0.17131   0.49410   0.00000  Uiso   1.00
C93    C     0.43492   0.17312   0.01913   0.00000  Uiso   1.00
H94    H     0.61064   0.14287   0.08221   0.00000  Uiso   1.00
H95    H     0.56644   0.03728   0.19057   0.00000  Uiso   1.00
H96    H     0.43172   0.29432   0.31206   0.00000  Uiso   1.00
H97    H     0.38787   0.10748   0.21328   0.00000  Uiso   1.00
H98    H     0.36473   0.22768   0.28345   0.00000  Uiso   1.00
H99    H     0.61441   0.22774   0.28326   0.00000  Uiso   1.00
H100   H     0.63534   0.14627   0.48722   0.00000  Uiso   1.00
H101   H     0.38626   0.16834   0.42095   0.00000  Uiso   1.00
H102   H     0.42373   0.16770   0.06105   0.00000  Uiso   1.00
H103   H     0.36382   0.16706   0.01730   0.00000  Uiso   1.00
H104   H     0.55831   0.20094   0.36941   0.00000  Uiso   1.00
H105   H     0.56725   0.29439   0.18979   0.00000  Uiso   1.00
N106   N     0.38093   0.16668   0.25002   0.00000  Uiso   1.00
N107   N     0.61906   0.16665   0.25001   0.00000  Uiso   1.00
O108   O     0.46179   0.22775   0.25001   0.00000  Uiso   1.00
O109   O     0.53823   0.22774   0.25001   0.00000  Uiso   1.00
O110   O     0.44280   0.16666   0.32681   0.00000  Uiso   1.00
O111   O     0.51924   0.16665   0.32681   0.00000  Uiso   1.00
O112   O     0.46177   0.10559   0.25000   0.00000  Uiso   1.00
O113   O     0.53821   0.10558   0.25000   0.00000  Uiso   1.00
O114   O     0.48076   0.16668   0.17319   0.00000  Uiso   1.00
O115   O     0.55720   0.16667   0.17319   0.00000  Uiso   1.00
Zn116  Zn    0.44896   0.16667   0.25000   0.00000  Uiso   1.00
Zn117  Zn    0.55104   0.16666   0.25000   0.00000  Uiso   1.00
C118   C     0.41986   0.04433   0.32833   0.00000  Uiso   1.00
H119   H     0.43390   0.06665   0.35159   0.00000  Uiso   1.00
H120   H     0.39775   0.06157   0.30841   0.00000  Uiso   1.00
H121   H     0.39638   0.02227   0.35631   0.00000  Uiso   1.00
C122   C     0.63572   0.09737   0.20148   0.00000  Uiso   1.00
H123   H     0.33389   0.08073   0.17442   0.00000  Uiso   1.00
H124   H     0.61670   0.07451   0.23144   0.00000  Uiso   1.00
H125   H     0.61409   0.10816   0.17694   0.00000  Uiso   1.00
C126   C     0.62979   0.16509   0.39389   0.00000  Uiso   1.00
H127   H     0.63028   0.16105   0.35285   0.00000  Uiso   1.00
H128   H     0.65278   0.19145   0.39694   0.00000  Uiso   1.00
H129   H     0.64414   0.13499   0.40343   0.00000  Uiso   1.00
I130   I     0.45966   0.23573   0.10573   0.00000  Uiso   1.00
C131   C     0.83313   0.24654   0.24991   0.00000  Uiso   1.00
C132   C     0.81638   0.17912   0.49018   0.00000  Uiso   1.00
C133   C     0.82977   0.18160   0.43490   0.00000  Uiso   1.00
C134   C     0.85242   0.17848   0.01439   0.00000  Uiso   1.00
C135   C     0.89990   0.16845   0.48381   0.00000  Uiso   1.00
C136   C     0.91314   0.17314   0.42932   0.00000  Uiso   1.00
C137   C     0.87874   0.18693   0.40763   0.00000  Uiso   1.00
C138   C     0.84286   0.18644   0.06797   0.00000  Uiso   1.00
C139   C     0.91919   0.15483   0.06324   0.00000  Uiso   1.00
C140   C     0.79453   0.17608   0.40913   0.00000  Uiso   1.00
C141   C     0.87103   0.31136   0.21715   0.00000  Uiso   1.00
C142   C     0.80786   0.16969   0.35155   0.00000  Uiso   1.00
C143   C     0.87076   0.02094   0.21806   0.00000  Uiso   1.00
C144   C     0.83251   0.04252   0.25323   0.00000  Uiso   1.00
C145   C     0.79378   0.02160   0.28814   0.00000  Uiso   1.00
C146   C     0.79408   0.31168   0.28590   0.00000  Uiso   1.00
C147   C     0.83253   0.29058   0.25066   0.00000  Uiso   1.00
C148   C     0.98339   0.13371   0.22837   0.00000  Uiso   1.00
C149   C     0.69746   0.13370   0.22952   0.00000  Uiso   1.00
C150   C     0.68489   0.20067   0.26811   0.00000  Uiso   1.00
C151   C     0.97040   0.20071   0.26799   0.00000  Uiso   1.00
C152   C     0.83306   0.08676   0.25142   0.00000  Uiso   1.00
C153   C     0.85914   0.16803   0.14904   0.00000  Uiso   1.00
C154   C     0.93285   0.15599   0.00891   0.00000  Uiso   1.00
C155   C     0.87442   0.17044   0.09266   0.00000  Uiso   1.00
C156   C     0.74675   0.17241   0.43951   0.00000  Uiso   1.00
C157   C     0.73381   0.17131   0.49410   0.00000  Uiso   1.00
C158   C     0.76825   0.17312   0.01913   0.00000  Uiso   1.00
H159   H     0.94398   0.14287   0.08221   0.00000  Uiso   1.00
H160   H     0.89977   0.03728   0.19057   0.00000  Uiso   1.00
H161   H     0.76506   0.29432   0.31206   0.00000  Uiso   1.00
H162   H     0.72120   0.10748   0.21328   0.00000  Uiso   1.00
H163   H     0.69806   0.22768   0.28345   0.00000  Uiso   1.00
H164   H     0.94775   0.22774   0.28326   0.00000  Uiso   1.00
H165   H     0.96867   0.14627   0.48722   0.00000  Uiso   1.00
H166   H     0.71959   0.16834   0.42095   0.00000  Uiso   1.00
H167   H     0.75706   0.16770   0.06105   0.00000  Uiso   1.00
H168   H     0.69715   0.16706   0.01730   0.00000  Uiso   1.00
H169   H     0.89164   0.20094   0.36941   0.00000  Uiso   1.00
H170   H     0.90058   0.29439   0.18979   0.00000  Uiso   1.00
N171   N     0.71426   0.16668   0.25002   0.00000  Uiso   1.00
N172   N     0.95239   0.16665   0.25001   0.00000  Uiso   1.00
O173   O     0.79512   0.22775   0.25001   0.00000  Uiso   1.00
O174   O     0.87157   0.22774   0.25001   0.00000  Uiso   1.00
O175   O     0.77613   0.16666   0.32681   0.00000  Uiso   1.00
O176   O     0.85258   0.16665   0.32681   0.00000  Uiso   1.00
O177   O     0.79510   0.10559   0.25000   0.00000  Uiso   1.00
O178   O     0.87154   0.10558   0.25000   0.00000  Uiso   1.00
O179   O     0.81409   0.16668   0.17319   0.00000  Uiso   1.00
O180   O     0.89053   0.16667   0.17319   0.00000  Uiso   1.00
Zn181  Zn    0.78229   0.16667   0.25000   0.00000  Uiso   1.00
Zn182  Zn    0.88438   0.16666   0.25000   0.00000  Uiso   1.00
C183   C     0.75320   0.04433   0.32833   0.00000  Uiso   1.00
H184   H     0.76723   0.06665   0.35159   0.00000  Uiso   1.00
H185   H     0.73108   0.06157   0.30841   0.00000  Uiso   1.00
H186   H     0.72971   0.02227   0.35631   0.00000  Uiso   1.00
C187   C     0.96906   0.09737   0.20148   0.00000  Uiso   1.00
H188   H     0.66723   0.08073   0.17442   0.00000  Uiso   1.00
H189   H     0.95004   0.07451   0.23144   0.00000  Uiso   1.00
H190   H     0.94742   0.10816   0.17694   0.00000  Uiso   1.00
C191   C     0.96312   0.16509   0.39389   0.00000  Uiso   1.00
H192   H     0.96361   0.16105   0.35285   0.00000  Uiso   1.00
H193   H     0.98612   0.19145   0.39694   0.00000  Uiso   1.00
H194   H     0.97747   0.13499   0.40343   0.00000  Uiso   1.00
I195   I     0.79299   0.23573   0.10573   0.00000  Uiso   1.00
C196   C     0.16646   0.57988   0.24991   0.00000  Uiso   1.00
C197   C     0.14972   0.51245   0.49018   0.00000  Uiso   1.00
C198   C     0.16310   0.51493   0.43490   0.00000  Uiso   1.00
C199   C     0.18575   0.51182   0.01439   0.00000  Uiso   1.00
C200   C     0.23323   0.50178   0.48381   0.00000  Uiso   1.00
C201   C     0.24647   0.50647   0.42932   0.00000  Uiso   1.00
C202   C     0.21208   0.52026   0.40763   0.00000  Uiso   1.00
C203   C     0.17619   0.51977   0.06797   0.00000  Uiso   1.00
C204   C     0.25252   0.48816   0.06324   0.00000  Uiso   1.00
C205   C     0.12787   0.50942   0.40913   0.00000  Uiso   1.00
C206   C     0.20436   0.64470   0.21715   0.00000  Uiso   1.00
C207   C     0.14120   0.50302   0.35155   0.00000  Uiso   1.00
C208   C     0.20410   0.35427   0.21806   0.00000  Uiso   1.00
C209   C     0.16584   0.37585   0.25323   0.00000  Uiso   1.00
C210   C     0.12712   0.35493   0.28814   0.00000  Uiso   1.00
C211   C     0.12741   0.64501   0.28590   0.00000  Uiso   1.00
C212   C     0.16586   0.62392   0.25066   0.00000  Uiso   1.00
C213   C     0.31672   0.46705   0.22837   0.00000  Uiso   1.00
C214   C     0.03080   0.46704   0.22952   0.00000  Uiso   1.00
C215   C     0.01823   0.53401   0.26811   0.00000  Uiso   1.00
C216   C     0.30373   0.53405   0.26799   0.00000  Uiso   1.00
C217   C     0.16639   0.42010   0.25142   0.00000  Uiso   1.00
C218   C     0.19248   0.50137   0.14904   0.00000  Uiso   1.00
C219   C     0.26618   0.48933   0.00891   0.00000  Uiso   1.00
C220   C     0.20775   0.50377   0.09266   0.00000  Uiso   1.00
C221   C     0.08008   0.50575   0.43951   0.00000  Uiso   1.00
C222   C     0.06714   0.50464   0.49410   0.00000  Uiso   1.00
C223   C     0.10158   0.50645   0.01913   0.00000  Uiso   1.00
H224   H     0.27731   0.47620   0.08221   0.00000  Uiso   1.00
H225   H     0.23310   0.37061   0.19057   0.00000  Uiso   1.00
H226   H     0.09839   0.62766   0.31206   0.00000  Uiso   1.00
H227   H     0.05454   0.44081   0.21328   0.00000  Uiso   1.00
H228   H     0.03140   0.56101   0.28345   0.00000  Uiso   1.00
H229   H     0.28108   0.56107   0.28326   0.00000  Uiso   1.00
H230   H     0.30201   0.47960   0.48722   0.00000  Uiso   1.00
H231   H     0.05292   0.50167   0.42095   0.00000  Uiso   1.00
H232   H     0.09040   0.50103   0.06105   0.00000  Uiso   1.00
H233   H     0.03049   0.50039   0.01730   0.00000  Uiso   1.00
H234   H     0.22497   0.53427   0.36941   0.00000  Uiso   1.00
H235   H     0.23391   0.62772   0.18979   0.00000  Uiso   1.00
N236   N     0.04760   0.50001   0.25002   0.00000  Uiso   1.00
N237   N     0.28573   0.49998   0.25001   0.00000  Uiso   1.00
O238   O     0.12846   0.56108   0.25001   0.00000  Uiso   1.00
O239   O     0.20490   0.56107   0.25001   0.00000  Uiso   1.00
O240   O     0.10947   0.50000   0.32681   0.00000  Uiso   1.00
O241   O     0.18591   0.49999   0.32681   0.00000  Uiso   1.00
O242   O     0.12843   0.43893   0.25000   0.00000  Uiso   1.00
O243   O     0.20488   0.43892   0.25000   0.00000  Uiso   1.00
O244   O     0.14742   0.50001   0.17319   0.00000  Uiso   1.00
O245   O     0.22387   0.50000   0.17319   0.00000  Uiso   1.00
Zn246  Zn    0.11562   0.50001   0.25000   0.00000  Uiso   1.00
Zn247  Zn    0.21771   0.49999   0.25000   0.00000  Uiso   1.00
C248   C     0.08653   0.37767   0.32833   0.00000  Uiso   1.00
H249   H     0.10057   0.39998   0.35159   0.00000  Uiso   1.00
H250   H     0.06442   0.39490   0.30841   0.00000  Uiso   1.00
H251   H     0.06305   0.35560   0.35631   0.00000  Uiso   1.00
C252   C     0.30239   0.43071   0.20148   0.00000  Uiso   1.00
H253   H     0.00056   0.41406   0.17442   0.00000  Uiso   1.00
H254   H     0.28337   0.40784   0.23144   0.00000  Uiso   1.00
H255   H     0.28076   0.44150   0.17694   0.00000  Uiso   1.00
C256   C     0.29645   0.49842   0.39389   0.00000  Uiso   1.00
H257   H     0.29695   0.49438   0.35285   0.00000  Uiso   1.00
H258   H     0.31945   0.52479   0.39694   0.00000  Uiso   1.00
H259   H     0.31081   0.46832   0.40343   0.00000  Uiso   1.00
I260   I     0.12633   0.56907   0.10573   0.00000  Uiso   1.00
C261   C     0.49980   0.57988   0.24991   0.00000  Uiso   1.00
C262   C     0.48305   0.51245   0.49018   0.00000  Uiso   1.00
C263   C     0.49643   0.51493   0.43490   0.00000  Uiso   1.00
C264   C     0.51908   0.51182   0.01439   0.00000  Uiso   1.00
C265   C     0.56657   0.50178   0.48381   0.00000  Uiso   1.00
C266   C     0.57980   0.50647   0.42932   0.00000  Uiso   1.00
C267   C     0.54541   0.52026   0.40763   0.00000  Uiso   1.00
C268   C     0.50952   0.51977   0.06797   0.00000  Uiso   1.00
C269   C     0.58585   0.48816   0.06324   0.00000  Uiso   1.00
C270   C     0.46120   0.50942   0.40913   0.00000  Uiso   1.00
C271   C     0.53769   0.64470   0.21715   0.00000  Uiso   1.00
C272   C     0.47453   0.50302   0.35155   0.00000  Uiso   1.00
C273   C     0.53743   0.35427   0.21806   0.00000  Uiso   1.00
C274   C     0.49918   0.37585   0.25323   0.00000  Uiso   1.00
C275   C     0.46045   0.35493   0.28814   0.00000  Uiso   1.00
C276   C     0.46074   0.64501   0.28590   0.00000  Uiso   1.00
C277   C     0.49920   0.62392   0.25066   0.00000  Uiso   1.00
C278   C     0.65006   0.46705   0.22837   0.00000  Uiso   1.00
C279   C     0.36413   0.46704   0.22952   0.00000  Uiso   1.00
C280   C     0.35156   0.53401   0.26811   0.00000  Uiso   1.00
C281   C     0.63707   0.53405   0.26799   0.00000  Uiso   1.00
C282   C     0.49972   0.42010   0.25142   0.00000  Uiso   1.00
C283   C     0.52581   0.50137   0.14904   0.00000  Uiso   1.00
C284   C     0.59951   0.48933   0.00891   0.00000  Uiso   1.00
C285   C     0.54108   0.50377   0.09266   0.00000  Uiso   1.00
C286   C     0.41342   0.50575   0.43951   0.00000  Uiso   1.00
C287   C     0.40048   0.50464   0.49410   0.00000  Uiso   1.00
C288   C     0.43492   0.50645   0.01913   0.00000  Uiso   1.00
H289   H     0.61064   0.47620   0.08221   0.00000  Uiso   1.00
H290   H     0.56644   0.37061   0.19057   0.00000  Uiso   1.00
H291   H     0.43172   0.62766   0.31206   0.00000  Uiso   1.00
H292   H     0.38787   0.44081   0.21328   0.00000  Uiso   1.00
H293   H     0.36473   0.56101   0.28345   0.00000  Uiso   1.00
H294   H     0.61441   0.56107   0.28326   0.00000  Uiso   1.00
H295   H     0.63534   0.47960   0.48722   0.00000  Uiso   1.00
H296   H     0.38626   0.50167   0.42095   0.00000  Uiso   1.00
H297   H     0.42373   0.50103   0.06105   0.00000  Uiso   1.00
H298   H     0.36382   0.50039   0.01730   0.00000  Uiso   1.00
H299   H     0.55831   0.53427   0.36941   0.00000  Uiso   1.00
H300   H     0.56725   0.62772   0.18979   0.00000  Uiso   1.00
N301   N     0.38093   0.50001   0.25002   0.00000  Uiso   1.00
N302   N     0.61906   0.49998   0.25001   0.00000  Uiso   1.00
O303   O     0.46179   0.56108   0.25001   0.00000  Uiso   1.00
O304   O     0.53823   0.56107   0.25001   0.00000  Uiso   1.00
O305   O     0.44280   0.50000   0.32681   0.00000  Uiso   1.00
O306   O     0.51924   0.49999   0.32681   0.00000  Uiso   1.00
O307   O     0.46177   0.43893   0.25000   0.00000  Uiso   1.00
O308   O     0.53821   0.43892   0.25000   0.00000  Uiso   1.00
O309   O     0.48076   0.50001   0.17319   0.00000  Uiso   1.00
O310   O     0.55720   0.50000   0.17319   0.00000  Uiso   1.00
Zn311  Zn    0.44896   0.50001   0.25000   0.00000  Uiso   1.00
Zn312  Zn    0.55104   0.49999   0.25000   0.00000  Uiso   1.00
C313   C     0.41986   0.37767   0.32833   0.00000  Uiso   1.00
H314   H     0.43390   0.39998   0.35159   0.00000  Uiso   1.00
H315   H     0.39775   0.39490   0.30841   0.00000  Uiso   1.00
H316   H     0.39638   0.35560   0.35631   0.00000  Uiso   1.00
C317   C     0.63572   0.43071   0.20148   0.00000  Uiso   1.00
H318   H     0.33389   0.41406   0.17442   0.00000  Uiso   1.00
H319   H     0.61670   0.40784   0.23144   0.00000  Uiso   1.00
H320   H     0.61409   0.44150   0.17694   0.00000  Uiso   1.00
C321   C     0.62979   0.49842   0.39389   0.00000  Uiso   1.00
H322   H     0.63028   0.49438   0.35285   0.00000  Uiso   1.00
H323   H     0.65278   0.52479   0.39694   0.00000  Uiso   1.00
H324   H     0.64414   0.46832   0.40343   0.00000  Uiso   1.00
I325   I     0.45966   0.56907   0.10573   0.00000  Uiso   1.00
C326   C     0.83313   0.57988   0.24991   0.00000  Uiso   1.00
C327   C     0.81638   0.51245   0.49018   0.00000  Uiso   1.00
C328   C     0.82977   0.51493   0.43490   0.00000  Uiso   1.00
C329   C     0.85242   0.51182   0.01439   0.00000  Uiso   1.00
C330   C     0.89990   0.50178   0.48381   0.00000  Uiso   1.00
C331   C     0.91314   0.50647   0.42932   0.00000  Uiso   1.00
C332   C     0.87874   0.52026   0.40763   0.00000  Uiso   1.00
C333   C     0.84286   0.51977   0.06797   0.00000  Uiso   1.00
C334   C     0.91919   0.48816   0.06324   0.00000  Uiso   1.00
C335   C     0.79453   0.50942   0.40913   0.00000  Uiso   1.00
C336   C     0.87103   0.64470   0.21715   0.00000  Uiso   1.00
C337   C     0.80786   0.50302   0.35155   0.00000  Uiso   1.00
C338   C     0.87076   0.35427   0.21806   0.00000  Uiso   1.00
C339   C     0.83251   0.37585   0.25323   0.00000  Uiso   1.00
C340   C     0.79378   0.35493   0.28814   0.00000  Uiso   1.00
C341   C     0.79408   0.64501   0.28590   0.00000  Uiso   1.00
C342   C     0.83253   0.62392   0.25066   0.00000  Uiso   1.00
C343   C     0.98339   0.46705   0.22837   0.00000  Uiso   1.00
C344   C     0.69746   0.46704   0.22952   0.00000  Uiso   1.00
C345   C     0.68489   0.53401   0.26811   0.00000  Uiso   1.00
C346   C     0.97040   0.53405   0.26799   0.00000  Uiso   1.00
C347   C     0.83306   0.42010   0.25142   0.00000  Uiso   1.00
C348   C     0.85914   0.50137   0.14904   0.00000  Uiso   1.00
C349   C     0.93285   0.48933   0.00891   0.00000  Uiso   1.00
C350   C     0.87442   0.50377   0.09266   0.00000  Uiso   1.00
C351   C     0.74675   0.50575   0.43951   0.00000  Uiso   1.00
C352   C     0.73381   0.50464   0.49410   0.00000  Uiso   1.00
C353   C     0.76825   0.50645   0.01913   0.00000  Uiso   1.00
H354   H     0.94398   0.47620   0.08221   0.00000  Uiso   1.00
H355   H     0.89977   0.37061   0.19057   0.00000  Uiso   1.00
H356   H     0.76506   0.62766   0.31206   0.00000  Uiso   1.00
H357   H     0.72120   0.44081   0.21328   0.00000  Uiso   1.00
H358   H     0.69806   0.56101   0.28345   0.00000  Uiso   1.00
H359   H     0.94775   0.56107   0.28326   0.00000  Uiso   1.00
H360   H     0.96867   0.47960   0.48722   0.00000  Uiso   1.00
H361   H     0.71959   0.50167   0.42095   0.00000  Uiso   1.00
H362   H     0.75706   0.50103   0.06105   0.00000  Uiso   1.00
H363   H     0.69715   0.50039   0.01730   0.00000  Uiso   1.00
H364   H     0.89164   0.53427   0.36941   0.00000  Uiso   1.00
H365   H     0.90058   0.62772   0.18979   0.00000  Uiso   1.00
N366   N     0.71426   0.50001   0.25002   0.00000  Uiso   1.00
N367   N     0.95239   0.49998   0.25001   0.00000  Uiso   1.00
O368   O     0.79512   0.56108   0.25001   0.00000  Uiso   1.00
O369   O     0.87157   0.56107   0.25001   0.00000  Uiso   1.00
O370   O     0.77613   0.50000   0.32681   0.00000  Uiso   1.00
O371   O     0.85258   0.49999   0.32681   0.00000  Uiso   1.00
O372   O     0.79510   0.43893   0.25000   0.00000  Uiso   1.00
O373   O     0.87154   0.43892   0.25000   0.00000  Uiso   1.00
O374   O     0.81409   0.50001   0.17319   0.00000  Uiso   1.00
O375   O     0.89053   0.50000   0.17319   0.00000  Uiso   1.00
Zn376  Zn    0.78229   0.50001   0.25000   0.00000  Uiso   1.00
Zn377  Zn    0.88438   0.49999   0.25000   0.00000  Uiso   1.00
C378   C     0.75320   0.37767   0.32833   0.00000  Uiso   1.00
H379   H     0.76723   0.39998   0.35159   0.00000  Uiso   1.00
H380   H     0.73108   0.39490   0.30841   0.00000  Uiso   1.00
H381   H     0.72971   0.35560   0.35631   0.00000  Uiso   1.00
C382   C     0.96906   0.43071   0.20148   0.00000  Uiso   1.00
H383   H     0.66723   0.41406   0.17442   0.00000  Uiso   1.00
H384   H     0.95004   0.40784   0.23144   0.00000  Uiso   1.00
H385   H     0.94742   0.44150   0.17694   0.00000  Uiso   1.00
C386   C     0.96312   0.49842   0.39389   0.00000  Uiso   1.00
H387   H     0.96361   0.49438   0.35285   0.00000  Uiso   1.00
H388   H     0.98612   0.52479   0.39694   0.00000  Uiso   1.00
H389   H     0.97747   0.46832   0.40343   0.00000  Uiso   1.00
I390   I     0.79299   0.56907   0.10573   0.00000  Uiso   1.00
C391   C     0.16646   0.91321   0.24991   0.00000  Uiso   1.00
C392   C     0.14972   0.84579   0.49018   0.00000  Uiso   1.00
C393   C     0.16310   0.84826   0.43490   0.00000  Uiso   1.00
C394   C     0.18575   0.84515   0.01439   0.00000  Uiso   1.00
C395   C     0.23323   0.83512   0.48381   0.00000  Uiso   1.00
C396   C     0.24647   0.83981   0.42932   0.00000  Uiso   1.00
C397   C     0.21208   0.85360   0.40763   0.00000  Uiso   1.00
C398   C     0.17619   0.85310   0.06797   0.00000  Uiso   1.00
C399   C     0.25252   0.82149   0.06324   0.00000  Uiso   1.00
C400   C     0.12787   0.84275   0.40913   0.00000  Uiso   1.00
C401   C     0.20436   0.97803   0.21715   0.00000  Uiso   1.00
C402   C     0.14120   0.83636   0.35155   0.00000  Uiso   1.00
C403   C     0.20410   0.68761   0.21806   0.00000  Uiso   1.00
C404   C     0.16584   0.70919   0.25323   0.00000  Uiso   1.00
C405   C     0.12712   0.68826   0.28814   0.00000  Uiso   1.00
C406   C     0.12741   0.97835   0.28590   0.00000  Uiso   1.00
C407   C     0.16586   0.95725   0.25066   0.00000  Uiso   1.00
C408   C     0.31672   0.80038   0.22837   0.00000  Uiso   1.00
C409   C     0.03080   0.80037   0.22952   0.00000  Uiso   1.00
C410   C     0.01823   0.86734   0.26811   0.00000  Uiso   1.00
C411   C     0.30373   0.86738   0.26799   0.00000  Uiso   1.00
C412   C     0.16639   0.75343   0.25142   0.00000  Uiso   1.00
C413   C     0.19248   0.83470   0.14904   0.00000  Uiso   1.00
C414   C     0.26618   0.82266   0.00891   0.00000  Uiso   1.00
C415   C     0.20775   0.83710   0.09266   0.00000  Uiso   1.00
C416   C     0.08008   0.83908   0.43951   0.00000  Uiso   1.00
C417   C     0.06714   0.83798   0.49410   0.00000  Uiso   1.00
C418   C     0.10158   0.83978   0.01913   0.00000  Uiso   1.00
H419   H     0.27731   0.80954   0.08221   0.00000  Uiso   1.00
H420   H     0.23310   0.70394   0.19057   0.00000  Uiso   1.00
H421   H     0.09839   0.96099   0.31206   0.00000  Uiso   1.00
H422   H     0.05454   0.77415   0.21328   0.00000  Uiso   1.00
H423   H     0.03140   0.89434   0.28345   0.00000  Uiso   1.00
H424   H     0.28108   0.89441   0.28326   0.00000  Uiso   1.00
H425   H     0.30201   0.81294   0.48722   0.00000  Uiso   1.00
H426   H     0.05292   0.83501   0.42095   0.00000  Uiso   1.00
H427   H     0.09040   0.83437   0.06105   0.00000  Uiso   1.00
H428   H     0.03049   0.83373   0.01730   0.00000  Uiso   1.00
H429   H     0.22497   0.86760   0.36941   0.00000  Uiso   1.00
H430   H     0.23391   0.96106   0.18979   0.00000  Uiso   1.00
N431   N     0.04760   0.83334   0.25002   0.00000  Uiso   1.00
N432   N     0.28573   0.83331   0.25001   0.00000  Uiso   1.00
O433   O     0.12846   0.89442   0.25001   0.00000  Uiso   1.00
O434   O     0.20490   0.89441   0.25001   0.00000  Uiso   1.00
O435   O     0.10947   0.83333   0.32681   0.00000  Uiso   1.00
O436   O     0.18591   0.83332   0.32681   0.00000  Uiso   1.00
O437   O     0.12843   0.77226   0.25000   0.00000  Uiso   1.00
O438   O     0.20488   0.77225   0.25000   0.00000  Uiso   1.00
O439   O     0.14742   0.83335   0.17319   0.00000  Uiso   1.00
O440   O     0.22387   0.83334   0.17319   0.00000  Uiso   1.00
Zn441  Zn    0.11562   0.83334   0.25000   0.00000  Uiso   1.00
Zn442  Zn    0.21771   0.83333   0.25000   0.00000  Uiso   1.00
C443   C     0.08653   0.71100   0.32833   0.00000  Uiso   1.00
H444   H     0.10057   0.73332   0.35159   0.00000  Uiso   1.00
H445   H     0.06442   0.72823   0.30841   0.00000  Uiso   1.00
H446   H     0.06305   0.68893   0.35631   0.00000  Uiso   1.00
C447   C     0.30239   0.76404   0.20148   0.00000  Uiso   1.00
H448   H     0.00056   0.74740   0.17442   0.00000  Uiso   1.00
H449   H     0.28337   0.74117   0.23144   0.00000  Uiso   1.00
H450   H     0.28076   0.77483   0.17694   0.00000  Uiso   1.00
C451   C     0.29645   0.83176   0.39389   0.00000  Uiso   1.00
H452   H     0.29695   0.82771   0.35285   0.00000  Uiso   1.00
H453   H     0.31945   0.85812   0.39694   0.00000  Uiso   1.00
H454   H     0.31081   0.80166   0.40343   0.00000  Uiso   1.00
I455   I     0.12633   0.90240   0.10573   0.00000  Uiso   1.00
C456   C     0.49980   0.91321   0.24991   0.00000  Uiso   1.00
C457   C     0.48305   0.84579   0.49018   0.00000  Uiso   1.00
C458   C     0.49643   0.84826   0.43490   0.00000  Uiso   1.00
C459   C     0.51908   0.84515   0.01439   0.00000  Uiso   1.00
C460   C     0.56657   0.83512   0.48381   0.00000  Uiso   1.00
C461   C     0.57980   0.83981   0.42932   0.00000  Uiso   1.00
C462   C     0.54541   0.85360   0.40763   0.00000  Uiso   1.00
C463   C     0.50952   0.85310   0.06797   0.00000  Uiso   1.00
C464   C     0.58585   0.82149   0.06324   0.00000  Uiso   1.00
C465   C     0.46120   0.84275   0.40913   0.00000  Uiso   1.00
C466   C     0.53769   0.97803   0.21715   0.00000  Uiso   1.00
C467   C     0.47453   0.83636   0.35155   0.00000  Uiso   1.00
C468   C     0.53743   0.68761   0.21806   0.00000  Uiso   1.00
C469   C     0.49918   0.70919   0.25323   0.00000  Uiso   1.00
C470   C     0.46045   0.68826   0.28814   0.00000  Uiso   1.00
C471   C     0.46074   0.97835   0.28590   0.00000  Uiso   1.00
C472   C     0.49920   0.95725   0.25066   0.00000  Uiso   1.00
C473   C     0.65006   0.80038   0.22837   0.00000  Uiso   1.00
C474   C     0.36413   0.80037   0.22952   0.00000  Uiso   1.00
C475   C     0.35156   0.86734   0.26811   0.00000  Uiso   1.00
C476   C     0.63707   0.86738   0.26799   0.00000  Uiso   1.00
C477   C     0.49972   0.75343   0.25142   0.00000  Uiso   1.00
C478   C     0.52581   0.83470   0.14904   0.00000  Uiso   1.00
C479   C     0.59951   0.82266   0.00891   0.00000  Uiso   1.00
C480   C     0.54108   0.83710   0.09266   0.00000  Uiso   1.00
C481   C     0.41342   0.83908   0.43951   0.00000  Uiso   1.00
C482   C     0.40048   0.83798   0.49410   0.00000  Uiso   1.00
C483   C     0.43492   0.83978   0.01913   0.00000  Uiso   1.00
H484   H     0.61064   0.80954   0.08221   0.00000  Uiso   1.00
H485   H     0.56644   0.70394   0.19057   0.00000  Uiso   1.00
H486   H     0.43172   0.96099   0.31206   0.00000  Uiso   1.00
H487   H     0.38787   0.77415   0.21328   0.00000  Uiso   1.00
H488   H     0.36473   0.89434   0.28345   0.00000  Uiso   1.00
H489   H     0.61441   0.89441   0.28326   0.00000  Uiso   1.00
H490   H     0.63534   0.81294   0.48722   0.00000  Uiso   1.00
H491   H     0.38626   0.83501   0.42095   0.00000  Uiso   1.00
H492   H     0.42373   0.83437   0.06105   0.00000  Uiso   1.00
H493   H     0.36382   0.83373   0.01730   0.00000  Uiso   1.00
H494   H     0.55831   0.86760   0.36941   0.00000  Uiso   1.00
H495   H     0.56725   0.96106   0.18979   0.00000  Uiso   1.00
N496   N     0.38093   0.83334   0.25002   0.00000  Uiso   1.00
N497   N     0.61906   0.83331   0.25001   0.00000  Uiso   1.00
O498   O     0.46179   0.89442   0.25001   0.00000  Uiso   1.00
O499   O     0.53823   0.89441   0.25001   0.00000  Uiso   1.00
O500   O     0.44280   0.83333   0.32681   0.00000  Uiso   1.00
O501   O     0.51924   0.83332   0.32681   0.00000  Uiso   1.00
O502   O     0.46177   0.77226   0.25000   0.00000  Uiso   1.00
O503   O     0.53821   0.77225   0.25000   0.00000  Uiso   1.00
O504   O     0.48076   0.83335   0.17319   0.00000  Uiso   1.00
O505   O     0.55720   0.83334   0.17319   0.00000  Uiso   1.00
Zn506  Zn    0.44896   0.83334   0.25000   0.00000  Uiso   1.00
Zn507  Zn    0.55104   0.83333   0.25000   0.00000  Uiso   1.00
C508   C     0.41986   0.71100   0.32833   0.00000  Uiso   1.00
H509   H     0.43390   0.73332   0.35159   0.00000  Uiso   1.00
H510   H     0.39775   0.72823   0.30841   0.00000  Uiso   1.00
H511   H     0.39638   0.68893   0.35631   0.00000  Uiso   1.00
C512   C     0.63572   0.76404   0.20148   0.00000  Uiso   1.00
H513   H     0.33389   0.74740   0.17442   0.00000  Uiso   1.00
H514   H     0.61670   0.74117   0.23144   0.00000  Uiso   1.00
H515   H     0.61409   0.77483   0.17694   0.00000  Uiso   1.00
C516   C     0.62979   0.83176   0.39389   0.00000  Uiso   1.00
H517   H     0.63028   0.82771   0.35285   0.00000  Uiso   1.00
H518   H     0.65278   0.85812   0.39694   0.00000  Uiso   1.00
H519   H     0.64414   0.80166   0.40343   0.00000  Uiso   1.00
I520   I     0.45966   0.90240   0.10573   0.00000  Uiso   1.00
C521   C     0.83313   0.91321   0.24991   0.00000  Uiso   1.00
C522   C     0.81638   0.84579   0.49018   0.00000  Uiso   1.00
C523   C     0.82977   0.84826   0.43490   0.00000  Uiso   1.00
C524   C     0.85242   0.84515   0.01439   0.00000  Uiso   1.00
C525   C     0.89990   0.83512   0.48381   0.00000  Uiso   1.00
C526   C     0.91314   0.83981   0.42932   0.00000  Uiso   1.00
C527   C     0.87874   0.85360   0.40763   0.00000  Uiso   1.00
C528   C     0.84286   0.85310   0.06797   0.00000  Uiso   1.00
C529   C     0.91919   0.82149   0.06324   0.00000  Uiso   1.00
C530   C     0.79453   0.84275   0.40913   0.00000  Uiso   1.00
C531   C     0.87103   0.97803   0.21715   0.00000  Uiso   1.00
C532   C     0.80786   0.83636   0.35155   0.00000  Uiso   1.00
C533   C     0.87076   0.68761   0.21806   0.00000  Uiso   1.00
C534   C     0.83251   0.70919   0.25323   0.00000  Uiso   1.00
C535   C     0.79378   0.68826   0.28814   0.00000  Uiso   1.00
C536   C     0.79408   0.97835   0.28590   0.00000  Uiso   1.00
C537   C     0.83253   0.95725   0.25066   0.00000  Uiso   1.00
C538   C     0.98339   0.80038   0.22837   0.00000  Uiso   1.00
C539   C     0.69746   0.80037   0.22952   0.00000  Uiso   1.00
C540   C     0.68489   0.86734   0.26811   0.00000  Uiso   1.00
C541   C     0.97040   0.86738   0.26799   0.00000  Uiso   1.00
C542   C     0.83306   0.75343   0.25142   0.00000  Uiso   1.00
C543   C     0.85914   0.83470   0.14904   0.00000  Uiso   1.00
C544   C     0.93285   0.82266   0.00891   0.00000  Uiso   1.00
C545   C     0.87442   0.83710   0.09266   0.00000  Uiso   1.00
C546   C     0.74675   0.83908   0.43951   0.00000  Uiso   1.00
C547   C     0.73381   0.83798   0.49410   0.00000  Uiso   1.00
C548   C     0.76825   0.83978   0.01913   0.00000  Uiso   1.00
H549   H     0.94398   0.80954   0.08221   0.00000  Uiso   1.00
H550   H     0.89977   0.70394   0.19057   0.00000  Uiso   1.00
H551   H     0.76506   0.96099   0.31206   0.00000  Uiso   1.00
H552   H     0.72120   0.77415   0.21328   0.00000  Uiso   1.00
H553   H     0.69806   0.89434   0.28345   0.00000  Uiso   1.00
H554   H     0.94775   0.89441   0.28326   0.00000  Uiso   1.00
H555   H     0.96867   0.81294   0.48722   0.00000  Uiso   1.00
H556   H     0.71959   0.83501   0.42095   0.00000  Uiso   1.00
H557   H     0.75706   0.83437   0.06105   0.00000  Uiso   1.00
H558   H     0.69715   0.83373   0.01730   0.00000  Uiso   1.00
H559   H     0.89164   0.86760   0.36941   0.00000  Uiso   1.00
H560   H     0.90058   0.96106   0.18979   0.00000  Uiso   1.00
N561   N     0.71426   0.83334   0.25002   0.00000  Uiso   1.00
N562   N     0.95239   0.83331   0.25001   0.00000  Uiso   1.00
O563   O     0.79512   0.89442   0.25001   0.00000  Uiso   1.00
O564   O     0.87157   0.89441   0.25001   0.00000  Uiso   1.00
O565   O     0.77613   0.83333   0.32681   0.00000  Uiso   1.00
O566   O     0.85258   0.83332   0.32681   0.00000  Uiso   1.00
O567   O     0.79510   0.77226   0.25000   0.00000  Uiso   1.00
O568   O     0.87154   0.77225   0.25000   0.00000  Uiso   1.00
O569   O     0.81409   0.83335   0.17319   0.00000  Uiso   1.00
O570   O     0.89053   0.83334   0.17319   0.00000  Uiso   1.00
Zn571  Zn    0.78229   0.83334   0.25000   0.00000  Uiso   1.00
Zn572  Zn    0.88438   0.83333   0.25000   0.00000  Uiso   1.00
C573   C     0.75320   0.71100   0.32833   0.00000  Uiso   1.00
H574   H     0.76723   0.73332   0.35159   0.00000  Uiso   1.00
H575   H     0.73108   0.72823   0.30841   0.00000  Uiso   1.00
H576   H     0.72971   0.68893   0.35631   0.00000  Uiso   1.00
C577   C     0.96906   0.76404   0.20148   0.00000  Uiso   1.00
H578   H     0.66723   0.74740   0.17442   0.00000  Uiso   1.00
H579   H     0.95004   0.74117   0.23144   0.00000  Uiso   1.00
H580   H     0.94742   0.77483   0.17694   0.00000  Uiso   1.00
C581   C     0.96312   0.83176   0.39389   0.00000  Uiso   1.00
H582   H     0.96361   0.82771   0.35285   0.00000  Uiso   1.00
H583   H     0.98612   0.85812   0.39694   0.00000  Uiso   1.00
H584   H     0.97747   0.80166   0.40343   0.00000  Uiso   1.00
I585   I     0.79299   0.90240   0.10573   0.00000  Uiso   1.00
C586   C     0.16646   0.24654   0.74991   0.00000  Uiso   1.00
C587   C     0.14972   0.17912   0.99018   0.00000  Uiso   1.00
C588   C     0.16310   0.18160   0.93490   0.00000  Uiso   1.00
C589   C     0.18575   0.17848   0.51439   0.00000  Uiso   1.00
C590   C     0.23323   0.16845   0.98381   0.00000  Uiso   1.00
C591   C     0.24647   0.17314   0.92932   0.00000  Uiso   1.00
C592   C     0.21208   0.18693   0.90763   0.00000  Uiso   1.00
C593   C     0.17619   0.18644   0.56797   0.00000  Uiso   1.00
C594   C     0.25252   0.15483   0.56324   0.00000  Uiso   1.00
C595   C     0.12787   0.17608   0.90913   0.00000  Uiso   1.00
C596   C     0.20436   0.31136   0.71715   0.00000  Uiso   1.00
C597   C     0.14120   0.16969   0.85155   0.00000  Uiso   1.00
C598   C     0.20410   0.02094   0.71806   0.00000  Uiso   1.00
C599   C     0.16584   0.04252   0.75323   0.00000  Uiso   1.00
C600   C     0.12712   0.02160   0.78814   0.00000  Uiso   1.00
C601   C     0.12741   0.31168   0.78590   0.00000  Uiso   1.00
C602   C     0.16586   0.29058   0.75066   0.00000  Uiso   1.00
C603   C     0.31672   0.13371   0.72837   0.00000  Uiso   1.00
C604   C     0.03080   0.13370   0.72952   0.00000  Uiso   1.00
C605   C     0.01823   0.20067   0.76811   0.00000  Uiso   1.00
C606   C     0.30373   0.20071   0.76799   0.00000  Uiso   1.00
C607   C     0.16639   0.08676   0.75142   0.00000  Uiso   1.00
C608   C     0.19248   0.16803   0.64904   0.00000  Uiso   1.00
C609   C     0.26618   0.15599   0.50891   0.00000  Uiso   1.00
C610   C     0.20775   0.17044   0.59266   0.00000  Uiso   1.00
C611   C     0.08008   0.17241   0.93951   0.00000  Uiso   1.00
C612   C     0.06714   0.17131   0.99410   0.00000  Uiso   1.00
C613   C     0.10158   0.17312   0.51913   0.00000  Uiso   1.00
H614   H     0.27731   0.14287   0.58221   0.00000  Uiso   1.00
H615   H     0.23310   0.03728   0.69057   0.00000  Uiso   1.00
H616   H     0.09839   0.29432   0.81206   0.00000  Uiso   1.00
H617   H     0.05454   0.10748   0.71328   0.00000  Uiso   1.00
H618   H     0.03140   0.22768   0.78345   0.00000  Uiso   1.00
H619   H     0.28108   0.22774   0.78326   0.00000  Uiso   1.00
H620   H     0.30201   0.14627   0.98722   0.00000  Uiso   1.00
H621   H     0.05292   0.16834   0.92095   0.00000  Uiso   1.00
H622   H     0.09040   0.16770   0.56105   0.00000  Uiso   1.00
H623   H     0.03049   0.16706   0.51730   0.00000  Uiso   1.00
H624   H     0.22497   0.20094   0.86941   0.00000  Uiso   1.00
H625   H     0.23391   0.29439   0.68979   0.00000  Uiso   1.00
N626   N     0.04760   0.16668   0.75002   0.00000  Uiso   1.00
N627   N     0.28573   0.16665   0.75001   0.00000  Uiso   1.00
O628   O     0.12846   0.22775   0.75001   0.00000  Uiso   1.00
O629   O     0.20490   0.22774   0.75001   0.00000  Uiso   1.00
O630   O     0.10947   0.16666   0.82681   0.00000  Uiso   1.00
O631   O     0.18591   0.16665   0.82681   0.00000  Uiso   1.00
O632   O     0.12843   0.10559   0.75000   0.00000  Uiso   1.00
O633   O     0.20488   0.10558   0.75000   0.00000  Uiso   1.00
O634   O     0.14742   0.16668   0.67319   0.00000  Uiso   1.00
O635   O     0.22387   0.16667   0.67319   0.00000  Uiso   1.00
Zn636  Zn    0.11562   0.16667   0.75000   0.00000  Uiso   1.00
Zn637  Zn    0.21771   0.16666   0.75000   0.00000  Uiso   1.00
C638   C     0.08653   0.04433   0.82833   0.00000  Uiso   1.00
H639   H     0.10057   0.06665   0.85159   0.00000  Uiso   1.00
H640   H     0.06442   0.06157   0.80841   0.00000  Uiso   1.00
H641   H     0.06305   0.02227   0.85631   0.00000  Uiso   1.00
C642   C     0.30239   0.09737   0.70148   0.00000  Uiso   1.00
H643   H     0.00056   0.08073   0.67442   0.00000  Uiso   1.00
H644   H     0.28337   0.07451   0.73144   0.00000  Uiso   1.00
H645   H     0.28076   0.10816   0.67694   0.00000  Uiso   1.00
C646   C     0.29645   0.16509   0.89389   0.00000  Uiso   1.00
H647   H     0.29695   0.16105   0.85285   0.00000  Uiso   1.00
H648   H     0.31945   0.19145   0.89694   0.00000  Uiso   1.00
H649   H     0.31081   0.13499   0.90343   0.00000  Uiso   1.00
I650   I     0.12633   0.23573   0.60573   0.00000  Uiso   1.00
C651   C     0.49980   0.24654   0.74991   0.00000  Uiso   1.00
C652   C     0.48305   0.17912   0.99018   0.00000  Uiso   1.00
C653   C     0.49643   0.18160   0.93490   0.00000  Uiso   1.00
C654   C     0.51908   0.17848   0.51439   0.00000  Uiso   1.00
C655   C     0.56657   0.16845   0.98381   0.00000  Uiso   1.00
C656   C     0.57980   0.17314   0.92932   0.00000  Uiso   1.00
C657   C     0.54541   0.18693   0.90763   0.00000  Uiso   1.00
C658   C     0.50952   0.18644   0.56797   0.00000  Uiso   1.00
C659   C     0.58585   0.15483   0.56324   0.00000  Uiso   1.00
C660   C     0.46120   0.17608   0.90913   0.00000  Uiso   1.00
C661   C     0.53769   0.31136   0.71715   0.00000  Uiso   1.00
C662   C     0.47453   0.16969   0.85155   0.00000  Uiso   1.00
C663   C     0.53743   0.02094   0.71806   0.00000  Uiso   1.00
C664   C     0.49918   0.04252   0.75323   0.00000  Uiso   1.00
C665   C     0.46045   0.02160   0.78814   0.00000  Uiso   1.00
C666   C     0.46074   0.31168   0.78590   0.00000  Uiso   1.00
C667   C     0.49920   0.29058   0.75066   0.00000  Uiso   1.00
C668   C     0.65006   0.13371   0.72837   0.00000  Uiso   1.00
C669   C     0.36413   0.13370   0.72952   0.00000  Uiso   1.00
C670   C     0.35156   0.20067   0.76811   0.00000  Uiso   1.00
C671   C     0.63707   0.20071   0.76799   0.00000  Uiso   1.00
C672   C     0.49972   0.08676   0.75142   0.00000  Uiso   1.00
C673   C     0.52581   0.16803   0.64904   0.00000  Uiso   1.00
C674   C     0.59951   0.15599   0.50891   0.00000  Uiso   1.00
C675   C     0.54108   0.17044   0.59266   0.00000  Uiso   1.00
C676   C     0.41342   0.17241   0.93951   0.00000  Uiso   1.00
C677   C     0.40048   0.17131   0.99410   0.00000  Uiso   1.00
C678   C     0.43492   0.17312   0.51913   0.00000  Uiso   1.00
H679   H     0.61064   0.14287   0.58221   0.00000  Uiso   1.00
H680   H     0.56644   0.03728   0.69057   0.00000  Uiso   1.00
H681   H     0.43172   0.29432   0.81206   0.00000  Uiso   1.00
H682   H     0.38787   0.10748   0.71328   0.00000  Uiso   1.00
H683   H     0.36473   0.22768   0.78345   0.00000  Uiso   1.00
H684   H     0.61441   0.22774   0.78326   0.00000  Uiso   1.00
H685   H     0.63534   0.14627   0.98722   0.00000  Uiso   1.00
H686   H     0.38626   0.16834   0.92095   0.00000  Uiso   1.00
H687   H     0.42373   0.16770   0.56105   0.00000  Uiso   1.00
H688   H     0.36382   0.16706   0.51730   0.00000  Uiso   1.00
H689   H     0.55831   0.20094   0.86941   0.00000  Uiso   1.00
H690   H     0.56725   0.29439   0.68979   0.00000  Uiso   1.00
N691   N     0.38093   0.16668   0.75002   0.00000  Uiso   1.00
N692   N     0.61906   0.16665   0.75001   0.00000  Uiso   1.00
O693   O     0.46179   0.22775   0.75001   0.00000  Uiso   1.00
O694   O     0.53823   0.22774   0.75001   0.00000  Uiso   1.00
O695   O     0.44280   0.16666   0.82681   0.00000  Uiso   1.00
O696   O     0.51924   0.16665   0.82681   0.00000  Uiso   1.00
O697   O     0.46177   0.10559   0.75000   0.00000  Uiso   1.00
O698   O     0.53821   0.10558   0.75000   0.00000  Uiso   1.00
O699   O     0.48076   0.16668   0.67319   0.00000  Uiso   1.00
O700   O     0.55720   0.16667   0.67319   0.00000  Uiso   1.00
Zn701  Zn    0.44896   0.16667   0.75000   0.00000  Uiso   1.00
Zn702  Zn    0.55104   0.16666   0.75000   0.00000  Uiso   1.00
C703   C     0.41986   0.04433   0.82833   0.00000  Uiso   1.00
H704   H     0.43390   0.06665   0.85159   0.00000  Uiso   1.00
H705   H     0.39775   0.06157   0.80841   0.00000  Uiso   1.00
H706   H     0.39638   0.02227   0.85631   0.00000  Uiso   1.00
C707   C     0.63572   0.09737   0.70148   0.00000  Uiso   1.00
H708   H     0.33389   0.08073   0.67442   0.00000  Uiso   1.00
H709   H     0.61670   0.07451   0.73144   0.00000  Uiso   1.00
H710   H     0.61409   0.10816   0.67694   0.00000  Uiso   1.00
C711   C     0.62979   0.16509   0.89389   0.00000  Uiso   1.00
H712   H     0.63028   0.16105   0.85285   0.00000  Uiso   1.00
H713   H     0.65278   0.19145   0.89694   0.00000  Uiso   1.00
H714   H     0.64414   0.13499   0.90343   0.00000  Uiso   1.00
I715   I     0.45966   0.23573   0.60573   0.00000  Uiso   1.00
C716   C     0.83313   0.24654   0.74991   0.00000  Uiso   1.00
C717   C     0.81638   0.17912   0.99018   0.00000  Uiso   1.00
C718   C     0.82977   0.18160   0.93490   0.00000  Uiso   1.00
C719   C     0.85242   0.17848   0.51439   0.00000  Uiso   1.00
C720   C     0.89990   0.16845   0.98381   0.00000  Uiso   1.00
C721   C     0.91314   0.17314   0.92932   0.00000  Uiso   1.00
C722   C     0.87874   0.18693   0.90763   0.00000  Uiso   1.00
C723   C     0.84286   0.18644   0.56797   0.00000  Uiso   1.00
C724   C     0.91919   0.15483   0.56324   0.00000  Uiso   1.00
C725   C     0.79453   0.17608   0.90913   0.00000  Uiso   1.00
C726   C     0.87103   0.31136   0.71715   0.00000  Uiso   1.00
C727   C     0.80786   0.16969   0.85155   0.00000  Uiso   1.00
C728   C     0.87076   0.02094   0.71806   0.00000  Uiso   1.00
C729   C     0.83251   0.04252   0.75323   0.00000  Uiso   1.00
C730   C     0.79378   0.02160   0.78814   0.00000  Uiso   1.00
C731   C     0.79408   0.31168   0.78590   0.00000  Uiso   1.00
C732   C     0.83253   0.29058   0.75066   0.00000  Uiso   1.00
C733   C     0.98339   0.13371   0.72837   0.00000  Uiso   1.00
C734   C     0.69746   0.13370   0.72952   0.00000  Uiso   1.00
C735   C     0.68489   0.20067   0.76811   0.00000  Uiso   1.00
C736   C     0.97040   0.20071   0.76799   0.00000  Uiso   1.00
C737   C     0.83306   0.08676   0.75142   0.00000  Uiso   1.00
C738   C     0.85914   0.16803   0.64904   0.00000  Uiso   1.00
C739   C     0.93285   0.15599   0.50891   0.00000  Uiso   1.00
C740   C     0.87442   0.17044   0.59266   0.00000  Uiso   1.00
C741   C     0.74675   0.17241   0.93951   0.00000  Uiso   1.00
C742   C     0.73381   0.17131   0.99410   0.00000  Uiso   1.00
C743   C     0.76825   0.17312   0.51913   0.00000  Uiso   1.00
H744   H     0.94398   0.14287   0.58221   0.00000  Uiso   1.00
H745   H     0.89977   0.03728   0.69057   0.00000  Uiso   1.00
H746   H     0.76506   0.29432   0.81206   0.00000  Uiso   1.00
H747   H     0.72120   0.10748   0.71328   0.00000  Uiso   1.00
H748   H     0.69806   0.22768   0.78345   0.00000  Uiso   1.00
H749   H     0.94775   0.22774   0.78326   0.00000  Uiso   1.00
H750   H     0.96867   0.14627   0.98722   0.00000  Uiso   1.00
H751   H     0.71959   0.16834   0.92095   0.00000  Uiso   1.00
H752   H     0.75706   0.16770   0.56105   0.00000  Uiso   1.00
H753   H     0.69715   0.16706   0.51730   0.00000  Uiso   1.00
H754   H     0.89164   0.20094   0.86941   0.00000  Uiso   1.00
H755   H     0.90058   0.29439   0.68979   0.00000  Uiso   1.00
N756   N     0.71426   0.16668   0.75002   0.00000  Uiso   1.00
N757   N     0.95239   0.16665   0.75001   0.00000  Uiso   1.00
O758   O     0.79512   0.22775   0.75001   0.00000  Uiso   1.00
O759   O     0.87157   0.22774   0.75001   0.00000  Uiso   1.00
O760   O     0.77613   0.16666   0.82681   0.00000  Uiso   1.00
O761   O     0.85258   0.16665   0.82681   0.00000  Uiso   1.00
O762   O     0.79510   0.10559   0.75000   0.00000  Uiso   1.00
O763   O     0.87154   0.10558   0.75000   0.00000  Uiso   1.00
O764   O     0.81409   0.16668   0.67319   0.00000  Uiso   1.00
O765   O     0.89053   0.16667   0.67319   0.00000  Uiso   1.00
Zn766  Zn    0.78229   0.16667   0.75000   0.00000  Uiso   1.00
Zn767  Zn    0.88438   0.16666   0.75000   0.00000  Uiso   1.00
C768   C     0.75320   0.04433   0.82833   0.00000  Uiso   1.00
H769   H     0.76723   0.06665   0.85159   0.00000  Uiso   1.00
H770   H     0.73108   0.06157   0.80841   0.00000  Uiso   1.00
H771   H     0.72971   0.02227   0.85631   0.00000  Uiso   1.00
C772   C     0.96906   0.09737   0.70148   0.00000  Uiso   1.00
H773   H     0.66723   0.08073   0.67442   0.00000  Uiso   1.00
H774   H     0.95004   0.07451   0.73144   0.00000  Uiso   1.00
H775   H     0.94742   0.10816   0.67694   0.00000  Uiso   1.00
C776   C     0.96312   0.16509   0.89389   0.00000  Uiso   1.00
H777   H     0.96361   0.16105   0.85285   0.00000  Uiso   1.00
H778   H     0.98612   0.19145   0.89694   0.00000  Uiso   1.00
H779   H     0.97747   0.13499   0.90343   0.00000  Uiso   1.00
I780   I     0.79299   0.23573   0.60573   0.00000  Uiso   1.00
C781   C     0.16646   0.57988   0.74991   0.00000  Uiso   1.00
C782   C     0.14972   0.51245   0.99018   0.00000  Uiso   1.00
C783   C     0.16310   0.51493   0.93490   0.00000  Uiso   1.00
C784   C     0.18575   0.51182   0.51439   0.00000  Uiso   1.00
C785   C     0.23323   0.50178   0.98381   0.00000  Uiso   1.00
C786   C     0.24647   0.50647   0.92932   0.00000  Uiso   1.00
C787   C     0.21208   0.52026   0.90763   0.00000  Uiso   1.00
C788   C     0.17619   0.51977   0.56797   0.00000  Uiso   1.00
C789   C     0.25252   0.48816   0.56324   0.00000  Uiso   1.00
C790   C     0.12787   0.50942   0.90913   0.00000  Uiso   1.00
C791   C     0.20436   0.64470   0.71715   0.00000  Uiso   1.00
C792   C     0.14120   0.50302   0.85155   0.00000  Uiso   1.00
C793   C     0.20410   0.35427   0.71806   0.00000  Uiso   1.00
C794   C     0.16584   0.37585   0.75323   0.00000  Uiso   1.00
C795   C     0.12712   0.35493   0.78814   0.00000  Uiso   1.00
C796   C     0.12741   0.64501   0.78590   0.00000  Uiso   1.00
C797   C     0.16586   0.62392   0.75066   0.00000  Uiso   1.00
C798   C     0.31672   0.46705   0.72837   0.00000  Uiso   1.00
C799   C     0.03080   0.46704   0.72952   0.00000  Uiso   1.00
C800   C     0.01823   0.53401   0.76811   0.00000  Uiso   1.00
C801   C     0.30373   0.53405   0.76799   0.00000  Uiso   1.00
C802   C     0.16639   0.42010   0.75142   0.00000  Uiso   1.00
C803   C     0.19248   0.50137   0.64904   0.00000  Uiso   1.00
C804   C     0.26618   0.48933   0.50891   0.00000  Uiso   1.00
C805   C     0.20775   0.50377   0.59266   0.00000  Uiso   1.00
C806   C     0.08008   0.50575   0.93951   0.00000  Uiso   1.00
C807   C     0.06714   0.50464   0.99410   0.00000  Uiso   1.00
C808   C     0.10158   0.50645   0.51913   0.00000  Uiso   1.00
H809   H     0.27731   0.47620   0.58221   0.00000  Uiso   1.00
H810   H     0.23310   0.37061   0.69057   0.00000  Uiso   1.00
H811   H     0.09839   0.62766   0.81206   0.00000  Uiso   1.00
H812   H     0.05454   0.44081   0.71328   0.00000  Uiso   1.00
H813   H     0.03140   0.56101   0.78345   0.00000  Uiso   1.00
H814   H     0.28108   0.56107   0.78326   0.00000  Uiso   1.00
H815   H     0.30201   0.47960   0.98722   0.00000  Uiso   1.00
H816   H     0.05292   0.50167   0.92095   0.00000  Uiso   1.00
H817   H     0.09040   0.50103   0.56105   0.00000  Uiso   1.00
H818   H     0.03049   0.50039   0.51730   0.00000  Uiso   1.00
H819   H     0.22497   0.53427   0.86941   0.00000  Uiso   1.00
H820   H     0.23391   0.62772   0.68979   0.00000  Uiso   1.00
N821   N     0.04760   0.50001   0.75002   0.00000  Uiso   1.00
N822   N     0.28573   0.49998   0.75001   0.00000  Uiso   1.00
O823   O     0.12846   0.56108   0.75001   0.00000  Uiso   1.00
O824   O     0.20490   0.56107   0.75001   0.00000  Uiso   1.00
O825   O     0.10947   0.50000   0.82681   0.00000  Uiso   1.00
O826   O     0.18591   0.49999   0.82681   0.00000  Uiso   1.00
O827   O     0.12843   0.43893   0.75000   0.00000  Uiso   1.00
O828   O     0.20488   0.43892   0.75000   0.00000  Uiso   1.00
O829   O     0.14742   0.50001   0.67319   0.00000  Uiso   1.00
O830   O     0.22387   0.50000   0.67319   0.00000  Uiso   1.00
Zn831  Zn    0.11562   0.50001   0.75000   0.00000  Uiso   1.00
Zn832  Zn    0.21771   0.49999   0.75000   0.00000  Uiso   1.00
C833   C     0.08653   0.37767   0.82833   0.00000  Uiso   1.00
H834   H     0.10057   0.39998   0.85159   0.00000  Uiso   1.00
H835   H     0.06442   0.39490   0.80841   0.00000  Uiso   1.00
H836   H     0.06305   0.35560   0.85631   0.00000  Uiso   1.00
C837   C     0.30239   0.43071   0.70148   0.00000  Uiso   1.00
H838   H     0.00056   0.41406   0.67442   0.00000  Uiso   1.00
H839   H     0.28337   0.40784   0.73144   0.00000  Uiso   1.00
H840   H     0.28076   0.44150   0.67694   0.00000  Uiso   1.00
C841   C     0.29645   0.49842   0.89389   0.00000  Uiso   1.00
H842   H     0.29695   0.49438   0.85285   0.00000  Uiso   1.00
H843   H     0.31945   0.52479   0.89694   0.00000  Uiso   1.00
H844   H     0.31081   0.46832   0.90343   0.00000  Uiso   1.00
I845   I     0.12633   0.56907   0.60573   0.00000  Uiso   1.00
C846   C     0.49980   0.57988   0.74991   0.00000  Uiso   1.00
C847   C     0.48305   0.51245   0.99018   0.00000  Uiso   1.00
C848   C     0.49643   0.51493   0.93490   0.00000  Uiso   1.00
C849   C     0.51908   0.51182   0.51439   0.00000  Uiso   1.00
C850   C     0.56657   0.50178   0.98381   0.00000  Uiso   1.00
C851   C     0.57980   0.50647   0.92932   0.00000  Uiso   1.00
C852   C     0.54541   0.52026   0.90763   0.00000  Uiso   1.00
C853   C     0.50952   0.51977   0.56797   0.00000  Uiso   1.00
C854   C     0.58585   0.48816   0.56324   0.00000  Uiso   1.00
C855   C     0.46120   0.50942   0.90913   0.00000  Uiso   1.00
C856   C     0.53769   0.64470   0.71715   0.00000  Uiso   1.00
C857   C     0.47453   0.50302   0.85155   0.00000  Uiso   1.00
C858   C     0.53743   0.35427   0.71806   0.00000  Uiso   1.00
C859   C     0.49918   0.37585   0.75323   0.00000  Uiso   1.00
C860   C     0.46045   0.35493   0.78814   0.00000  Uiso   1.00
C861   C     0.46074   0.64501   0.78590   0.00000  Uiso   1.00
C862   C     0.49920   0.62392   0.75066   0.00000  Uiso   1.00
C863   C     0.65006   0.46705   0.72837   0.00000  Uiso   1.00
C864   C     0.36413   0.46704   0.72952   0.00000  Uiso   1.00
C865   C     0.35156   0.53401   0.76811   0.00000  Uiso   1.00
C866   C     0.63707   0.53405   0.76799   0.00000  Uiso   1.00
C867   C     0.49972   0.42010   0.75142   0.00000  Uiso   1.00
C868   C     0.52581   0.50137   0.64904   0.00000  Uiso   1.00
C869   C     0.59951   0.48933   0.50891   0.00000  Uiso   1.00
C870   C     0.54108   0.50377   0.59266   0.00000  Uiso   1.00
C871   C     0.41342   0.50575   0.93951   0.00000  Uiso   1.00
C872   C     0.40048   0.50464   0.99410   0.00000  Uiso   1.00
C873   C     0.43492   0.50645   0.51913   0.00000  Uiso   1.00
H874   H     0.61064   0.47620   0.58221   0.00000  Uiso   1.00
H875   H     0.56644   0.37061   0.69057   0.00000  Uiso   1.00
H876   H     0.43172   0.62766   0.81206   0.00000  Uiso   1.00
H877   H     0.38787   0.44081   0.71328   0.00000  Uiso   1.00
H878   H     0.36473   0.56101   0.78345   0.00000  Uiso   1.00
H879   H     0.61441   0.56107   0.78326   0.00000  Uiso   1.00
H880   H     0.63534   0.47960   0.98722   0.00000  Uiso   1.00
H881   H     0.38626   0.50167   0.92095   0.00000  Uiso   1.00
H882   H     0.42373   0.50103   0.56105   0.00000  Uiso   1.00
H883   H     0.36382   0.50039   0.51730   0.00000  Uiso   1.00
H884   H     0.55831   0.53427   0.86941   0.00000  Uiso   1.00
H885   H     0.56725   0.62772   0.68979   0.00000  Uiso   1.00
N886   N     0.38093   0.50001   0.75002   0.00000  Uiso   1.00
N887   N     0.61906   0.49998   0.75001   0.00000  Uiso   1.00
O888   O     0.46179   0.56108   0.75001   0.00000  Uiso   1.00
O889   O     0.53823   0.56107   0.75001   0.00000  Uiso   1.00
O890   O     0.44280   0.50000   0.82681   0.00000  Uiso   1.00
O891   O     0.51924   0.49999   0.82681   0.00000  Uiso   1.00
O892   O     0.46177   0.43893   0.75000   0.00000  Uiso   1.00
O893   O     0.53821   0.43892   0.75000   0.00000  Uiso   1.00
O894   O     0.48076   0.50001   0.67319   0.00000  Uiso   1.00
O895   O     0.55720   0.50000   0.67319   0.00000  Uiso   1.00
Zn896  Zn    0.44896   0.50001   0.75000   0.00000  Uiso   1.00
Zn897  Zn    0.55104   0.49999   0.75000   0.00000  Uiso   1.00
C898   C     0.41986   0.37767   0.82833   0.00000  Uiso   1.00
H899   H     0.43390   0.39998   0.85159   0.00000  Uiso   1.00
H900   H     0.39775   0.39490   0.80841   0.00000  Uiso   1.00
H901   H     0.39638   0.35560   0.85631   0.00000  Uiso   1.00
C902   C     0.63572   0.43071   0.70148   0.00000  Uiso   1.00
H903   H     0.33389   0.41406   0.67442   0.00000  Uiso   1.00
H904   H     0.61670   0.40784   0.73144   0.00000  Uiso   1.00
H905   H     0.61409   0.44150   0.67694   0.00000  Uiso   1.00
C906   C     0.62979   0.49842   0.89389   0.00000  Uiso   1.00
H907   H     0.63028   0.49438   0.85285   0.00000  Uiso   1.00
H908   H     0.65278   0.52479   0.89694   0.00000  Uiso   1.00
H909   H     0.64414   0.46832   0.90343   0.00000  Uiso   1.00
I910   I     0.45966   0.56907   0.60573   0.00000  Uiso   1.00
C911   C     0.83313   0.57988   0.74991   0.00000  Uiso   1.00
C912   C     0.81638   0.51245   0.99018   0.00000  Uiso   1.00
C913   C     0.82977   0.51493   0.93490   0.00000  Uiso   1.00
C914   C     0.85242   0.51182   0.51439   0.00000  Uiso   1.00
C915   C     0.89990   0.50178   0.98381   0.00000  Uiso   1.00
C916   C     0.91314   0.50647   0.92932   0.00000  Uiso   1.00
C917   C     0.87874   0.52026   0.90763   0.00000  Uiso   1.00
C918   C     0.84286   0.51977   0.56797   0.00000  Uiso   1.00
C919   C     0.91919   0.48816   0.56324   0.00000  Uiso   1.00
C920   C     0.79453   0.50942   0.90913   0.00000  Uiso   1.00
C921   C     0.87103   0.64470   0.71715   0.00000  Uiso   1.00
C922   C     0.80786   0.50302   0.85155   0.00000  Uiso   1.00
C923   C     0.87076   0.35427   0.71806   0.00000  Uiso   1.00
C924   C     0.83251   0.37585   0.75323   0.00000  Uiso   1.00
C925   C     0.79378   0.35493   0.78814   0.00000  Uiso   1.00
C926   C     0.79408   0.64501   0.78590   0.00000  Uiso   1.00
C927   C     0.83253   0.62392   0.75066   0.00000  Uiso   1.00
C928   C     0.98339   0.46705   0.72837   0.00000  Uiso   1.00
C929   C     0.69746   0.46704   0.72952   0.00000  Uiso   1.00
C930   C     0.68489   0.53401   0.76811   0.00000  Uiso   1.00
C931   C     0.97040   0.53405   0.76799   0.00000  Uiso   1.00
C932   C     0.83306   0.42010   0.75142   0.00000  Uiso   1.00
C933   C     0.85914   0.50137   0.64904   0.00000  Uiso   1.00
C934   C     0.93285   0.48933   0.50891   0.00000  Uiso   1.00
C935   C     0.87442   0.50377   0.59266   0.00000  Uiso   1.00
C936   C     0.74675   0.50575   0.93951   0.00000  Uiso   1.00
C937   C     0.73381   0.50464   0.99410   0.00000  Uiso   1.00
C938   C     0.76825   0.50645   0.51913   0.00000  Uiso   1.00
H939   H     0.94398   0.47620   0.58221   0.00000  Uiso   1.00
H940   H     0.89977   0.37061   0.69057   0.00000  Uiso   1.00
H941   H     0.76506   0.62766   0.81206   0.00000  Uiso   1.00
H942   H     0.72120   0.44081   0.71328   0.00000  Uiso   1.00
H943   H     0.69806   0.56101   0.78345   0.00000  Uiso   1.00
H944   H     0.94775   0.56107   0.78326   0.00000  Uiso   1.00
H945   H     0.96867   0.47960   0.98722   0.00000  Uiso   1.00
H946   H     0.71959   0.50167   0.92095   0.00000  Uiso   1.00
H947   H     0.75706   0.50103   0.56105   0.00000  Uiso   1.00
H948   H     0.69715   0.50039   0.51730   0.00000  Uiso   1.00
H949   H     0.89164   0.53427   0.86941   0.00000  Uiso   1.00
H950   H     0.90058   0.62772   0.68979   0.00000  Uiso   1.00
N951   N     0.71426   0.50001   0.75002   0.00000  Uiso   1.00
N952   N     0.95239   0.49998   0.75001   0.00000  Uiso   1.00
O953   O     0.79512   0.56108   0.75001   0.00000  Uiso   1.00
O954   O     0.87157   0.56107   0.75001   0.00000  Uiso   1.00
O955   O     0.77613   0.50000   0.82681   0.00000  Uiso   1.00
O956   O     0.85258   0.49999   0.82681   0.00000  Uiso   1.00
O957   O     0.79510   0.43893   0.75000   0.00000  Uiso   1.00
O958   O     0.87154   0.43892   0.75000   0.00000  Uiso   1.00
O959   O     0.81409   0.50001   0.67319   0.00000  Uiso   1.00
O960   O     0.89053   0.50000   0.67319   0.00000  Uiso   1.00
Zn961  Zn    0.78229   0.50001   0.75000   0.00000  Uiso   1.00
Zn962  Zn    0.88438   0.49999   0.75000   0.00000  Uiso   1.00
C963   C     0.75320   0.37767   0.82833   0.00000  Uiso   1.00
H964   H     0.76723   0.39998   0.85159   0.00000  Uiso   1.00
H965   H     0.73108   0.39490   0.80841   0.00000  Uiso   1.00
H966   H     0.72971   0.35560   0.85631   0.00000  Uiso   1.00
C967   C     0.96906   0.43071   0.70148   0.00000  Uiso   1.00
H968   H     0.66723   0.41406   0.67442   0.00000  Uiso   1.00
H969   H     0.95004   0.40784   0.73144   0.00000  Uiso   1.00
H970   H     0.94742   0.44150   0.67694   0.00000  Uiso   1.00
C971   C     0.96312   0.49842   0.89389   0.00000  Uiso   1.00
H972   H     0.96361   0.49438   0.85285   0.00000  Uiso   1.00
H973   H     0.98612   0.52479   0.89694   0.00000  Uiso   1.00
H974   H     0.97747   0.46832   0.90343   0.00000  Uiso   1.00
I975   I     0.79299   0.56907   0.60573   0.00000  Uiso   1.00
C976   C     0.16646   0.91321   0.74991   0.00000  Uiso   1.00
C977   C     0.14972   0.84579   0.99018   0.00000  Uiso   1.00
C978   C     0.16310   0.84826   0.93490   0.00000  Uiso   1.00
C979   C     0.18575   0.84515   0.51439   0.00000  Uiso   1.00
C980   C     0.23323   0.83512   0.98381   0.00000  Uiso   1.00
C981   C     0.24647   0.83981   0.92932   0.00000  Uiso   1.00
C982   C     0.21208   0.85360   0.90763   0.00000  Uiso   1.00
C983   C     0.17619   0.85310   0.56797   0.00000  Uiso   1.00
C984   C     0.25252   0.82149   0.56324   0.00000  Uiso   1.00
C985   C     0.12787   0.84275   0.90913   0.00000  Uiso   1.00
C986   C     0.20436   0.97803   0.71715   0.00000  Uiso   1.00
C987   C     0.14120   0.83636   0.85155   0.00000  Uiso   1.00
C988   C     0.20410   0.68761   0.71806   0.00000  Uiso   1.00
C989   C     0.16584   0.70919   0.75323   0.00000  Uiso   1.00
C990   C     0.12712   0.68826   0.78814   0.00000  Uiso   1.00
C991   C     0.12741   0.97835   0.78590   0.00000  Uiso   1.00
C992   C     0.16586   0.95725   0.75066   0.00000  Uiso   1.00
C993   C     0.31672   0.80038   0.72837   0.00000  Uiso   1.00
C994   C     0.03080   0.80037   0.72952   0.00000  Uiso   1.00
C995   C     0.01823   0.86734   0.76811   0.00000  Uiso   1.00
C996   C     0.30373   0.86738   0.76799   0.00000  Uiso   1.00
C997   C     0.16639   0.75343   0.75142   0.00000  Uiso   1.00
C998   C     0.19248   0.83470   0.64904   0.00000  Uiso   1.00
C999   C     0.26618   0.82266   0.50891   0.00000  Uiso   1.00
C1000  C     0.20775   0.83710   0.59266   0.00000  Uiso   1.00
C1001  C     0.08008   0.83908   0.93951   0.00000  Uiso   1.00
C1002  C     0.06714   0.83798   0.99410   0.00000  Uiso   1.00
C1003  C     0.10158   0.83978   0.51913   0.00000  Uiso   1.00
H1004  H     0.27731   0.80954   0.58221   0.00000  Uiso   1.00
H1005  H     0.23310   0.70394   0.69057   0.00000  Uiso   1.00
H1006  H     0.09839   0.96099   0.81206   0.00000  Uiso   1.00
H1007  H     0.05454   0.77415   0.71328   0.00000  Uiso   1.00
H1008  H     0.03140   0.89434   0.78345   0.00000  Uiso   1.00
H1009  H     0.28108   0.89441   0.78326   0.00000  Uiso   1.00
H1010  H     0.30201   0.81294   0.98722   0.00000  Uiso   1.00
H1011  H     0.05292   0.83501   0.92095   0.00000  Uiso   1.00
H1012  H     0.09040   0.83437   0.56105   0.00000  Uiso   1.00
H1013  H     0.03049   0.83373   0.51730   0.00000  Uiso   1.00
H1014  H     0.22497   0.86760   0.86941   0.00000  Uiso   1.00
H1015  H     0.23391   0.96106   0.68979   0.00000  Uiso   1.00
N1016  N     0.04760   0.83334   0.75002   0.00000  Uiso   1.00
N1017  N     0.28573   0.83331   0.75001   0.00000  Uiso   1.00
O1018  O     0.12846   0.89442   0.75001   0.00000  Uiso   1.00
O1019  O     0.20490   0.89441   0.75001   0.00000  Uiso   1.00
O1020  O     0.10947   0.83333   0.82681   0.00000  Uiso   1.00
O1021  O     0.18591   0.83332   0.82681   0.00000  Uiso   1.00
O1022  O     0.12843   0.77226   0.75000   0.00000  Uiso   1.00
O1023  O     0.20488   0.77225   0.75000   0.00000  Uiso   1.00
O1024  O     0.14742   0.83335   0.67319   0.00000  Uiso   1.00
O1025  O     0.22387   0.83334   0.67319   0.00000  Uiso   1.00
Zn1026 Zn    0.11562   0.83334   0.75000   0.00000  Uiso   1.00
Zn1027 Zn    0.21771   0.83333   0.75000   0.00000  Uiso   1.00
C1028  C     0.08653   0.71100   0.82833   0.00000  Uiso   1.00
H1029  H     0.10057   0.73332   0.85159   0.00000  Uiso   1.00
H1030  H     0.06442   0.72823   0.80841   0.00000  Uiso   1.00
H1031  H     0.06305   0.68893   0.85631   0.00000  Uiso   1.00
C1032  C     0.30239   0.76404   0.70148   0.00000  Uiso   1.00
H1033  H     0.00056   0.74740   0.67442   0.00000  Uiso   1.00
H1034  H     0.28337   0.74117   0.73144   0.00000  Uiso   1.00
H1035  H     0.28076   0.77483   0.67694   0.00000  Uiso   1.00
C1036  C     0.29645   0.83176   0.89389   0.00000  Uiso   1.00
H1037  H     0.29695   0.82771   0.85285   0.00000  Uiso   1.00
H1038  H     0.31945   0.85812   0.89694   0.00000  Uiso   1.00
H1039  H     0.31081   0.80166   0.90343   0.00000  Uiso   1.00
I1040  I     0.12633   0.90240   0.60573   0.00000  Uiso   1.00
C1041  C     0.49980   0.91321   0.74991   0.00000  Uiso   1.00
C1042  C     0.48305   0.84579   0.99018   0.00000  Uiso   1.00
C1043  C     0.49643   0.84826   0.93490   0.00000  Uiso   1.00
C1044  C     0.51908   0.84515   0.51439   0.00000  Uiso   1.00
C1045  C     0.56657   0.83512   0.98381   0.00000  Uiso   1.00
C1046  C     0.57980   0.83981   0.92932   0.00000  Uiso   1.00
C1047  C     0.54541   0.85360   0.90763   0.00000  Uiso   1.00
C1048  C     0.50952   0.85310   0.56797   0.00000  Uiso   1.00
C1049  C     0.58585   0.82149   0.56324   0.00000  Uiso   1.00
C1050  C     0.46120   0.84275   0.90913   0.00000  Uiso   1.00
C1051  C     0.53769   0.97803   0.71715   0.00000  Uiso   1.00
C1052  C     0.47453   0.83636   0.85155   0.00000  Uiso   1.00
C1053  C     0.53743   0.68761   0.71806   0.00000  Uiso   1.00
C1054  C     0.49918   0.70919   0.75323   0.00000  Uiso   1.00
C1055  C     0.46045   0.68826   0.78814   0.00000  Uiso   1.00
C1056  C     0.46074   0.97835   0.78590   0.00000  Uiso   1.00
C1057  C     0.49920   0.95725   0.75066   0.00000  Uiso   1.00
C1058  C     0.65006   0.80038   0.72837   0.00000  Uiso   1.00
C1059  C     0.36413   0.80037   0.72952   0.00000  Uiso   1.00
C1060  C     0.35156   0.86734   0.76811   0.00000  Uiso   1.00
C1061  C     0.63707   0.86738   0.76799   0.00000  Uiso   1.00
C1062  C     0.49972   0.75343   0.75142   0.00000  Uiso   1.00
C1063  C     0.52581   0.83470   0.64904   0.00000  Uiso   1.00
C1064  C     0.59951   0.82266   0.50891   0.00000  Uiso   1.00
C1065  C     0.54108   0.83710   0.59266   0.00000  Uiso   1.00
C1066  C     0.41342   0.83908   0.93951   0.00000  Uiso   1.00
C1067  C     0.40048   0.83798   0.99410   0.00000  Uiso   1.00
C1068  C     0.43492   0.83978   0.51913   0.00000  Uiso   1.00
H1069  H     0.61064   0.80954   0.58221   0.00000  Uiso   1.00
H1070  H     0.56644   0.70394   0.69057   0.00000  Uiso   1.00
H1071  H     0.43172   0.96099   0.81206   0.00000  Uiso   1.00
H1072  H     0.38787   0.77415   0.71328   0.00000  Uiso   1.00
H1073  H     0.36473   0.89434   0.78345   0.00000  Uiso   1.00
H1074  H     0.61441   0.89441   0.78326   0.00000  Uiso   1.00
H1075  H     0.63534   0.81294   0.98722   0.00000  Uiso   1.00
H1076  H     0.38626   0.83501   0.92095   0.00000  Uiso   1.00
H1077  H     0.42373   0.83437   0.56105   0.00000  Uiso   1.00
H1078  H     0.36382   0.83373   0.51730   0.00000  Uiso   1.00
H1079  H     0.55831   0.86760   0.86941   0.00000  Uiso   1.00
H1080  H     0.56725   0.96106   0.68979   0.00000  Uiso   1.00
N1081  N     0.38093   0.83334   0.75002   0.00000  Uiso   1.00
N1082  N     0.61906   0.83331   0.75001   0.00000  Uiso   1.00
O1083  O     0.46179   0.89442   0.75001   0.00000  Uiso   1.00
O1084  O     0.53823   0.89441   0.75001   0.00000  Uiso   1.00
O1085  O     0.44280   0.83333   0.82681   0.00000  Uiso   1.00
O1086  O     0.51924   0.83332   0.82681   0.00000  Uiso   1.00
O1087  O     0.46177   0.77226   0.75000   0.00000  Uiso   1.00
O1088  O     0.53821   0.77225   0.75000   0.00000  Uiso   1.00
O1089  O     0.48076   0.83335   0.67319   0.00000  Uiso   1.00
O1090  O     0.55720   0.83334   0.67319   0.00000  Uiso   1.00
Zn1091 Zn    0.44896   0.83334   0.75000   0.00000  Uiso   1.00
Zn1092 Zn    0.55104   0.83333   0.75000   0.00000  Uiso   1.00
C1093  C     0.41986   0.71100   0.82833   0.00000  Uiso   1.00
H1094  H     0.43390   0.73332   0.85159   0.00000  Uiso   1.00
H1095  H     0.39775   0.72823   0.80841   0.00000  Uiso   1.00
H1096  H     0.39638   0.68893   0.85631   0.00000  Uiso   1.00
C1097  C     0.63572   0.76404   0.70148   0.00000  Uiso   1.00
H1098  H     0.33389   0.74740   0.67442   0.00000  Uiso   1.00
H1099  H     0.61670   0.74117   0.73144   0.00000  Uiso   1.00
H1100  H     0.61409   0.77483   0.67694   0.00000  Uiso   1.00
C1101  C     0.62979   0.83176   0.89389   0.00000  Uiso   1.00
H1102  H     0.63028   0.82771   0.85285   0.00000  Uiso   1.00
H1103  H     0.65278   0.85812   0.89694   0.00000  Uiso   1.00
H1104  H     0.64414   0.80166   0.90343   0.00000  Uiso   1.00
I1105  I     0.45966   0.90240   0.60573   0.00000  Uiso   1.00
C1106  C     0.83313   0.91321   0.74991   0.00000  Uiso   1.00
C1107  C     0.81638   0.84579   0.99018   0.00000  Uiso   1.00
C1108  C     0.82977   0.84826   0.93490   0.00000  Uiso   1.00
C1109  C     0.85242   0.84515   0.51439   0.00000  Uiso   1.00
C1110  C     0.89990   0.83512   0.98381   0.00000  Uiso   1.00
C1111  C     0.91314   0.83981   0.92932   0.00000  Uiso   1.00
C1112  C     0.87874   0.85360   0.90763   0.00000  Uiso   1.00
C1113  C     0.84286   0.85310   0.56797   0.00000  Uiso   1.00
C1114  C     0.91919   0.82149   0.56324   0.00000  Uiso   1.00
C1115  C     0.79453   0.84275   0.90913   0.00000  Uiso   1.00
C1116  C     0.87103   0.97803   0.71715   0.00000  Uiso   1.00
C1117  C     0.80786   0.83636   0.85155   0.00000  Uiso   1.00
C1118  C     0.87076   0.68761   0.71806   0.00000  Uiso   1.00
C1119  C     0.83251   0.70919   0.75323   0.00000  Uiso   1.00
C1120  C     0.79378   0.68826   0.78814   0.00000  Uiso   1.00
C1121  C     0.79408   0.97835   0.78590   0.00000  Uiso   1.00
C1122  C     0.83253   0.95725   0.75066   0.00000  Uiso   1.00
C1123  C     0.98339   0.80038   0.72837   0.00000  Uiso   1.00
C1124  C     0.69746   0.80037   0.72952   0.00000  Uiso   1.00
C1125  C     0.68489   0.86734   0.76811   0.00000  Uiso   1.00
C1126  C     0.97040   0.86738   0.76799   0.00000  Uiso   1.00
C1127  C     0.83306   0.75343   0.75142   0.00000  Uiso   1.00
C1128  C     0.85914   0.83470   0.64904   0.00000  Uiso   1.00
C1129  C     0.93285   0.82266   0.50891   0.00000  Uiso   1.00
C1130  C     0.87442   0.83710   0.59266   0.00000  Uiso   1.00
C1131  C     0.74675   0.83908   0.93951   0.00000  Uiso   1.00
C1132  C     0.73381   0.83798   0.99410   0.00000  Uiso   1.00
C1133  C     0.76825   0.83978   0.51913   0.00000  Uiso   1.00
H1134  H     0.94398   0.80954   0.58221   0.00000  Uiso   1.00
H1135  H     0.89977   0.70394   0.69057   0.00000  Uiso   1.00
H1136  H     0.76506   0.96099   0.81206   0.00000  Uiso   1.00
H1137  H     0.72120   0.77415   0.71328   0.00000  Uiso   1.00
H1138  H     0.69806   0.89434   0.78345   0.00000  Uiso   1.00
H1139  H     0.94775   0.89441   0.78326   0.00000  Uiso   1.00
H1140  H     0.96867   0.81294   0.98722   0.00000  Uiso   1.00
H1141  H     0.71959   0.83501   0.92095   0.00000  Uiso   1.00
H1142  H     0.75706   0.83437   0.56105   0.00000  Uiso   1.00
H1143  H     0.69715   0.83373   0.51730   0.00000  Uiso   1.00
H1144  H     0.89164   0.86760   0.86941   0.00000  Uiso   1.00
H1145  H     0.90058   0.96106   0.68979   0.00000  Uiso   1.00
N1146  N     0.71426   0.83334   0.75002   0.00000  Uiso   1.00
N1147  N     0.95239   0.83331   0.75001   0.00000  Uiso   1.00
O1148  O     0.79512   0.89442   0.75001   0.00000  Uiso   1.00
O1149  O     0.87157   0.89441   0.75001   0.00000  Uiso   1.00
O1150  O     0.77613   0.83333   0.82681   0.00000  Uiso   1.00
O1151  O     0.85258   0.83332   0.82681   0.00000  Uiso   1.00
O1152  O     0.79510   0.77226   0.75000   0.00000  Uiso   1.00
O1153  O     0.87154   0.77225   0.75000   0.00000  Uiso   1.00
O1154  O     0.81409   0.83335   0.67319   0.00000  Uiso   1.00
O1155  O     0.89053   0.83334   0.67319   0.00000  Uiso   1.00
Zn1156 Zn    0.78229   0.83334   0.75000   0.00000  Uiso   1.00
Zn1157 Zn    0.88438   0.83333   0.75000   0.00000  Uiso   1.00
C1158  C     0.75320   0.71100   0.82833   0.00000  Uiso   1.00
H1159  H     0.76723   0.73332   0.85159   0.00000  Uiso   1.00
H1160  H     0.73108   0.72823   0.80841   0.00000  Uiso   1.00
H1161  H     0.72971   0.68893   0.85631   0.00000  Uiso   1.00
C1162  C     0.96906   0.76404   0.70148   0.00000  Uiso   1.00
H1163  H     0.66723   0.74740   0.67442   0.00000  Uiso   1.00
H1164  H     0.95004   0.74117   0.73144   0.00000  Uiso   1.00
H1165  H     0.94742   0.77483   0.67694   0.00000  Uiso   1.00
C1166  C     0.96312   0.83176   0.89389   0.00000  Uiso   1.00
H1167  H     0.96361   0.82771   0.85285   0.00000  Uiso   1.00
H1168  H     0.98612   0.85812   0.89694   0.00000  Uiso   1.00
H1169  H     0.97747   0.80166   0.90343   0.00000  Uiso   1.00
I1170  I     0.79299   0.90240   0.60573   0.00000  Uiso   1.00
loop_
_geom_bond_atom_site_label_1
_geom_bond_atom_site_label_2
_geom_bond_distance
_geom_bond_site_symmetry_2
_ccdc_geom_bond_type
C1     O44     1.282   .     A
C1     C17     1.405   .     S
C1     O43     1.284   .     A
C2     C3      1.409   .     A
C2     C589    1.414   .     S
C2     C613    1.410   .     S
C3     C10     1.434   .     A
C3     C7      1.419   .     A
C4     C8      1.392   .     A
C4     C587    1.414   1_554 S
C4     C590    1.419   1_554 S
C5     C6      1.396   .     A
C5     C589    1.419   .     S
C5     C609    1.404   .     S
C6     C7      1.391   .     A
C6     C61     1.505   .     S
C7     H39     1.076   .     S
C8     I65     2.158   .     S
C8     C25     1.398   .     A
C9     C24     1.382   .     A
C9     H29     1.084   .     S
C9     C25     1.396   .     A
C10    C26     1.402   .     A
C10    C12     1.477   .     S
C11    H40     1.084   .     S
C11    C17     1.390   .     A
C11    C208    1.369   .     S
C12    O45     1.315   .     A
C12    O46     1.285   .     A
C13    H30     1.083   .     S
C13    C14     1.395   .     A
C13    C401    1.369   1_545 S
C14    C22     1.413   .     S
C14    C15     1.412   .     A
C15    C53     1.511   .     S
C15    C406    1.381   1_545 S
C16    H31     1.085   .     S
C16    C17     1.392   .     A
C16    C210    1.381   .     S
C18    C57     1.496   .     S
C18    N42     1.384   .     A
C18    C84     1.417   .     S
C19    H32     1.082   .     S
C19    N41     1.355   .     A
C19    C148    1.417   1_455 S
C20    H33     1.081   .     S
C20    N41     1.368   .     A
C20    C151    1.420   1_455 S
C21    H34     1.081   .     S
C21    N42     1.368   .     A
C21    C85     1.420   .     S
C22    O48     1.288   .     A
C22    O47     1.280   .     A
C23    O49     1.290   .     A
C23    C25     1.435   .     S
C23    O50     1.291   .     A
C24    C590    1.404   1_554 S
C24    H620    1.078   1_554 S
C26    C27     1.390   .     A
C26    H36     1.080   .     S
C27    C613    1.389   .     S
C27    H623    1.080   .     S
C28    H37     1.081   .     S
C28    C612    1.389   1_554 S
C28    C587    1.410   1_554 S
H35    C609    1.078   .     S
H38    C612    1.080   1_554 S
N41    Zn51    2.018   .     S
N42    Zn52    2.018   .     S
O43    Zn51    1.991   .     S
O44    Zn52    1.981   .     S
O45    Zn51    2.006   .     S
O46    Zn52    1.973   .     S
O47    Zn51    1.981   .     S
O48    Zn52    1.991   .     S
O49    Zn51    1.973   .     S
O50    Zn52    2.006   .     S
C53    H54     1.111   .     S
C53    H55     1.110   .     S
C53    H56     1.111   .     S
C57    H59     1.108   .     S
C57    H60     1.107   .     S
C57    H123    1.111   .     S
H58    C187    1.111   1_455 S
C61    H64     1.109   .     S
C61    H62     1.100   .     S
C61    H63     1.109   .     S
C66    O109    1.282   .     A
C66    C82     1.405   .     S
C66    O108    1.284   .     A
C67    C68     1.409   .     A
C67    C654    1.414   .     S
C67    C678    1.410   .     S
C68    C75     1.434   .     A
C68    C72     1.419   .     A
C69    C73     1.392   .     A
C69    C652    1.414   1_554 S
C69    C655    1.419   1_554 S
C70    C71     1.396   .     A
C70    C654    1.419   .     S
C70    C674    1.404   .     S
C71    C72     1.391   .     A
C71    C126    1.505   .     S
C72    H104    1.076   .     S
C73    I130    2.158   .     S
C73    C90     1.398   .     A
C74    C89     1.382   .     A
C74    H94     1.084   .     S
C74    C90     1.396   .     A
C75    C91     1.402   .     A
C75    C77     1.477   .     S
C76    H105    1.084   .     S
C76    C82     1.390   .     A
C76    C273    1.369   .     S
C77    O110    1.315   .     A
C77    O111    1.285   .     A
C78    H95     1.083   .     S
C78    C79     1.395   .     A
C78    C466    1.369   1_545 S
C79    C87     1.413   .     S
C79    C80     1.412   .     A
C80    C118    1.511   .     S
C80    C471    1.381   1_545 S
C81    H96     1.085   .     S
C81    C82     1.392   .     A
C81    C275    1.381   .     S
C83    C122    1.496   .     S
C83    N107    1.384   .     A
C83    C149    1.417   .     S
C84    H97     1.082   .     S
C84    N106    1.355   .     A
C85    H98     1.081   .     S
C85    N106    1.368   .     A
C86    H99     1.081   .     S
C86    N107    1.368   .     A
C86    C150    1.420   .     S
C87    O113    1.288   .     A
C87    O112    1.280   .     A
C88    O114    1.290   .     A
C88    C90     1.435   .     S
C88    O115    1.291   .     A
C89    C655    1.404   1_554 S
C89    H685    1.078   1_554 S
C91    C92     1.390   .     A
C91    H101    1.080   .     S
C92    C678    1.389   .     S
C92    H688    1.080   .     S
C93    H102    1.081   .     S
C93    C677    1.389   1_554 S
C93    C652    1.410   1_554 S
H100   C674    1.078   .     S
H103   C677    1.080   1_554 S
N106   Zn116   2.018   .     S
N107   Zn117   2.018   .     S
O108   Zn116   1.991   .     S
O109   Zn117   1.981   .     S
O110   Zn116   2.006   .     S
O111   Zn117   1.973   .     S
O112   Zn116   1.981   .     S
O113   Zn117   1.991   .     S
O114   Zn116   1.973   .     S
O115   Zn117   2.006   .     S
C118   H119    1.111   .     S
C118   H120    1.110   .     S
C118   H121    1.111   .     S
C122   H124    1.108   .     S
C122   H125    1.107   .     S
C122   H188    1.111   .     S
C126   H129    1.109   .     S
C126   H127    1.100   .     S
C126   H128    1.109   .     S
C131   O174    1.282   .     A
C131   C147    1.405   .     S
C131   O173    1.284   .     A
C132   C133    1.409   .     A
C132   C719    1.414   .     S
C132   C743    1.410   .     S
C133   C140    1.434   .     A
C133   C137    1.419   .     A
C134   C138    1.392   .     A
C134   C717    1.414   1_554 S
C134   C720    1.419   1_554 S
C135   C136    1.396   .     A
C135   C719    1.419   .     S
C135   C739    1.404   .     S
C136   C137    1.391   .     A
C136   C191    1.505   .     S
C137   H169    1.076   .     S
C138   I195    2.158   .     S
C138   C155    1.398   .     A
C139   C154    1.382   .     A
C139   H159    1.084   .     S
C139   C155    1.396   .     A
C140   C156    1.402   .     A
C140   C142    1.477   .     S
C141   H170    1.084   .     S
C141   C147    1.390   .     A
C141   C338    1.369   .     S
C142   O175    1.315   .     A
C142   O176    1.285   .     A
C143   H160    1.083   .     S
C143   C144    1.395   .     A
C143   C531    1.369   1_545 S
C144   C152    1.413   .     S
C144   C145    1.412   .     A
C145   C183    1.511   .     S
C145   C536    1.381   1_545 S
C146   H161    1.085   .     S
C146   C147    1.392   .     A
C146   C340    1.381   .     S
C148   C187    1.496   .     S
C148   N172    1.384   .     A
C148   C19     1.417   1_655 S
C149   H162    1.082   .     S
C149   N171    1.355   .     A
C150   H163    1.081   .     S
C150   N171    1.368   .     A
C151   H164    1.081   .     S
C151   N172    1.368   .     A
C151   C20     1.420   1_655 S
C152   O178    1.288   .     A
C152   O177    1.280   .     A
C153   O179    1.290   .     A
C153   C155    1.435   .     S
C153   O180    1.291   .     A
C154   C720    1.404   1_554 S
C154   H750    1.078   1_554 S
C156   C157    1.390   .     A
C156   H166    1.080   .     S
C157   C743    1.389   .     S
C157   H753    1.080   .     S
C158   H167    1.081   .     S
C158   C742    1.389   1_554 S
C158   C717    1.410   1_554 S
H165   C739    1.078   .     S
H168   C742    1.080   1_554 S
N171   Zn181   2.018   .     S
N172   Zn182   2.018   .     S
O173   Zn181   1.991   .     S
O174   Zn182   1.981   .     S
O175   Zn181   2.006   .     S
O176   Zn182   1.973   .     S
O177   Zn181   1.981   .     S
O178   Zn182   1.991   .     S
O179   Zn181   1.973   .     S
O180   Zn182   2.006   .     S
C183   H184    1.111   .     S
C183   H185    1.110   .     S
C183   H186    1.111   .     S
C187   H189    1.108   .     S
C187   H190    1.107   .     S
C187   H58     1.111   1_655 S
C191   H194    1.109   .     S
C191   H192    1.100   .     S
C191   H193    1.109   .     S
C196   O239    1.282   .     A
C196   C212    1.405   .     S
C196   O238    1.284   .     A
C197   C198    1.409   .     A
C197   C784    1.414   .     S
C197   C808    1.410   .     S
C198   C205    1.434   .     A
C198   C202    1.419   .     A
C199   C203    1.392   .     A
C199   C782    1.414   1_554 S
C199   C785    1.419   1_554 S
C200   C201    1.396   .     A
C200   C784    1.419   .     S
C200   C804    1.404   .     S
C201   C202    1.391   .     A
C201   C256    1.505   .     S
C202   H234    1.076   .     S
C203   I260    2.158   .     S
C203   C220    1.398   .     A
C204   C219    1.382   .     A
C204   H224    1.084   .     S
C204   C220    1.396   .     A
C205   C221    1.402   .     A
C205   C207    1.477   .     S
C206   H235    1.084   .     S
C206   C212    1.390   .     A
C206   C403    1.369   .     S
C207   O240    1.315   .     A
C207   O241    1.285   .     A
C208   H225    1.083   .     S
C208   C209    1.395   .     A
C209   C217    1.413   .     S
C209   C210    1.412   .     A
C210   C248    1.511   .     S
C211   H226    1.085   .     S
C211   C212    1.392   .     A
C211   C405    1.381   .     S
C213   C252    1.496   .     S
C213   N237    1.384   .     A
C213   C279    1.417   .     S
C214   H227    1.082   .     S
C214   N236    1.355   .     A
C214   C343    1.417   1_455 S
C215   H228    1.081   .     S
C215   N236    1.368   .     A
C215   C346    1.420   1_455 S
C216   H229    1.081   .     S
C216   N237    1.368   .     A
C216   C280    1.420   .     S
C217   O243    1.288   .     A
C217   O242    1.280   .     A
C218   O244    1.290   .     A
C218   C220    1.435   .     S
C218   O245    1.291   .     A
C219   C785    1.404   1_554 S
C219   H815    1.078   1_554 S
C221   C222    1.390   .     A
C221   H231    1.080   .     S
C222   C808    1.389   .     S
C222   H818    1.080   .     S
C223   H232    1.081   .     S
C223   C807    1.389   1_554 S
C223   C782    1.410   1_554 S
H230   C804    1.078   .     S
H233   C807    1.080   1_554 S
N236   Zn246   2.018   .     S
N237   Zn247   2.018   .     S
O238   Zn246   1.991   .     S
O239   Zn247   1.981   .     S
O240   Zn246   2.006   .     S
O241   Zn247   1.973   .     S
O242   Zn246   1.981   .     S
O243   Zn247   1.991   .     S
O244   Zn246   1.973   .     S
O245   Zn247   2.006   .     S
C248   H249    1.111   .     S
C248   H250    1.110   .     S
C248   H251    1.111   .     S
C252   H254    1.108   .     S
C252   H255    1.107   .     S
C252   H318    1.111   .     S
H253   C382    1.111   1_455 S
C256   H259    1.109   .     S
C256   H257    1.100   .     S
C256   H258    1.109   .     S
C261   O304    1.282   .     A
C261   C277    1.405   .     S
C261   O303    1.284   .     A
C262   C263    1.409   .     A
C262   C849    1.414   .     S
C262   C873    1.410   .     S
C263   C270    1.434   .     A
C263   C267    1.419   .     A
C264   C268    1.392   .     A
C264   C847    1.414   1_554 S
C264   C850    1.419   1_554 S
C265   C266    1.396   .     A
C265   C849    1.419   .     S
C265   C869    1.404   .     S
C266   C267    1.391   .     A
C266   C321    1.505   .     S
C267   H299    1.076   .     S
C268   I325    2.158   .     S
C268   C285    1.398   .     A
C269   C284    1.382   .     A
C269   H289    1.084   .     S
C269   C285    1.396   .     A
C270   C286    1.402   .     A
C270   C272    1.477   .     S
C271   H300    1.084   .     S
C271   C277    1.390   .     A
C271   C468    1.369   .     S
C272   O305    1.315   .     A
C272   O306    1.285   .     A
C273   H290    1.083   .     S
C273   C274    1.395   .     A
C274   C282    1.413   .     S
C274   C275    1.412   .     A
C275   C313    1.511   .     S
C276   H291    1.085   .     S
C276   C277    1.392   .     A
C276   C470    1.381   .     S
C278   C317    1.496   .     S
C278   N302    1.384   .     A
C278   C344    1.417   .     S
C279   H292    1.082   .     S
C279   N301    1.355   .     A
C280   H293    1.081   .     S
C280   N301    1.368   .     A
C281   H294    1.081   .     S
C281   N302    1.368   .     A
C281   C345    1.420   .     S
C282   O308    1.288   .     A
C282   O307    1.280   .     A
C283   O309    1.290   .     A
C283   C285    1.435   .     S
C283   O310    1.291   .     A
C284   C850    1.404   1_554 S
C284   H880    1.078   1_554 S
C286   C287    1.390   .     A
C286   H296    1.080   .     S
C287   C873    1.389   .     S
C287   H883    1.080   .     S
C288   H297    1.081   .     S
C288   C872    1.389   1_554 S
C288   C847    1.410   1_554 S
H295   C869    1.078   .     S
H298   C872    1.080   1_554 S
N301   Zn311   2.018   .     S
N302   Zn312   2.018   .     S
O303   Zn311   1.991   .     S
O304   Zn312   1.981   .     S
O305   Zn311   2.006   .     S
O306   Zn312   1.973   .     S
O307   Zn311   1.981   .     S
O308   Zn312   1.991   .     S
O309   Zn311   1.973   .     S
O310   Zn312   2.006   .     S
C313   H314    1.111   .     S
C313   H315    1.110   .     S
C313   H316    1.111   .     S
C317   H319    1.108   .     S
C317   H320    1.107   .     S
C317   H383    1.111   .     S
C321   H324    1.109   .     S
C321   H322    1.100   .     S
C321   H323    1.109   .     S
C326   O369    1.282   .     A
C326   C342    1.405   .     S
C326   O368    1.284   .     A
C327   C328    1.409   .     A
C327   C914    1.414   .     S
C327   C938    1.410   .     S
C328   C335    1.434   .     A
C328   C332    1.419   .     A
C329   C333    1.392   .     A
C329   C912    1.414   1_554 S
C329   C915    1.419   1_554 S
C330   C331    1.396   .     A
C330   C914    1.419   .     S
C330   C934    1.404   .     S
C331   C332    1.391   .     A
C331   C386    1.505   .     S
C332   H364    1.076   .     S
C333   I390    2.158   .     S
C333   C350    1.398   .     A
C334   C349    1.382   .     A
C334   H354    1.084   .     S
C334   C350    1.396   .     A
C335   C351    1.402   .     A
C335   C337    1.477   .     S
C336   H365    1.084   .     S
C336   C342    1.390   .     A
C336   C533    1.369   .     S
C337   O370    1.315   .     A
C337   O371    1.285   .     A
C338   H355    1.083   .     S
C338   C339    1.395   .     A
C339   C347    1.413   .     S
C339   C340    1.412   .     A
C340   C378    1.511   .     S
C341   H356    1.085   .     S
C341   C342    1.392   .     A
C341   C535    1.381   .     S
C343   C382    1.496   .     S
C343   N367    1.384   .     A
C343   C214    1.417   1_655 S
C344   H357    1.082   .     S
C344   N366    1.355   .     A
C345   H358    1.081   .     S
C345   N366    1.368   .     A
C346   H359    1.081   .     S
C346   N367    1.368   .     A
C346   C215    1.420   1_655 S
C347   O373    1.288   .     A
C347   O372    1.280   .     A
C348   O374    1.290   .     A
C348   C350    1.435   .     S
C348   O375    1.291   .     A
C349   C915    1.404   1_554 S
C349   H945    1.078   1_554 S
C351   C352    1.390   .     A
C351   H361    1.080   .     S
C352   C938    1.389   .     S
C352   H948    1.080   .     S
C353   H362    1.081   .     S
C353   C937    1.389   1_554 S
C353   C912    1.410   1_554 S
H360   C934    1.078   .     S
H363   C937    1.080   1_554 S
N366   Zn376   2.018   .     S
N367   Zn377   2.018   .     S
O368   Zn376   1.991   .     S
O369   Zn377   1.981   .     S
O370   Zn376   2.006   .     S
O371   Zn377   1.973   .     S
O372   Zn376   1.981   .     S
O373   Zn377   1.991   .     S
O374   Zn376   1.973   .     S
O375   Zn377   2.006   .     S
C378   H379    1.111   .     S
C378   H380    1.110   .     S
C378   H381    1.111   .     S
C382   H384    1.108   .     S
C382   H385    1.107   .     S
C382   H253    1.111   1_655 S
C386   H389    1.109   .     S
C386   H387    1.100   .     S
C386   H388    1.109   .     S
C391   O434    1.282   .     A
C391   C407    1.405   .     S
C391   O433    1.284   .     A
C392   C393    1.409   .     A
C392   C979    1.414   .     S
C392   C1003   1.410   .     S
C393   C400    1.434   .     A
C393   C397    1.419   .     A
C394   C398    1.392   .     A
C394   C977    1.414   1_554 S
C394   C980    1.419   1_554 S
C395   C396    1.396   .     A
C395   C979    1.419   .     S
C395   C999    1.404   .     S
C396   C397    1.391   .     A
C396   C451    1.505   .     S
C397   H429    1.076   .     S
C398   I455    2.158   .     S
C398   C415    1.398   .     A
C399   C414    1.382   .     A
C399   H419    1.084   .     S
C399   C415    1.396   .     A
C400   C416    1.402   .     A
C400   C402    1.477   .     S
C401   H430    1.084   .     S
C401   C407    1.390   .     A
C401   C13     1.369   1_565 S
C402   O435    1.315   .     A
C402   O436    1.285   .     A
C403   H420    1.083   .     S
C403   C404    1.395   .     A
C404   C412    1.413   .     S
C404   C405    1.412   .     A
C405   C443    1.511   .     S
C406   H421    1.085   .     S
C406   C407    1.392   .     A
C406   C15     1.381   1_565 S
C408   C447    1.496   .     S
C408   N432    1.384   .     A
C408   C474    1.417   .     S
C409   H422    1.082   .     S
C409   N431    1.355   .     A
C409   C538    1.417   1_455 S
C410   H423    1.081   .     S
C410   N431    1.368   .     A
C410   C541    1.420   1_455 S
C411   H424    1.081   .     S
C411   N432    1.368   .     A
C411   C475    1.420   .     S
C412   O438    1.288   .     A
C412   O437    1.280   .     A
C413   O439    1.290   .     A
C413   C415    1.435   .     S
C413   O440    1.291   .     A
C414   C980    1.404   1_554 S
C414   H1010   1.078   1_554 S
C416   C417    1.390   .     A
C416   H426    1.080   .     S
C417   C1003   1.389   .     S
C417   H1013   1.080   .     S
C418   H427    1.081   .     S
C418   C1002   1.389   1_554 S
C418   C977    1.410   1_554 S
H425   C999    1.078   .     S
H428   C1002   1.080   1_554 S
N431   Zn441   2.018   .     S
N432   Zn442   2.018   .     S
O433   Zn441   1.991   .     S
O434   Zn442   1.981   .     S
O435   Zn441   2.006   .     S
O436   Zn442   1.973   .     S
O437   Zn441   1.981   .     S
O438   Zn442   1.991   .     S
O439   Zn441   1.973   .     S
O440   Zn442   2.006   .     S
C443   H444    1.111   .     S
C443   H445    1.110   .     S
C443   H446    1.111   .     S
C447   H449    1.108   .     S
C447   H450    1.107   .     S
C447   H513    1.111   .     S
H448   C577    1.111   1_455 S
C451   H454    1.109   .     S
C451   H452    1.100   .     S
C451   H453    1.109   .     S
C456   O499    1.282   .     A
C456   C472    1.405   .     S
C456   O498    1.284   .     A
C457   C458    1.409   .     A
C457   C1044   1.414   .     S
C457   C1068   1.410   .     S
C458   C465    1.434   .     A
C458   C462    1.419   .     A
C459   C463    1.392   .     A
C459   C1042   1.414   1_554 S
C459   C1045   1.419   1_554 S
C460   C461    1.396   .     A
C460   C1044   1.419   .     S
C460   C1064   1.404   .     S
C461   C462    1.391   .     A
C461   C516    1.505   .     S
C462   H494    1.076   .     S
C463   I520    2.158   .     S
C463   C480    1.398   .     A
C464   C479    1.382   .     A
C464   H484    1.084   .     S
C464   C480    1.396   .     A
C465   C481    1.402   .     A
C465   C467    1.477   .     S
C466   H495    1.084   .     S
C466   C472    1.390   .     A
C466   C78     1.369   1_565 S
C467   O500    1.315   .     A
C467   O501    1.285   .     A
C468   H485    1.083   .     S
C468   C469    1.395   .     A
C469   C477    1.413   .     S
C469   C470    1.412   .     A
C470   C508    1.511   .     S
C471   H486    1.085   .     S
C471   C472    1.392   .     A
C471   C80     1.381   1_565 S
C473   C512    1.496   .     S
C473   N497    1.384   .     A
C473   C539    1.417   .     S
C474   H487    1.082   .     S
C474   N496    1.355   .     A
C475   H488    1.081   .     S
C475   N496    1.368   .     A
C476   H489    1.081   .     S
C476   N497    1.368   .     A
C476   C540    1.420   .     S
C477   O503    1.288   .     A
C477   O502    1.280   .     A
C478   O504    1.290   .     A
C478   C480    1.435   .     S
C478   O505    1.291   .     A
C479   C1045   1.404   1_554 S
C479   H1075   1.078   1_554 S
C481   C482    1.390   .     A
C481   H491    1.080   .     S
C482   C1068   1.389   .     S
C482   H1078   1.080   .     S
C483   H492    1.081   .     S
C483   C1067   1.389   1_554 S
C483   C1042   1.410   1_554 S
H490   C1064   1.078   .     S
H493   C1067   1.080   1_554 S
N496   Zn506   2.018   .     S
N497   Zn507   2.018   .     S
O498   Zn506   1.991   .     S
O499   Zn507   1.981   .     S
O500   Zn506   2.006   .     S
O501   Zn507   1.973   .     S
O502   Zn506   1.981   .     S
O503   Zn507   1.991   .     S
O504   Zn506   1.973   .     S
O505   Zn507   2.006   .     S
C508   H509    1.111   .     S
C508   H510    1.110   .     S
C508   H511    1.111   .     S
C512   H514    1.108   .     S
C512   H515    1.107   .     S
C512   H578    1.111   .     S
C516   H519    1.109   .     S
C516   H517    1.100   .     S
C516   H518    1.109   .     S
C521   O564    1.282   .     A
C521   C537    1.405   .     S
C521   O563    1.284   .     A
C522   C523    1.409   .     A
C522   C1109   1.414   .     S
C522   C1133   1.410   .     S
C523   C530    1.434   .     A
C523   C527    1.419   .     A
C524   C528    1.392   .     A
C524   C1107   1.414   1_554 S
C524   C1110   1.419   1_554 S
C525   C526    1.396   .     A
C525   C1109   1.419   .     S
C525   C1129   1.404   .     S
C526   C527    1.391   .     A
C526   C581    1.505   .     S
C527   H559    1.076   .     S
C528   I585    2.158   .     S
C528   C545    1.398   .     A
C529   C544    1.382   .     A
C529   H549    1.084   .     S
C529   C545    1.396   .     A
C530   C546    1.402   .     A
C530   C532    1.477   .     S
C531   H560    1.084   .     S
C531   C537    1.390   .     A
C531   C143    1.369   1_565 S
C532   O565    1.315   .     A
C532   O566    1.285   .     A
C533   H550    1.083   .     S
C533   C534    1.395   .     A
C534   C542    1.413   .     S
C534   C535    1.412   .     A
C535   C573    1.511   .     S
C536   H551    1.085   .     S
C536   C537    1.392   .     A
C536   C145    1.381   1_565 S
C538   C577    1.496   .     S
C538   N562    1.384   .     A
C538   C409    1.417   1_655 S
C539   H552    1.082   .     S
C539   N561    1.355   .     A
C540   H553    1.081   .     S
C540   N561    1.368   .     A
C541   H554    1.081   .     S
C541   N562    1.368   .     A
C541   C410    1.420   1_655 S
C542   O568    1.288   .     A
C542   O567    1.280   .     A
C543   O569    1.290   .     A
C543   C545    1.435   .     S
C543   O570    1.291   .     A
C544   C1110   1.404   1_554 S
C544   H1140   1.078   1_554 S
C546   C547    1.390   .     A
C546   H556    1.080   .     S
C547   C1133   1.389   .     S
C547   H1143   1.080   .     S
C548   H557    1.081   .     S
C548   C1132   1.389   1_554 S
C548   C1107   1.410   1_554 S
H555   C1129   1.078   .     S
H558   C1132   1.080   1_554 S
N561   Zn571   2.018   .     S
N562   Zn572   2.018   .     S
O563   Zn571   1.991   .     S
O564   Zn572   1.981   .     S
O565   Zn571   2.006   .     S
O566   Zn572   1.973   .     S
O567   Zn571   1.981   .     S
O568   Zn572   1.991   .     S
O569   Zn571   1.973   .     S
O570   Zn572   2.006   .     S
C573   H574    1.111   .     S
C573   H575    1.110   .     S
C573   H576    1.111   .     S
C577   H579    1.108   .     S
C577   H580    1.107   .     S
C577   H448    1.111   1_655 S
C581   H584    1.109   .     S
C581   H582    1.100   .     S
C581   H583    1.109   .     S
C586   O629    1.282   .     A
C586   C602    1.405   .     S
C586   O628    1.284   .     A
C587   C588    1.409   .     A
C587   C4      1.414   1_556 S
C587   C28     1.410   1_556 S
C588   C595    1.434   .     A
C588   C592    1.419   .     A
C589   C593    1.392   .     A
C590   C591    1.396   .     A
C590   C4      1.419   1_556 S
C590   C24     1.404   1_556 S
C591   C592    1.391   .     A
C591   C646    1.505   .     S
C592   H624    1.076   .     S
C593   I650    2.158   .     S
C593   C610    1.398   .     A
C594   C609    1.382   .     A
C594   H614    1.084   .     S
C594   C610    1.396   .     A
C595   C611    1.402   .     A
C595   C597    1.477   .     S
C596   H625    1.084   .     S
C596   C602    1.390   .     A
C596   C793    1.369   .     S
C597   O630    1.315   .     A
C597   O631    1.285   .     A
C598   H615    1.083   .     S
C598   C599    1.395   .     A
C598   C986    1.369   1_545 S
C599   C607    1.413   .     S
C599   C600    1.412   .     A
C600   C638    1.511   .     S
C600   C991    1.381   1_545 S
C601   H616    1.085   .     S
C601   C602    1.392   .     A
C601   C795    1.381   .     S
C603   C642    1.496   .     S
C603   N627    1.384   .     A
C603   C669    1.417   .     S
C604   H617    1.082   .     S
C604   N626    1.355   .     A
C604   C733    1.417   1_455 S
C605   H618    1.081   .     S
C605   N626    1.368   .     A
C605   C736    1.420   1_455 S
C606   H619    1.081   .     S
C606   N627    1.368   .     A
C606   C670    1.420   .     S
C607   O633    1.288   .     A
C607   O632    1.280   .     A
C608   O634    1.290   .     A
C608   C610    1.435   .     S
C608   O635    1.291   .     A
C611   C612    1.390   .     A
C611   H621    1.080   .     S
C612   C28     1.389   1_556 S
C612   H38     1.080   1_556 S
C613   H622    1.081   .     S
H620   C24     1.078   1_556 S
N626   Zn636   2.018   .     S
N627   Zn637   2.018   .     S
O628   Zn636   1.991   .     S
O629   Zn637   1.981   .     S
O630   Zn636   2.006   .     S
O631   Zn637   1.973   .     S
O632   Zn636   1.981   .     S
O633   Zn637   1.991   .     S
O634   Zn636   1.973   .     S
O635   Zn637   2.006   .     S
C638   H639    1.111   .     S
C638   H640    1.110   .     S
C638   H641    1.111   .     S
C642   H644    1.108   .     S
C642   H645    1.107   .     S
C642   H708    1.111   .     S
H643   C772    1.111   1_455 S
C646   H649    1.109   .     S
C646   H647    1.100   .     S
C646   H648    1.109   .     S
C651   O694    1.282   .     A
C651   C667    1.405   .     S
C651   O693    1.284   .     A
C652   C653    1.409   .     A
C652   C69     1.414   1_556 S
C652   C93     1.410   1_556 S
C653   C660    1.434   .     A
C653   C657    1.419   .     A
C654   C658    1.392   .     A
C655   C656    1.396   .     A
C655   C69     1.419   1_556 S
C655   C89     1.404   1_556 S
C656   C657    1.391   .     A
C656   C711    1.505   .     S
C657   H689    1.076   .     S
C658   I715    2.158   .     S
C658   C675    1.398   .     A
C659   C674    1.382   .     A
C659   H679    1.084   .     S
C659   C675    1.396   .     A
C660   C676    1.402   .     A
C660   C662    1.477   .     S
C661   H690    1.084   .     S
C661   C667    1.390   .     A
C661   C858    1.369   .     S
C662   O695    1.315   .     A
C662   O696    1.285   .     A
C663   H680    1.083   .     S
C663   C664    1.395   .     A
C663   C1051   1.369   1_545 S
C664   C672    1.413   .     S
C664   C665    1.412   .     A
C665   C703    1.511   .     S
C665   C1056   1.381   1_545 S
C666   H681    1.085   .     S
C666   C667    1.392   .     A
C666   C860    1.381   .     S
C668   C707    1.496   .     S
C668   N692    1.384   .     A
C668   C734    1.417   .     S
C669   H682    1.082   .     S
C669   N691    1.355   .     A
C670   H683    1.081   .     S
C670   N691    1.368   .     A
C671   H684    1.081   .     S
C671   N692    1.368   .     A
C671   C735    1.420   .     S
C672   O698    1.288   .     A
C672   O697    1.280   .     A
C673   O699    1.290   .     A
C673   C675    1.435   .     S
C673   O700    1.291   .     A
C676   C677    1.390   .     A
C676   H686    1.080   .     S
C677   C93     1.389   1_556 S
C677   H103    1.080   1_556 S
C678   H687    1.081   .     S
H685   C89     1.078   1_556 S
N691   Zn701   2.018   .     S
N692   Zn702   2.018   .     S
O693   Zn701   1.991   .     S
O694   Zn702   1.981   .     S
O695   Zn701   2.006   .     S
O696   Zn702   1.973   .     S
O697   Zn701   1.981   .     S
O698   Zn702   1.991   .     S
O699   Zn701   1.973   .     S
O700   Zn702   2.006   .     S
C703   H704    1.111   .     S
C703   H705    1.110   .     S
C703   H706    1.111   .     S
C707   H709    1.108   .     S
C707   H710    1.107   .     S
C707   H773    1.111   .     S
C711   H714    1.109   .     S
C711   H712    1.100   .     S
C711   H713    1.109   .     S
C716   O759    1.282   .     A
C716   C732    1.405   .     S
C716   O758    1.284   .     A
C717   C718    1.409   .     A
C717   C134    1.414   1_556 S
C717   C158    1.410   1_556 S
C718   C725    1.434   .     A
C718   C722    1.419   .     A
C719   C723    1.392   .     A
C720   C721    1.396   .     A
C720   C134    1.419   1_556 S
C720   C154    1.404   1_556 S
C721   C722    1.391   .     A
C721   C776    1.505   .     S
C722   H754    1.076   .     S
C723   I780    2.158   .     S
C723   C740    1.398   .     A
C724   C739    1.382   .     A
C724   H744    1.084   .     S
C724   C740    1.396   .     A
C725   C741    1.402   .     A
C725   C727    1.477   .     S
C726   H755    1.084   .     S
C726   C732    1.390   .     A
C726   C923    1.369   .     S
C727   O760    1.315   .     A
C727   O761    1.285   .     A
C728   H745    1.083   .     S
C728   C729    1.395   .     A
C728   C1116   1.369   1_545 S
C729   C737    1.413   .     S
C729   C730    1.412   .     A
C730   C768    1.511   .     S
C730   C1121   1.381   1_545 S
C731   H746    1.085   .     S
C731   C732    1.392   .     A
C731   C925    1.381   .     S
C733   C772    1.496   .     S
C733   N757    1.384   .     A
C733   C604    1.417   1_655 S
C734   H747    1.082   .     S
C734   N756    1.355   .     A
C735   H748    1.081   .     S
C735   N756    1.368   .     A
C736   H749    1.081   .     S
C736   N757    1.368   .     A
C736   C605    1.420   1_655 S
C737   O763    1.288   .     A
C737   O762    1.280   .     A
C738   O764    1.290   .     A
C738   C740    1.435   .     S
C738   O765    1.291   .     A
C741   C742    1.390   .     A
C741   H751    1.080   .     S
C742   C158    1.389   1_556 S
C742   H168    1.080   1_556 S
C743   H752    1.081   .     S
H750   C154    1.078   1_556 S
N756   Zn766   2.018   .     S
N757   Zn767   2.018   .     S
O758   Zn766   1.991   .     S
O759   Zn767   1.981   .     S
O760   Zn766   2.006   .     S
O761   Zn767   1.973   .     S
O762   Zn766   1.981   .     S
O763   Zn767   1.991   .     S
O764   Zn766   1.973   .     S
O765   Zn767   2.006   .     S
C768   H769    1.111   .     S
C768   H770    1.110   .     S
C768   H771    1.111   .     S
C772   H774    1.108   .     S
C772   H775    1.107   .     S
C772   H643    1.111   1_655 S
C776   H779    1.109   .     S
C776   H777    1.100   .     S
C776   H778    1.109   .     S
C781   O824    1.282   .     A
C781   C797    1.405   .     S
C781   O823    1.284   .     A
C782   C783    1.409   .     A
C782   C199    1.414   1_556 S
C782   C223    1.410   1_556 S
C783   C790    1.434   .     A
C783   C787    1.419   .     A
C784   C788    1.392   .     A
C785   C786    1.396   .     A
C785   C199    1.419   1_556 S
C785   C219    1.404   1_556 S
C786   C787    1.391   .     A
C786   C841    1.505   .     S
C787   H819    1.076   .     S
C788   I845    2.158   .     S
C788   C805    1.398   .     A
C789   C804    1.382   .     A
C789   H809    1.084   .     S
C789   C805    1.396   .     A
C790   C806    1.402   .     A
C790   C792    1.477   .     S
C791   H820    1.084   .     S
C791   C797    1.390   .     A
C791   C988    1.369   .     S
C792   O825    1.315   .     A
C792   O826    1.285   .     A
C793   H810    1.083   .     S
C793   C794    1.395   .     A
C794   C802    1.413   .     S
C794   C795    1.412   .     A
C795   C833    1.511   .     S
C796   H811    1.085   .     S
C796   C797    1.392   .     A
C796   C990    1.381   .     S
C798   C837    1.496   .     S
C798   N822    1.384   .     A
C798   C864    1.417   .     S
C799   H812    1.082   .     S
C799   N821    1.355   .     A
C799   C928    1.417   1_455 S
C800   H813    1.081   .     S
C800   N821    1.368   .     A
C800   C931    1.420   1_455 S
C801   H814    1.081   .     S
C801   N822    1.368   .     A
C801   C865    1.420   .     S
C802   O828    1.288   .     A
C802   O827    1.280   .     A
C803   O829    1.290   .     A
C803   C805    1.435   .     S
C803   O830    1.291   .     A
C806   C807    1.390   .     A
C806   H816    1.080   .     S
C807   C223    1.389   1_556 S
C807   H233    1.080   1_556 S
C808   H817    1.081   .     S
H815   C219    1.078   1_556 S
N821   Zn831   2.018   .     S
N822   Zn832   2.018   .     S
O823   Zn831   1.991   .     S
O824   Zn832   1.981   .     S
O825   Zn831   2.006   .     S
O826   Zn832   1.973   .     S
O827   Zn831   1.981   .     S
O828   Zn832   1.991   .     S
O829   Zn831   1.973   .     S
O830   Zn832   2.006   .     S
C833   H834    1.111   .     S
C833   H835    1.110   .     S
C833   H836    1.111   .     S
C837   H839    1.108   .     S
C837   H840    1.107   .     S
C837   H903    1.111   .     S
H838   C967    1.111   1_455 S
C841   H844    1.109   .     S
C841   H842    1.100   .     S
C841   H843    1.109   .     S
C846   O889    1.282   .     A
C846   C862    1.405   .     S
C846   O888    1.284   .     A
C847   C848    1.409   .     A
C847   C264    1.414   1_556 S
C847   C288    1.410   1_556 S
C848   C855    1.434   .     A
C848   C852    1.419   .     A
C849   C853    1.392   .     A
C850   C851    1.396   .     A
C850   C264    1.419   1_556 S
C850   C284    1.404   1_556 S
C851   C852    1.391   .     A
C851   C906    1.505   .     S
C852   H884    1.076   .     S
C853   I910    2.158   .     S
C853   C870    1.398   .     A
C854   C869    1.382   .     A
C854   H874    1.084   .     S
C854   C870    1.396   .     A
C855   C871    1.402   .     A
C855   C857    1.477   .     S
C856   H885    1.084   .     S
C856   C862    1.390   .     A
C856   C1053   1.369   .     S
C857   O890    1.315   .     A
C857   O891    1.285   .     A
C858   H875    1.083   .     S
C858   C859    1.395   .     A
C859   C867    1.413   .     S
C859   C860    1.412   .     A
C860   C898    1.511   .     S
C861   H876    1.085   .     S
C861   C862    1.392   .     A
C861   C1055   1.381   .     S
C863   C902    1.496   .     S
C863   N887    1.384   .     A
C863   C929    1.417   .     S
C864   H877    1.082   .     S
C864   N886    1.355   .     A
C865   H878    1.081   .     S
C865   N886    1.368   .     A
C866   H879    1.081   .     S
C866   N887    1.368   .     A
C866   C930    1.420   .     S
C867   O893    1.288   .     A
C867   O892    1.280   .     A
C868   O894    1.290   .     A
C868   C870    1.435   .     S
C868   O895    1.291   .     A
C871   C872    1.390   .     A
C871   H881    1.080   .     S
C872   C288    1.389   1_556 S
C872   H298    1.080   1_556 S
C873   H882    1.081   .     S
H880   C284    1.078   1_556 S
N886   Zn896   2.018   .     S
N887   Zn897   2.018   .     S
O888   Zn896   1.991   .     S
O889   Zn897   1.981   .     S
O890   Zn896   2.006   .     S
O891   Zn897   1.973   .     S
O892   Zn896   1.981   .     S
O893   Zn897   1.991   .     S
O894   Zn896   1.973   .     S
O895   Zn897   2.006   .     S
C898   H899    1.111   .     S
C898   H900    1.110   .     S
C898   H901    1.111   .     S
C902   H904    1.108   .     S
C902   H905    1.107   .     S
C902   H968    1.111   .     S
C906   H909    1.109   .     S
C906   H907    1.100   .     S
C906   H908    1.109   .     S
C911   O954    1.282   .     A
C911   C927    1.405   .     S
C911   O953    1.284   .     A
C912   C913    1.409   .     A
C912   C329    1.414   1_556 S
C912   C353    1.410   1_556 S
C913   C920    1.434   .     A
C913   C917    1.419   .     A
C914   C918    1.392   .     A
C915   C916    1.396   .     A
C915   C329    1.419   1_556 S
C915   C349    1.404   1_556 S
C916   C917    1.391   .     A
C916   C971    1.505   .     S
C917   H949    1.076   .     S
C918   I975    2.158   .     S
C918   C935    1.398   .     A
C919   C934    1.382   .     A
C919   H939    1.084   .     S
C919   C935    1.396   .     A
C920   C936    1.402   .     A
C920   C922    1.477   .     S
C921   H950    1.084   .     S
C921   C927    1.390   .     A
C921   C1118   1.369   .     S
C922   O955    1.315   .     A
C922   O956    1.285   .     A
C923   H940    1.083   .     S
C923   C924    1.395   .     A
C924   C932    1.413   .     S
C924   C925    1.412   .     A
C925   C963    1.511   .     S
C926   H941    1.085   .     S
C926   C927    1.392   .     A
C926   C1120   1.381   .     S
C928   C967    1.496   .     S
C928   N952    1.384   .     A
C928   C799    1.417   1_655 S
C929   H942    1.082   .     S
C929   N951    1.355   .     A
C930   H943    1.081   .     S
C930   N951    1.368   .     A
C931   H944    1.081   .     S
C931   N952    1.368   .     A
C931   C800    1.420   1_655 S
C932   O958    1.288   .     A
C932   O957    1.280   .     A
C933   O959    1.290   .     A
C933   C935    1.435   .     S
C933   O960    1.291   .     A
C936   C937    1.390   .     A
C936   H946    1.080   .     S
C937   C353    1.389   1_556 S
C937   H363    1.080   1_556 S
C938   H947    1.081   .     S
H945   C349    1.078   1_556 S
N951   Zn961   2.018   .     S
N952   Zn962   2.018   .     S
O953   Zn961   1.991   .     S
O954   Zn962   1.981   .     S
O955   Zn961   2.006   .     S
O956   Zn962   1.973   .     S
O957   Zn961   1.981   .     S
O958   Zn962   1.991   .     S
O959   Zn961   1.973   .     S
O960   Zn962   2.006   .     S
C963   H964    1.111   .     S
C963   H965    1.110   .     S
C963   H966    1.111   .     S
C967   H969    1.108   .     S
C967   H970    1.107   .     S
C967   H838    1.111   1_655 S
C971   H974    1.109   .     S
C971   H972    1.100   .     S
C971   H973    1.109   .     S
C976   O1019   1.282   .     A
C976   C992    1.405   .     S
C976   O1018   1.284   .     A
C977   C978    1.409   .     A
C977   C394    1.414   1_556 S
C977   C418    1.410   1_556 S
C978   C985    1.434   .     A
C978   C982    1.419   .     A
C979   C983    1.392   .     A
C980   C981    1.396   .     A
C980   C394    1.419   1_556 S
C980   C414    1.404   1_556 S
C981   C982    1.391   .     A
C981   C1036   1.505   .     S
C982   H1014   1.076   .     S
C983   I1040   2.158   .     S
C983   C1000   1.398   .     A
C984   C999    1.382   .     A
C984   H1004   1.084   .     S
C984   C1000   1.396   .     A
C985   C1001   1.402   .     A
C985   C987    1.477   .     S
C986   H1015   1.084   .     S
C986   C992    1.390   .     A
C986   C598    1.369   1_565 S
C987   O1020   1.315   .     A
C987   O1021   1.285   .     A
C988   H1005   1.083   .     S
C988   C989    1.395   .     A
C989   C997    1.413   .     S
C989   C990    1.412   .     A
C990   C1028   1.511   .     S
C991   H1006   1.085   .     S
C991   C992    1.392   .     A
C991   C600    1.381   1_565 S
C993   C1032   1.496   .     S
C993   N1017   1.384   .     A
C993   C1059   1.417   .     S
C994   H1007   1.082   .     S
C994   N1016   1.355   .     A
C994   C1123   1.417   1_455 S
C995   H1008   1.081   .     S
C995   N1016   1.368   .     A
C995   C1126   1.420   1_455 S
C996   H1009   1.081   .     S
C996   N1017   1.368   .     A
C996   C1060   1.420   .     S
C997   O1023   1.288   .     A
C997   O1022   1.280   .     A
C998   O1024   1.290   .     A
C998   C1000   1.435   .     S
C998   O1025   1.291   .     A
C1001  C1002   1.390   .     A
C1001  H1011   1.080   .     S
C1002  C418    1.389   1_556 S
C1002  H428    1.080   1_556 S
C1003  H1012   1.081   .     S
H1010  C414    1.078   1_556 S
N1016  Zn1026  2.018   .     S
N1017  Zn1027  2.018   .     S
O1018  Zn1026  1.991   .     S
O1019  Zn1027  1.981   .     S
O1020  Zn1026  2.006   .     S
O1021  Zn1027  1.973   .     S
O1022  Zn1026  1.981   .     S
O1023  Zn1027  1.991   .     S
O1024  Zn1026  1.973   .     S
O1025  Zn1027  2.006   .     S
C1028  H1029   1.111   .     S
C1028  H1030   1.110   .     S
C1028  H1031   1.111   .     S
C1032  H1034   1.108   .     S
C1032  H1035   1.107   .     S
C1032  H1098   1.111   .     S
H1033  C1162   1.111   1_455 S
C1036  H1039   1.109   .     S
C1036  H1037   1.100   .     S
C1036  H1038   1.109   .     S
C1041  O1084   1.282   .     A
C1041  C1057   1.405   .     S
C1041  O1083   1.284   .     A
C1042  C1043   1.409   .     A
C1042  C459    1.414   1_556 S
C1042  C483    1.410   1_556 S
C1043  C1050   1.434   .     A
C1043  C1047   1.419   .     A
C1044  C1048   1.392   .     A
C1045  C1046   1.396   .     A
C1045  C459    1.419   1_556 S
C1045  C479    1.404   1_556 S
C1046  C1047   1.391   .     A
C1046  C1101   1.505   .     S
C1047  H1079   1.076   .     S
C1048  I1105   2.158   .     S
C1048  C1065   1.398   .     A
C1049  C1064   1.382   .     A
C1049  H1069   1.084   .     S
C1049  C1065   1.396   .     A
C1050  C1066   1.402   .     A
C1050  C1052   1.477   .     S
C1051  H1080   1.084   .     S
C1051  C1057   1.390   .     A
C1051  C663    1.369   1_565 S
C1052  O1085   1.315   .     A
C1052  O1086   1.285   .     A
C1053  H1070   1.083   .     S
C1053  C1054   1.395   .     A
C1054  C1062   1.413   .     S
C1054  C1055   1.412   .     A
C1055  C1093   1.511   .     S
C1056  H1071   1.085   .     S
C1056  C1057   1.392   .     A
C1056  C665    1.381   1_565 S
C1058  C1097   1.496   .     S
C1058  N1082   1.384   .     A
C1058  C1124   1.417   .     S
C1059  H1072   1.082   .     S
C1059  N1081   1.355   .     A
C1060  H1073   1.081   .     S
C1060  N1081   1.368   .     A
C1061  H1074   1.081   .     S
C1061  N1082   1.368   .     A
C1061  C1125   1.420   .     S
C1062  O1088   1.288   .     A
C1062  O1087   1.280   .     A
C1063  O1089   1.290   .     A
C1063  C1065   1.435   .     S
C1063  O1090   1.291   .     A
C1066  C1067   1.390   .     A
C1066  H1076   1.080   .     S
C1067  C483    1.389   1_556 S
C1067  H493    1.080   1_556 S
C1068  H1077   1.081   .     S
H1075  C479    1.078   1_556 S
N1081  Zn1091  2.018   .     S
N1082  Zn1092  2.018   .     S
O1083  Zn1091  1.991   .     S
O1084  Zn1092  1.981   .     S
O1085  Zn1091  2.006   .     S
O1086  Zn1092  1.973   .     S
O1087  Zn1091  1.981   .     S
O1088  Zn1092  1.991   .     S
O1089  Zn1091  1.973   .     S
O1090  Zn1092  2.006   .     S
C1093  H1094   1.111   .     S
C1093  H1095   1.110   .     S
C1093  H1096   1.111   .     S
C1097  H1099   1.108   .     S
C1097  H1100   1.107   .     S
C1097  H1163   1.111   .     S
C1101  H1104   1.109   .     S
C1101  H1102   1.100   .     S
C1101  H1103   1.109   .     S
C1106  O1149   1.282   .     A
C1106  C1122   1.405   .     S
C1106  O1148   1.284   .     A
C1107  C1108   1.409   .     A
C1107  C524    1.414   1_556 S
C1107  C548    1.410   1_556 S
C1108  C1115   1.434   .     A
C1108  C1112   1.419   .     A
C1109  C1113   1.392   .     A
C1110  C1111   1.396   .     A
C1110  C524    1.419   1_556 S
C1110  C544    1.404   1_556 S
C1111  C1112   1.391   .     A
C1111  C1166   1.505   .     S
C1112  H1144   1.076   .     S
C1113  I1170   2.158   .     S
C1113  C1130   1.398   .     A
C1114  C1129   1.382   .     A
C1114  H1134   1.084   .     S
C1114  C1130   1.396   .     A
C1115  C1131   1.402   .     A
C1115  C1117   1.477   .     S
C1116  H1145   1.084   .     S
C1116  C1122   1.390   .     A
C1116  C728    1.369   1_565 S
C1117  O1150   1.315   .     A
C1117  O1151   1.285   .     A
C1118  H1135   1.083   .     S
C1118  C1119   1.395   .     A
C1119  C1127   1.413   .     S
C1119  C1120   1.412   .     A
C1120  C1158   1.511   .     S
C1121  H1136   1.085   .     S
C1121  C1122   1.392   .     A
C1121  C730    1.381   1_565 S
C1123  C1162   1.496   .     S
C1123  N1147   1.384   .     A
C1123  C994    1.417   1_655 S
C1124  H1137   1.082   .     S
C1124  N1146   1.355   .     A
C1125  H1138   1.081   .     S
C1125  N1146   1.368   .     A
C1126  H1139   1.081   .     S
C1126  N1147   1.368   .     A
C1126  C995    1.420   1_655 S
C1127  O1153   1.288   .     A
C1127  O1152   1.280   .     A
C1128  O1154   1.290   .     A
C1128  C1130   1.435   .     S
C1128  O1155   1.291   .     A
C1131  C1132   1.390   .     A
C1131  H1141   1.080   .     S
C1132  C548    1.389   1_556 S
C1132  H558    1.080   1_556 S
C1133  H1142   1.081   .     S
H1140  C544    1.078   1_556 S
N1146  Zn1156  2.018   .     S
N1147  Zn1157  2.018   .     S
O1148  Zn1156  1.991   .     S
O1149  Zn1157  1.981   .     S
O1150  Zn1156  2.006   .     S
O1151  Zn1157  1.973   .     S
O1152  Zn1156  1.981   .     S
O1153  Zn1157  1.991   .     S
O1154  Zn1156  1.973   .     S
O1155  Zn1157  2.006   .     S
C1158  H1159   1.111   .     S
C1158  H1160   1.110   .     S
C1158  H1161   1.111   .     S
C1162  H1164   1.108   .     S
C1162  H1165   1.107   .     S
C1162  H1033   1.111   1_655 S
C1166  H1169   1.109   .     S
C1166  H1167   1.100   .     S
C1166  H1168   1.109   .     S
