data_str_m2_o1_o16_pcu_sym.116
_audit_creation_date              2020-01-03
_audit_creation_method            'Materials Studio'
_symmetry_space_group_name_H-M    'P1'
_symmetry_Int_Tables_number       1
_symmetry_cell_setting            triclinic
loop_
_symmetry_equiv_pos_as_xyz
  x,y,z
_cell_length_a                    28.6573
_cell_length_b                    32.4700
_cell_length_c                    26.9180
_cell_angle_alpha                 91.0993
_cell_angle_beta                  72.8967
_cell_angle_gamma                 90.1847
loop_
_atom_site_label
_atom_site_type_symbol
_atom_site_fract_x
_atom_site_fract_y
_atom_site_fract_z
_atom_site_U_iso_or_equiv
_atom_site_adp_type
_atom_site_occupancy
C1     C     0.16707   0.24587   0.24906   0.00000  Uiso   1.00
C2     C     0.14849   0.14701   0.48726   0.00000  Uiso   1.00
C3     C     0.16352   0.14626   0.43211   0.00000  Uiso   1.00
C4     C     0.18436   0.15365   0.01370   0.00000  Uiso   1.00
C5     C     0.23412   0.15707   0.48457   0.00000  Uiso   1.00
C6     C     0.24858   0.14807   0.43163   0.00000  Uiso   1.00
C7     C     0.21381   0.14063   0.40628   0.00000  Uiso   1.00
C8     C     0.17235   0.15859   0.06782   0.00000  Uiso   1.00
C9     C     0.25676   0.17412   0.06238   0.00000  Uiso   1.00
C10    C     0.12772   0.15081   0.40513   0.00000  Uiso   1.00
C11    C     0.21004   0.31251   0.22430   0.00000  Uiso   1.00
C12    C     0.14115   0.16168   0.34937   0.00000  Uiso   1.00
C13    C     0.20887   0.02178   0.22653   0.00000  Uiso   1.00
C14    C     0.16568   0.04281   0.25196   0.00000  Uiso   1.00
C15    C     0.12298   0.02078   0.27664   0.00000  Uiso   1.00
C16    C     0.12418   0.31142   0.27470   0.00000  Uiso   1.00
C17    C     0.16737   0.29047   0.24887   0.00000  Uiso   1.00
C18    C     0.29948   0.19178   0.28336   0.00000  Uiso   1.00
C19    C     0.01569   0.19190   0.28320   0.00000  Uiso   1.00
C20    C     0.03384   0.14098   0.21696   0.00000  Uiso   1.00
C21    C     0.31767   0.14148   0.21640   0.00000  Uiso   1.00
C22    C     0.16616   0.08745   0.25126   0.00000  Uiso   1.00
C23    C     0.19281   0.16760   0.14997   0.00000  Uiso   1.00
C24    C     0.26922   0.16888   0.00861   0.00000  Uiso   1.00
C25    C     0.20812   0.16703   0.09270   0.00000  Uiso   1.00
C26    C     0.07831   0.14570   0.43258   0.00000  Uiso   1.00
C27    C     0.06437   0.13874   0.48575   0.00000  Uiso   1.00
C28    C     0.09841   0.14115   0.01332   0.00000  Uiso   1.00
Cu29   Cu    0.11978   0.16666   0.25000   0.00000  Uiso   1.00
Cu30   Cu    0.21355   0.16667   0.25000   0.00000  Uiso   1.00
H31    H     0.24170   0.03847   0.20735   0.00000  Uiso   1.00
H32    H     0.09146   0.29454   0.29436   0.00000  Uiso   1.00
H33    H     0.27359   0.21196   0.31016   0.00000  Uiso   1.00
H34    H     0.02699   0.21218   0.30984   0.00000  Uiso   1.00
H35    H     0.28693   0.14660   0.40970   0.00000  Uiso   1.00
H36    H     0.30627   0.17466   0.48504   0.00000  Uiso   1.00
H37    H     0.13509   0.15620   0.09151   0.00000  Uiso   1.00
H38    H     0.05041   0.14655   0.41285   0.00000  Uiso   1.00
H39    H     0.08444   0.13721   0.05471   0.00000  Uiso   1.00
H40    H     0.02670   0.13244   0.00631   0.00000  Uiso   1.00
H41    H     0.22757   0.12945   0.36672   0.00000  Uiso   1.00
N42    N     0.04931   0.16666   0.24998   0.00000  Uiso   1.00
N43    N     0.28402   0.16669   0.24999   0.00000  Uiso   1.00
O44    O     0.12708   0.22678   0.25000   0.00000  Uiso   1.00
O45    O     0.20627   0.22679   0.25000   0.00000  Uiso   1.00
O46    O     0.10775   0.16665   0.32549   0.00000  Uiso   1.00
O47    O     0.18694   0.16666   0.32549   0.00000  Uiso   1.00
O48    O     0.12706   0.10654   0.24999   0.00000  Uiso   1.00
O49    O     0.20625   0.10655   0.24999   0.00000  Uiso   1.00
O50    O     0.14640   0.16667   0.17451   0.00000  Uiso   1.00
O51    O     0.22559   0.16668   0.17451   0.00000  Uiso   1.00
C52    C     0.29440   0.18794   0.08460   0.00000  Uiso   1.00
N53    N     0.32466   0.19909   0.10218   0.00000  Uiso   1.00
Cl54   Cl    0.06806   0.04485   0.31286   0.00000  Uiso   1.00
C55    C     0.06771   0.11247   0.18297   0.00000  Uiso   1.00
N56    N     0.09442   0.08936   0.15567   0.00000  Uiso   1.00
C57    C     0.30331   0.11582   0.17902   0.00000  Uiso   1.00
N58    N     0.29258   0.09537   0.14844   0.00000  Uiso   1.00
Cl59   Cl    0.26501   0.28863   0.18783   0.00000  Uiso   1.00
C60    C     0.50041   0.24587   0.24906   0.00000  Uiso   1.00
C61    C     0.48182   0.14701   0.48726   0.00000  Uiso   1.00
C62    C     0.49685   0.14626   0.43211   0.00000  Uiso   1.00
C63    C     0.51770   0.15365   0.01370   0.00000  Uiso   1.00
C64    C     0.56746   0.15707   0.48457   0.00000  Uiso   1.00
C65    C     0.58191   0.14807   0.43163   0.00000  Uiso   1.00
C66    C     0.54715   0.14063   0.40628   0.00000  Uiso   1.00
C67    C     0.50568   0.15859   0.06782   0.00000  Uiso   1.00
C68    C     0.59010   0.17412   0.06238   0.00000  Uiso   1.00
C69    C     0.46105   0.15081   0.40513   0.00000  Uiso   1.00
C70    C     0.54337   0.31251   0.22430   0.00000  Uiso   1.00
C71    C     0.47449   0.16168   0.34937   0.00000  Uiso   1.00
C72    C     0.54220   0.02178   0.22653   0.00000  Uiso   1.00
C73    C     0.49901   0.04281   0.25196   0.00000  Uiso   1.00
C74    C     0.45631   0.02078   0.27664   0.00000  Uiso   1.00
C75    C     0.45751   0.31142   0.27470   0.00000  Uiso   1.00
C76    C     0.50071   0.29047   0.24887   0.00000  Uiso   1.00
C77    C     0.63281   0.19178   0.28336   0.00000  Uiso   1.00
C78    C     0.34902   0.19190   0.28320   0.00000  Uiso   1.00
C79    C     0.36718   0.14098   0.21696   0.00000  Uiso   1.00
C80    C     0.65100   0.14148   0.21640   0.00000  Uiso   1.00
C81    C     0.49949   0.08745   0.25126   0.00000  Uiso   1.00
C82    C     0.52615   0.16760   0.14997   0.00000  Uiso   1.00
C83    C     0.60255   0.16888   0.00861   0.00000  Uiso   1.00
C84    C     0.54145   0.16703   0.09270   0.00000  Uiso   1.00
C85    C     0.41165   0.14570   0.43258   0.00000  Uiso   1.00
C86    C     0.39771   0.13874   0.48575   0.00000  Uiso   1.00
C87    C     0.43174   0.14115   0.01332   0.00000  Uiso   1.00
Cu88   Cu    0.45311   0.16666   0.25000   0.00000  Uiso   1.00
Cu89   Cu    0.54689   0.16667   0.25000   0.00000  Uiso   1.00
H90    H     0.57504   0.03847   0.20735   0.00000  Uiso   1.00
H91    H     0.42480   0.29454   0.29436   0.00000  Uiso   1.00
H92    H     0.60693   0.21196   0.31016   0.00000  Uiso   1.00
H93    H     0.36033   0.21218   0.30984   0.00000  Uiso   1.00
H94    H     0.62026   0.14660   0.40970   0.00000  Uiso   1.00
H95    H     0.63960   0.17466   0.48504   0.00000  Uiso   1.00
H96    H     0.46842   0.15620   0.09151   0.00000  Uiso   1.00
H97    H     0.38374   0.14655   0.41285   0.00000  Uiso   1.00
H98    H     0.41777   0.13721   0.05471   0.00000  Uiso   1.00
H99    H     0.36003   0.13244   0.00631   0.00000  Uiso   1.00
H100   H     0.56090   0.12945   0.36672   0.00000  Uiso   1.00
N101   N     0.38265   0.16666   0.24998   0.00000  Uiso   1.00
N102   N     0.61735   0.16669   0.24999   0.00000  Uiso   1.00
O103   O     0.46042   0.22678   0.25000   0.00000  Uiso   1.00
O104   O     0.53961   0.22679   0.25000   0.00000  Uiso   1.00
O105   O     0.44108   0.16665   0.32549   0.00000  Uiso   1.00
O106   O     0.52027   0.16666   0.32549   0.00000  Uiso   1.00
O107   O     0.46039   0.10654   0.24999   0.00000  Uiso   1.00
O108   O     0.53958   0.10655   0.24999   0.00000  Uiso   1.00
O109   O     0.47973   0.16667   0.17451   0.00000  Uiso   1.00
O110   O     0.55892   0.16668   0.17451   0.00000  Uiso   1.00
C111   C     0.62773   0.18794   0.08460   0.00000  Uiso   1.00
N112   N     0.65799   0.19909   0.10218   0.00000  Uiso   1.00
Cl113  Cl    0.40139   0.04485   0.31286   0.00000  Uiso   1.00
C114   C     0.40105   0.11247   0.18297   0.00000  Uiso   1.00
N115   N     0.42775   0.08936   0.15567   0.00000  Uiso   1.00
C116   C     0.63664   0.11582   0.17902   0.00000  Uiso   1.00
N117   N     0.62591   0.09537   0.14844   0.00000  Uiso   1.00
Cl118  Cl    0.59834   0.28863   0.18783   0.00000  Uiso   1.00
C119   C     0.83374   0.24587   0.24906   0.00000  Uiso   1.00
C120   C     0.81515   0.14701   0.48726   0.00000  Uiso   1.00
C121   C     0.83018   0.14626   0.43211   0.00000  Uiso   1.00
C122   C     0.85103   0.15365   0.01370   0.00000  Uiso   1.00
C123   C     0.90079   0.15707   0.48457   0.00000  Uiso   1.00
C124   C     0.91524   0.14807   0.43163   0.00000  Uiso   1.00
C125   C     0.88048   0.14063   0.40628   0.00000  Uiso   1.00
C126   C     0.83902   0.15859   0.06782   0.00000  Uiso   1.00
C127   C     0.92343   0.17412   0.06238   0.00000  Uiso   1.00
C128   C     0.79439   0.15081   0.40513   0.00000  Uiso   1.00
C129   C     0.87670   0.31251   0.22430   0.00000  Uiso   1.00
C130   C     0.80782   0.16168   0.34937   0.00000  Uiso   1.00
C131   C     0.87554   0.02178   0.22653   0.00000  Uiso   1.00
C132   C     0.83234   0.04281   0.25196   0.00000  Uiso   1.00
C133   C     0.78965   0.02078   0.27664   0.00000  Uiso   1.00
C134   C     0.79084   0.31142   0.27470   0.00000  Uiso   1.00
C135   C     0.83404   0.29047   0.24887   0.00000  Uiso   1.00
C136   C     0.96615   0.19178   0.28336   0.00000  Uiso   1.00
C137   C     0.68235   0.19190   0.28320   0.00000  Uiso   1.00
C138   C     0.70051   0.14098   0.21696   0.00000  Uiso   1.00
C139   C     0.98434   0.14148   0.21640   0.00000  Uiso   1.00
C140   C     0.83282   0.08745   0.25126   0.00000  Uiso   1.00
C141   C     0.85948   0.16760   0.14997   0.00000  Uiso   1.00
C142   C     0.93588   0.16888   0.00861   0.00000  Uiso   1.00
C143   C     0.87478   0.16703   0.09270   0.00000  Uiso   1.00
C144   C     0.74498   0.14570   0.43258   0.00000  Uiso   1.00
C145   C     0.73104   0.13874   0.48575   0.00000  Uiso   1.00
C146   C     0.76508   0.14115   0.01332   0.00000  Uiso   1.00
Cu147  Cu    0.78645   0.16666   0.25000   0.00000  Uiso   1.00
Cu148  Cu    0.88022   0.16667   0.25000   0.00000  Uiso   1.00
H149   H     0.90837   0.03847   0.20735   0.00000  Uiso   1.00
H150   H     0.75813   0.29454   0.29436   0.00000  Uiso   1.00
H151   H     0.94026   0.21196   0.31016   0.00000  Uiso   1.00
H152   H     0.69366   0.21218   0.30984   0.00000  Uiso   1.00
H153   H     0.95360   0.14660   0.40970   0.00000  Uiso   1.00
H154   H     0.97294   0.17466   0.48504   0.00000  Uiso   1.00
H155   H     0.80176   0.15620   0.09151   0.00000  Uiso   1.00
H156   H     0.71707   0.14655   0.41285   0.00000  Uiso   1.00
H157   H     0.75111   0.13721   0.05471   0.00000  Uiso   1.00
H158   H     0.69337   0.13244   0.00631   0.00000  Uiso   1.00
H159   H     0.89423   0.12945   0.36672   0.00000  Uiso   1.00
N160   N     0.71598   0.16666   0.24998   0.00000  Uiso   1.00
N161   N     0.95069   0.16669   0.24999   0.00000  Uiso   1.00
O162   O     0.79375   0.22678   0.25000   0.00000  Uiso   1.00
O163   O     0.87294   0.22679   0.25000   0.00000  Uiso   1.00
O164   O     0.77441   0.16665   0.32549   0.00000  Uiso   1.00
O165   O     0.85360   0.16666   0.32549   0.00000  Uiso   1.00
O166   O     0.79373   0.10654   0.24999   0.00000  Uiso   1.00
O167   O     0.87292   0.10655   0.24999   0.00000  Uiso   1.00
O168   O     0.81306   0.16667   0.17451   0.00000  Uiso   1.00
O169   O     0.89225   0.16668   0.17451   0.00000  Uiso   1.00
C170   C     0.96106   0.18794   0.08460   0.00000  Uiso   1.00
N171   N     0.99132   0.19909   0.10218   0.00000  Uiso   1.00
Cl172  Cl    0.73472   0.04485   0.31286   0.00000  Uiso   1.00
C173   C     0.73438   0.11247   0.18297   0.00000  Uiso   1.00
N174   N     0.76108   0.08936   0.15567   0.00000  Uiso   1.00
C175   C     0.96997   0.11582   0.17902   0.00000  Uiso   1.00
N176   N     0.95924   0.09537   0.14844   0.00000  Uiso   1.00
Cl177  Cl    0.93168   0.28863   0.18783   0.00000  Uiso   1.00
C178   C     0.16707   0.57920   0.24906   0.00000  Uiso   1.00
C179   C     0.14849   0.48034   0.48726   0.00000  Uiso   1.00
C180   C     0.16352   0.47959   0.43211   0.00000  Uiso   1.00
C181   C     0.18436   0.48698   0.01370   0.00000  Uiso   1.00
C182   C     0.23412   0.49041   0.48457   0.00000  Uiso   1.00
C183   C     0.24858   0.48140   0.43163   0.00000  Uiso   1.00
C184   C     0.21381   0.47396   0.40628   0.00000  Uiso   1.00
C185   C     0.17235   0.49192   0.06782   0.00000  Uiso   1.00
C186   C     0.25676   0.50745   0.06238   0.00000  Uiso   1.00
C187   C     0.12772   0.48415   0.40513   0.00000  Uiso   1.00
C188   C     0.21004   0.64584   0.22430   0.00000  Uiso   1.00
C189   C     0.14115   0.49501   0.34937   0.00000  Uiso   1.00
C190   C     0.20887   0.35511   0.22653   0.00000  Uiso   1.00
C191   C     0.16568   0.37614   0.25196   0.00000  Uiso   1.00
C192   C     0.12298   0.35411   0.27664   0.00000  Uiso   1.00
C193   C     0.12418   0.64476   0.27470   0.00000  Uiso   1.00
C194   C     0.16737   0.62380   0.24887   0.00000  Uiso   1.00
C195   C     0.29948   0.52512   0.28336   0.00000  Uiso   1.00
C196   C     0.01569   0.52523   0.28320   0.00000  Uiso   1.00
C197   C     0.03384   0.47431   0.21696   0.00000  Uiso   1.00
C198   C     0.31767   0.47481   0.21640   0.00000  Uiso   1.00
C199   C     0.16616   0.42078   0.25126   0.00000  Uiso   1.00
C200   C     0.19281   0.50093   0.14997   0.00000  Uiso   1.00
C201   C     0.26922   0.50221   0.00861   0.00000  Uiso   1.00
C202   C     0.20812   0.50036   0.09270   0.00000  Uiso   1.00
C203   C     0.07831   0.47903   0.43258   0.00000  Uiso   1.00
C204   C     0.06437   0.47208   0.48575   0.00000  Uiso   1.00
C205   C     0.09841   0.47449   0.01332   0.00000  Uiso   1.00
Cu206  Cu    0.11978   0.49999   0.25000   0.00000  Uiso   1.00
Cu207  Cu    0.21355   0.50001   0.25000   0.00000  Uiso   1.00
H208   H     0.24170   0.37180   0.20735   0.00000  Uiso   1.00
H209   H     0.09146   0.62787   0.29436   0.00000  Uiso   1.00
H210   H     0.27359   0.54529   0.31016   0.00000  Uiso   1.00
H211   H     0.02699   0.54551   0.30984   0.00000  Uiso   1.00
H212   H     0.28693   0.47994   0.40970   0.00000  Uiso   1.00
H213   H     0.30627   0.50799   0.48504   0.00000  Uiso   1.00
H214   H     0.13509   0.48953   0.09151   0.00000  Uiso   1.00
H215   H     0.05041   0.47989   0.41285   0.00000  Uiso   1.00
H216   H     0.08444   0.47054   0.05471   0.00000  Uiso   1.00
H217   H     0.02670   0.46577   0.00631   0.00000  Uiso   1.00
H218   H     0.22757   0.46278   0.36672   0.00000  Uiso   1.00
N219   N     0.04931   0.49999   0.24998   0.00000  Uiso   1.00
N220   N     0.28402   0.50002   0.24999   0.00000  Uiso   1.00
O221   O     0.12708   0.56011   0.25000   0.00000  Uiso   1.00
O222   O     0.20627   0.56012   0.25000   0.00000  Uiso   1.00
O223   O     0.10775   0.49998   0.32549   0.00000  Uiso   1.00
O224   O     0.18694   0.49999   0.32549   0.00000  Uiso   1.00
O225   O     0.12706   0.43988   0.24999   0.00000  Uiso   1.00
O226   O     0.20625   0.43989   0.24999   0.00000  Uiso   1.00
O227   O     0.14640   0.50001   0.17451   0.00000  Uiso   1.00
O228   O     0.22559   0.50002   0.17451   0.00000  Uiso   1.00
C229   C     0.29440   0.52127   0.08460   0.00000  Uiso   1.00
N230   N     0.32466   0.53242   0.10218   0.00000  Uiso   1.00
Cl231  Cl    0.06806   0.37818   0.31286   0.00000  Uiso   1.00
C232   C     0.06771   0.44580   0.18297   0.00000  Uiso   1.00
N233   N     0.09442   0.42269   0.15567   0.00000  Uiso   1.00
C234   C     0.30331   0.44916   0.17902   0.00000  Uiso   1.00
N235   N     0.29258   0.42871   0.14844   0.00000  Uiso   1.00
Cl236  Cl    0.26501   0.62196   0.18783   0.00000  Uiso   1.00
C237   C     0.50041   0.57920   0.24906   0.00000  Uiso   1.00
C238   C     0.48182   0.48034   0.48726   0.00000  Uiso   1.00
C239   C     0.49685   0.47959   0.43211   0.00000  Uiso   1.00
C240   C     0.51770   0.48698   0.01370   0.00000  Uiso   1.00
C241   C     0.56746   0.49041   0.48457   0.00000  Uiso   1.00
C242   C     0.58191   0.48140   0.43163   0.00000  Uiso   1.00
C243   C     0.54715   0.47396   0.40628   0.00000  Uiso   1.00
C244   C     0.50568   0.49192   0.06782   0.00000  Uiso   1.00
C245   C     0.59010   0.50745   0.06238   0.00000  Uiso   1.00
C246   C     0.46105   0.48415   0.40513   0.00000  Uiso   1.00
C247   C     0.54337   0.64584   0.22430   0.00000  Uiso   1.00
C248   C     0.47449   0.49501   0.34937   0.00000  Uiso   1.00
C249   C     0.54220   0.35511   0.22653   0.00000  Uiso   1.00
C250   C     0.49901   0.37614   0.25196   0.00000  Uiso   1.00
C251   C     0.45631   0.35411   0.27664   0.00000  Uiso   1.00
C252   C     0.45751   0.64476   0.27470   0.00000  Uiso   1.00
C253   C     0.50071   0.62380   0.24887   0.00000  Uiso   1.00
C254   C     0.63281   0.52512   0.28336   0.00000  Uiso   1.00
C255   C     0.34902   0.52523   0.28320   0.00000  Uiso   1.00
C256   C     0.36718   0.47431   0.21696   0.00000  Uiso   1.00
C257   C     0.65100   0.47481   0.21640   0.00000  Uiso   1.00
C258   C     0.49949   0.42078   0.25126   0.00000  Uiso   1.00
C259   C     0.52615   0.50093   0.14997   0.00000  Uiso   1.00
C260   C     0.60255   0.50221   0.00861   0.00000  Uiso   1.00
C261   C     0.54145   0.50036   0.09270   0.00000  Uiso   1.00
C262   C     0.41165   0.47903   0.43258   0.00000  Uiso   1.00
C263   C     0.39771   0.47208   0.48575   0.00000  Uiso   1.00
C264   C     0.43174   0.47449   0.01332   0.00000  Uiso   1.00
Cu265  Cu    0.45311   0.49999   0.25000   0.00000  Uiso   1.00
Cu266  Cu    0.54689   0.50001   0.25000   0.00000  Uiso   1.00
H267   H     0.57504   0.37180   0.20735   0.00000  Uiso   1.00
H268   H     0.42480   0.62787   0.29436   0.00000  Uiso   1.00
H269   H     0.60693   0.54529   0.31016   0.00000  Uiso   1.00
H270   H     0.36033   0.54551   0.30984   0.00000  Uiso   1.00
H271   H     0.62026   0.47994   0.40970   0.00000  Uiso   1.00
H272   H     0.63960   0.50799   0.48504   0.00000  Uiso   1.00
H273   H     0.46842   0.48953   0.09151   0.00000  Uiso   1.00
H274   H     0.38374   0.47989   0.41285   0.00000  Uiso   1.00
H275   H     0.41777   0.47054   0.05471   0.00000  Uiso   1.00
H276   H     0.36003   0.46577   0.00631   0.00000  Uiso   1.00
H277   H     0.56090   0.46278   0.36672   0.00000  Uiso   1.00
N278   N     0.38265   0.49999   0.24998   0.00000  Uiso   1.00
N279   N     0.61735   0.50002   0.24999   0.00000  Uiso   1.00
O280   O     0.46042   0.56011   0.25000   0.00000  Uiso   1.00
O281   O     0.53961   0.56012   0.25000   0.00000  Uiso   1.00
O282   O     0.44108   0.49998   0.32549   0.00000  Uiso   1.00
O283   O     0.52027   0.49999   0.32549   0.00000  Uiso   1.00
O284   O     0.46039   0.43988   0.24999   0.00000  Uiso   1.00
O285   O     0.53958   0.43989   0.24999   0.00000  Uiso   1.00
O286   O     0.47973   0.50001   0.17451   0.00000  Uiso   1.00
O287   O     0.55892   0.50002   0.17451   0.00000  Uiso   1.00
C288   C     0.62773   0.52127   0.08460   0.00000  Uiso   1.00
N289   N     0.65799   0.53242   0.10218   0.00000  Uiso   1.00
Cl290  Cl    0.40139   0.37818   0.31286   0.00000  Uiso   1.00
C291   C     0.40105   0.44580   0.18297   0.00000  Uiso   1.00
N292   N     0.42775   0.42269   0.15567   0.00000  Uiso   1.00
C293   C     0.63664   0.44916   0.17902   0.00000  Uiso   1.00
N294   N     0.62591   0.42871   0.14844   0.00000  Uiso   1.00
Cl295  Cl    0.59834   0.62196   0.18783   0.00000  Uiso   1.00
C296   C     0.83374   0.57920   0.24906   0.00000  Uiso   1.00
C297   C     0.81515   0.48034   0.48726   0.00000  Uiso   1.00
C298   C     0.83018   0.47959   0.43211   0.00000  Uiso   1.00
C299   C     0.85103   0.48698   0.01370   0.00000  Uiso   1.00
C300   C     0.90079   0.49041   0.48457   0.00000  Uiso   1.00
C301   C     0.91524   0.48140   0.43163   0.00000  Uiso   1.00
C302   C     0.88048   0.47396   0.40628   0.00000  Uiso   1.00
C303   C     0.83902   0.49192   0.06782   0.00000  Uiso   1.00
C304   C     0.92343   0.50745   0.06238   0.00000  Uiso   1.00
C305   C     0.79439   0.48415   0.40513   0.00000  Uiso   1.00
C306   C     0.87670   0.64584   0.22430   0.00000  Uiso   1.00
C307   C     0.80782   0.49501   0.34937   0.00000  Uiso   1.00
C308   C     0.87554   0.35511   0.22653   0.00000  Uiso   1.00
C309   C     0.83234   0.37614   0.25196   0.00000  Uiso   1.00
C310   C     0.78965   0.35411   0.27664   0.00000  Uiso   1.00
C311   C     0.79084   0.64476   0.27470   0.00000  Uiso   1.00
C312   C     0.83404   0.62380   0.24887   0.00000  Uiso   1.00
C313   C     0.96615   0.52512   0.28336   0.00000  Uiso   1.00
C314   C     0.68235   0.52523   0.28320   0.00000  Uiso   1.00
C315   C     0.70051   0.47431   0.21696   0.00000  Uiso   1.00
C316   C     0.98434   0.47481   0.21640   0.00000  Uiso   1.00
C317   C     0.83282   0.42078   0.25126   0.00000  Uiso   1.00
C318   C     0.85948   0.50093   0.14997   0.00000  Uiso   1.00
C319   C     0.93588   0.50221   0.00861   0.00000  Uiso   1.00
C320   C     0.87478   0.50036   0.09270   0.00000  Uiso   1.00
C321   C     0.74498   0.47903   0.43258   0.00000  Uiso   1.00
C322   C     0.73104   0.47208   0.48575   0.00000  Uiso   1.00
C323   C     0.76508   0.47449   0.01332   0.00000  Uiso   1.00
Cu324  Cu    0.78645   0.49999   0.25000   0.00000  Uiso   1.00
Cu325  Cu    0.88022   0.50001   0.25000   0.00000  Uiso   1.00
H326   H     0.90837   0.37180   0.20735   0.00000  Uiso   1.00
H327   H     0.75813   0.62787   0.29436   0.00000  Uiso   1.00
H328   H     0.94026   0.54529   0.31016   0.00000  Uiso   1.00
H329   H     0.69366   0.54551   0.30984   0.00000  Uiso   1.00
H330   H     0.95360   0.47994   0.40970   0.00000  Uiso   1.00
H331   H     0.97294   0.50799   0.48504   0.00000  Uiso   1.00
H332   H     0.80176   0.48953   0.09151   0.00000  Uiso   1.00
H333   H     0.71707   0.47989   0.41285   0.00000  Uiso   1.00
H334   H     0.75111   0.47054   0.05471   0.00000  Uiso   1.00
H335   H     0.69337   0.46577   0.00631   0.00000  Uiso   1.00
H336   H     0.89423   0.46278   0.36672   0.00000  Uiso   1.00
N337   N     0.71598   0.49999   0.24998   0.00000  Uiso   1.00
N338   N     0.95069   0.50002   0.24999   0.00000  Uiso   1.00
O339   O     0.79375   0.56011   0.25000   0.00000  Uiso   1.00
O340   O     0.87294   0.56012   0.25000   0.00000  Uiso   1.00
O341   O     0.77441   0.49998   0.32549   0.00000  Uiso   1.00
O342   O     0.85360   0.49999   0.32549   0.00000  Uiso   1.00
O343   O     0.79373   0.43988   0.24999   0.00000  Uiso   1.00
O344   O     0.87292   0.43989   0.24999   0.00000  Uiso   1.00
O345   O     0.81306   0.50001   0.17451   0.00000  Uiso   1.00
O346   O     0.89225   0.50002   0.17451   0.00000  Uiso   1.00
C347   C     0.96106   0.52127   0.08460   0.00000  Uiso   1.00
N348   N     0.99132   0.53242   0.10218   0.00000  Uiso   1.00
Cl349  Cl    0.73472   0.37818   0.31286   0.00000  Uiso   1.00
C350   C     0.73438   0.44580   0.18297   0.00000  Uiso   1.00
N351   N     0.76108   0.42269   0.15567   0.00000  Uiso   1.00
C352   C     0.96997   0.44916   0.17902   0.00000  Uiso   1.00
N353   N     0.95924   0.42871   0.14844   0.00000  Uiso   1.00
Cl354  Cl    0.93168   0.62196   0.18783   0.00000  Uiso   1.00
C355   C     0.16707   0.91254   0.24906   0.00000  Uiso   1.00
C356   C     0.14849   0.81368   0.48726   0.00000  Uiso   1.00
C357   C     0.16352   0.81293   0.43211   0.00000  Uiso   1.00
C358   C     0.18436   0.82031   0.01370   0.00000  Uiso   1.00
C359   C     0.23412   0.82374   0.48457   0.00000  Uiso   1.00
C360   C     0.24858   0.81474   0.43163   0.00000  Uiso   1.00
C361   C     0.21381   0.80730   0.40628   0.00000  Uiso   1.00
C362   C     0.17235   0.82526   0.06782   0.00000  Uiso   1.00
C363   C     0.25676   0.84079   0.06238   0.00000  Uiso   1.00
C364   C     0.12772   0.81748   0.40513   0.00000  Uiso   1.00
C365   C     0.21004   0.97918   0.22430   0.00000  Uiso   1.00
C366   C     0.14115   0.82835   0.34937   0.00000  Uiso   1.00
C367   C     0.20887   0.68845   0.22653   0.00000  Uiso   1.00
C368   C     0.16568   0.70948   0.25196   0.00000  Uiso   1.00
C369   C     0.12298   0.68745   0.27664   0.00000  Uiso   1.00
C370   C     0.12418   0.97809   0.27470   0.00000  Uiso   1.00
C371   C     0.16737   0.95714   0.24887   0.00000  Uiso   1.00
C372   C     0.29948   0.85845   0.28336   0.00000  Uiso   1.00
C373   C     0.01569   0.85857   0.28320   0.00000  Uiso   1.00
C374   C     0.03384   0.80764   0.21696   0.00000  Uiso   1.00
C375   C     0.31767   0.80815   0.21640   0.00000  Uiso   1.00
C376   C     0.16616   0.75412   0.25126   0.00000  Uiso   1.00
C377   C     0.19281   0.83426   0.14997   0.00000  Uiso   1.00
C378   C     0.26922   0.83555   0.00861   0.00000  Uiso   1.00
C379   C     0.20812   0.83369   0.09270   0.00000  Uiso   1.00
C380   C     0.07831   0.81237   0.43258   0.00000  Uiso   1.00
C381   C     0.06437   0.80541   0.48575   0.00000  Uiso   1.00
C382   C     0.09841   0.80782   0.01332   0.00000  Uiso   1.00
Cu383  Cu    0.11978   0.83333   0.25000   0.00000  Uiso   1.00
Cu384  Cu    0.21355   0.83334   0.25000   0.00000  Uiso   1.00
H385   H     0.24170   0.70513   0.20735   0.00000  Uiso   1.00
H386   H     0.09146   0.96121   0.29436   0.00000  Uiso   1.00
H387   H     0.27359   0.87862   0.31016   0.00000  Uiso   1.00
H388   H     0.02699   0.87884   0.30984   0.00000  Uiso   1.00
H389   H     0.28693   0.81327   0.40970   0.00000  Uiso   1.00
H390   H     0.30627   0.84132   0.48504   0.00000  Uiso   1.00
H391   H     0.13509   0.82287   0.09151   0.00000  Uiso   1.00
H392   H     0.05041   0.81322   0.41285   0.00000  Uiso   1.00
H393   H     0.08444   0.80388   0.05471   0.00000  Uiso   1.00
H394   H     0.02670   0.79910   0.00631   0.00000  Uiso   1.00
H395   H     0.22757   0.79611   0.36672   0.00000  Uiso   1.00
N396   N     0.04931   0.83332   0.24998   0.00000  Uiso   1.00
N397   N     0.28402   0.83335   0.24999   0.00000  Uiso   1.00
O398   O     0.12708   0.89345   0.25000   0.00000  Uiso   1.00
O399   O     0.20627   0.89346   0.25000   0.00000  Uiso   1.00
O400   O     0.10775   0.83332   0.32549   0.00000  Uiso   1.00
O401   O     0.18694   0.83333   0.32549   0.00000  Uiso   1.00
O402   O     0.12706   0.77321   0.24999   0.00000  Uiso   1.00
O403   O     0.20625   0.77322   0.24999   0.00000  Uiso   1.00
O404   O     0.14640   0.83334   0.17451   0.00000  Uiso   1.00
O405   O     0.22559   0.83335   0.17451   0.00000  Uiso   1.00
C406   C     0.29440   0.85460   0.08460   0.00000  Uiso   1.00
N407   N     0.32466   0.86576   0.10218   0.00000  Uiso   1.00
Cl408  Cl    0.06806   0.71151   0.31286   0.00000  Uiso   1.00
C409   C     0.06771   0.77914   0.18297   0.00000  Uiso   1.00
N410   N     0.09442   0.75603   0.15567   0.00000  Uiso   1.00
C411   C     0.30331   0.78249   0.17902   0.00000  Uiso   1.00
N412   N     0.29258   0.76204   0.14844   0.00000  Uiso   1.00
Cl413  Cl    0.26501   0.95529   0.18783   0.00000  Uiso   1.00
C414   C     0.50041   0.91254   0.24906   0.00000  Uiso   1.00
C415   C     0.48182   0.81368   0.48726   0.00000  Uiso   1.00
C416   C     0.49685   0.81293   0.43211   0.00000  Uiso   1.00
C417   C     0.51770   0.82031   0.01370   0.00000  Uiso   1.00
C418   C     0.56746   0.82374   0.48457   0.00000  Uiso   1.00
C419   C     0.58191   0.81474   0.43163   0.00000  Uiso   1.00
C420   C     0.54715   0.80730   0.40628   0.00000  Uiso   1.00
C421   C     0.50568   0.82526   0.06782   0.00000  Uiso   1.00
C422   C     0.59010   0.84079   0.06238   0.00000  Uiso   1.00
C423   C     0.46105   0.81748   0.40513   0.00000  Uiso   1.00
C424   C     0.54337   0.97918   0.22430   0.00000  Uiso   1.00
C425   C     0.47449   0.82835   0.34937   0.00000  Uiso   1.00
C426   C     0.54220   0.68845   0.22653   0.00000  Uiso   1.00
C427   C     0.49901   0.70948   0.25196   0.00000  Uiso   1.00
C428   C     0.45631   0.68745   0.27664   0.00000  Uiso   1.00
C429   C     0.45751   0.97809   0.27470   0.00000  Uiso   1.00
C430   C     0.50071   0.95714   0.24887   0.00000  Uiso   1.00
C431   C     0.63281   0.85845   0.28336   0.00000  Uiso   1.00
C432   C     0.34902   0.85857   0.28320   0.00000  Uiso   1.00
C433   C     0.36718   0.80764   0.21696   0.00000  Uiso   1.00
C434   C     0.65100   0.80815   0.21640   0.00000  Uiso   1.00
C435   C     0.49949   0.75412   0.25126   0.00000  Uiso   1.00
C436   C     0.52615   0.83426   0.14997   0.00000  Uiso   1.00
C437   C     0.60255   0.83555   0.00861   0.00000  Uiso   1.00
C438   C     0.54145   0.83369   0.09270   0.00000  Uiso   1.00
C439   C     0.41165   0.81237   0.43258   0.00000  Uiso   1.00
C440   C     0.39771   0.80541   0.48575   0.00000  Uiso   1.00
C441   C     0.43174   0.80782   0.01332   0.00000  Uiso   1.00
Cu442  Cu    0.45311   0.83333   0.25000   0.00000  Uiso   1.00
Cu443  Cu    0.54689   0.83334   0.25000   0.00000  Uiso   1.00
H444   H     0.57504   0.70513   0.20735   0.00000  Uiso   1.00
H445   H     0.42480   0.96121   0.29436   0.00000  Uiso   1.00
H446   H     0.60693   0.87862   0.31016   0.00000  Uiso   1.00
H447   H     0.36033   0.87884   0.30984   0.00000  Uiso   1.00
H448   H     0.62026   0.81327   0.40970   0.00000  Uiso   1.00
H449   H     0.63960   0.84132   0.48504   0.00000  Uiso   1.00
H450   H     0.46842   0.82287   0.09151   0.00000  Uiso   1.00
H451   H     0.38374   0.81322   0.41285   0.00000  Uiso   1.00
H452   H     0.41777   0.80388   0.05471   0.00000  Uiso   1.00
H453   H     0.36003   0.79910   0.00631   0.00000  Uiso   1.00
H454   H     0.56090   0.79611   0.36672   0.00000  Uiso   1.00
N455   N     0.38265   0.83332   0.24998   0.00000  Uiso   1.00
N456   N     0.61735   0.83335   0.24999   0.00000  Uiso   1.00
O457   O     0.46042   0.89345   0.25000   0.00000  Uiso   1.00
O458   O     0.53961   0.89346   0.25000   0.00000  Uiso   1.00
O459   O     0.44108   0.83332   0.32549   0.00000  Uiso   1.00
O460   O     0.52027   0.83333   0.32549   0.00000  Uiso   1.00
O461   O     0.46039   0.77321   0.24999   0.00000  Uiso   1.00
O462   O     0.53958   0.77322   0.24999   0.00000  Uiso   1.00
O463   O     0.47973   0.83334   0.17451   0.00000  Uiso   1.00
O464   O     0.55892   0.83335   0.17451   0.00000  Uiso   1.00
C465   C     0.62773   0.85460   0.08460   0.00000  Uiso   1.00
N466   N     0.65799   0.86576   0.10218   0.00000  Uiso   1.00
Cl467  Cl    0.40139   0.71151   0.31286   0.00000  Uiso   1.00
C468   C     0.40105   0.77914   0.18297   0.00000  Uiso   1.00
N469   N     0.42775   0.75603   0.15567   0.00000  Uiso   1.00
C470   C     0.63664   0.78249   0.17902   0.00000  Uiso   1.00
N471   N     0.62591   0.76204   0.14844   0.00000  Uiso   1.00
Cl472  Cl    0.59834   0.95529   0.18783   0.00000  Uiso   1.00
C473   C     0.83374   0.91254   0.24906   0.00000  Uiso   1.00
C474   C     0.81515   0.81368   0.48726   0.00000  Uiso   1.00
C475   C     0.83018   0.81293   0.43211   0.00000  Uiso   1.00
C476   C     0.85103   0.82031   0.01370   0.00000  Uiso   1.00
C477   C     0.90079   0.82374   0.48457   0.00000  Uiso   1.00
C478   C     0.91524   0.81474   0.43163   0.00000  Uiso   1.00
C479   C     0.88048   0.80730   0.40628   0.00000  Uiso   1.00
C480   C     0.83902   0.82526   0.06782   0.00000  Uiso   1.00
C481   C     0.92343   0.84079   0.06238   0.00000  Uiso   1.00
C482   C     0.79439   0.81748   0.40513   0.00000  Uiso   1.00
C483   C     0.87670   0.97918   0.22430   0.00000  Uiso   1.00
C484   C     0.80782   0.82835   0.34937   0.00000  Uiso   1.00
C485   C     0.87554   0.68845   0.22653   0.00000  Uiso   1.00
C486   C     0.83234   0.70948   0.25196   0.00000  Uiso   1.00
C487   C     0.78965   0.68745   0.27664   0.00000  Uiso   1.00
C488   C     0.79084   0.97809   0.27470   0.00000  Uiso   1.00
C489   C     0.83404   0.95714   0.24887   0.00000  Uiso   1.00
C490   C     0.96615   0.85845   0.28336   0.00000  Uiso   1.00
C491   C     0.68235   0.85857   0.28320   0.00000  Uiso   1.00
C492   C     0.70051   0.80764   0.21696   0.00000  Uiso   1.00
C493   C     0.98434   0.80815   0.21640   0.00000  Uiso   1.00
C494   C     0.83282   0.75412   0.25126   0.00000  Uiso   1.00
C495   C     0.85948   0.83426   0.14997   0.00000  Uiso   1.00
C496   C     0.93588   0.83555   0.00861   0.00000  Uiso   1.00
C497   C     0.87478   0.83369   0.09270   0.00000  Uiso   1.00
C498   C     0.74498   0.81237   0.43258   0.00000  Uiso   1.00
C499   C     0.73104   0.80541   0.48575   0.00000  Uiso   1.00
C500   C     0.76508   0.80782   0.01332   0.00000  Uiso   1.00
Cu501  Cu    0.78645   0.83333   0.25000   0.00000  Uiso   1.00
Cu502  Cu    0.88022   0.83334   0.25000   0.00000  Uiso   1.00
H503   H     0.90837   0.70513   0.20735   0.00000  Uiso   1.00
H504   H     0.75813   0.96121   0.29436   0.00000  Uiso   1.00
H505   H     0.94026   0.87862   0.31016   0.00000  Uiso   1.00
H506   H     0.69366   0.87884   0.30984   0.00000  Uiso   1.00
H507   H     0.95360   0.81327   0.40970   0.00000  Uiso   1.00
H508   H     0.97294   0.84132   0.48504   0.00000  Uiso   1.00
H509   H     0.80176   0.82287   0.09151   0.00000  Uiso   1.00
H510   H     0.71707   0.81322   0.41285   0.00000  Uiso   1.00
H511   H     0.75111   0.80388   0.05471   0.00000  Uiso   1.00
H512   H     0.69337   0.79910   0.00631   0.00000  Uiso   1.00
H513   H     0.89423   0.79611   0.36672   0.00000  Uiso   1.00
N514   N     0.71598   0.83332   0.24998   0.00000  Uiso   1.00
N515   N     0.95069   0.83335   0.24999   0.00000  Uiso   1.00
O516   O     0.79375   0.89345   0.25000   0.00000  Uiso   1.00
O517   O     0.87294   0.89346   0.25000   0.00000  Uiso   1.00
O518   O     0.77441   0.83332   0.32549   0.00000  Uiso   1.00
O519   O     0.85360   0.83333   0.32549   0.00000  Uiso   1.00
O520   O     0.79373   0.77321   0.24999   0.00000  Uiso   1.00
O521   O     0.87292   0.77322   0.24999   0.00000  Uiso   1.00
O522   O     0.81306   0.83334   0.17451   0.00000  Uiso   1.00
O523   O     0.89225   0.83335   0.17451   0.00000  Uiso   1.00
C524   C     0.96106   0.85460   0.08460   0.00000  Uiso   1.00
N525   N     0.99132   0.86576   0.10218   0.00000  Uiso   1.00
Cl526  Cl    0.73472   0.71151   0.31286   0.00000  Uiso   1.00
C527   C     0.73438   0.77914   0.18297   0.00000  Uiso   1.00
N528   N     0.76108   0.75603   0.15567   0.00000  Uiso   1.00
C529   C     0.96997   0.78249   0.17902   0.00000  Uiso   1.00
N530   N     0.95924   0.76204   0.14844   0.00000  Uiso   1.00
Cl531  Cl    0.93168   0.95529   0.18783   0.00000  Uiso   1.00
C532   C     0.16707   0.24587   0.74906   0.00000  Uiso   1.00
C533   C     0.14849   0.14701   0.98726   0.00000  Uiso   1.00
C534   C     0.16352   0.14626   0.93211   0.00000  Uiso   1.00
C535   C     0.18436   0.15365   0.51370   0.00000  Uiso   1.00
C536   C     0.23412   0.15707   0.98457   0.00000  Uiso   1.00
C537   C     0.24858   0.14807   0.93163   0.00000  Uiso   1.00
C538   C     0.21381   0.14063   0.90628   0.00000  Uiso   1.00
C539   C     0.17235   0.15859   0.56782   0.00000  Uiso   1.00
C540   C     0.25676   0.17412   0.56238   0.00000  Uiso   1.00
C541   C     0.12772   0.15081   0.90513   0.00000  Uiso   1.00
C542   C     0.21004   0.31251   0.72430   0.00000  Uiso   1.00
C543   C     0.14115   0.16168   0.84937   0.00000  Uiso   1.00
C544   C     0.20887   0.02178   0.72653   0.00000  Uiso   1.00
C545   C     0.16568   0.04281   0.75196   0.00000  Uiso   1.00
C546   C     0.12298   0.02078   0.77664   0.00000  Uiso   1.00
C547   C     0.12418   0.31142   0.77470   0.00000  Uiso   1.00
C548   C     0.16737   0.29047   0.74887   0.00000  Uiso   1.00
C549   C     0.29948   0.19178   0.78336   0.00000  Uiso   1.00
C550   C     0.01569   0.19190   0.78320   0.00000  Uiso   1.00
C551   C     0.03384   0.14098   0.71696   0.00000  Uiso   1.00
C552   C     0.31767   0.14148   0.71640   0.00000  Uiso   1.00
C553   C     0.16616   0.08745   0.75126   0.00000  Uiso   1.00
C554   C     0.19281   0.16760   0.64997   0.00000  Uiso   1.00
C555   C     0.26922   0.16888   0.50861   0.00000  Uiso   1.00
C556   C     0.20812   0.16703   0.59270   0.00000  Uiso   1.00
C557   C     0.07831   0.14570   0.93258   0.00000  Uiso   1.00
C558   C     0.06437   0.13874   0.98575   0.00000  Uiso   1.00
C559   C     0.09841   0.14115   0.51332   0.00000  Uiso   1.00
Cu560  Cu    0.11978   0.16666   0.75000   0.00000  Uiso   1.00
Cu561  Cu    0.21355   0.16667   0.75000   0.00000  Uiso   1.00
H562   H     0.24170   0.03847   0.70735   0.00000  Uiso   1.00
H563   H     0.09146   0.29454   0.79436   0.00000  Uiso   1.00
H564   H     0.27359   0.21196   0.81016   0.00000  Uiso   1.00
H565   H     0.02699   0.21218   0.80984   0.00000  Uiso   1.00
H566   H     0.28693   0.14660   0.90970   0.00000  Uiso   1.00
H567   H     0.30627   0.17466   0.98504   0.00000  Uiso   1.00
H568   H     0.13509   0.15620   0.59151   0.00000  Uiso   1.00
H569   H     0.05041   0.14655   0.91285   0.00000  Uiso   1.00
H570   H     0.08444   0.13721   0.55471   0.00000  Uiso   1.00
H571   H     0.02670   0.13244   0.50631   0.00000  Uiso   1.00
H572   H     0.22757   0.12945   0.86672   0.00000  Uiso   1.00
N573   N     0.04931   0.16666   0.74998   0.00000  Uiso   1.00
N574   N     0.28402   0.16669   0.74999   0.00000  Uiso   1.00
O575   O     0.12708   0.22678   0.75000   0.00000  Uiso   1.00
O576   O     0.20627   0.22679   0.75000   0.00000  Uiso   1.00
O577   O     0.10775   0.16665   0.82549   0.00000  Uiso   1.00
O578   O     0.18694   0.16666   0.82549   0.00000  Uiso   1.00
O579   O     0.12706   0.10654   0.74999   0.00000  Uiso   1.00
O580   O     0.20625   0.10655   0.74999   0.00000  Uiso   1.00
O581   O     0.14640   0.16667   0.67451   0.00000  Uiso   1.00
O582   O     0.22559   0.16668   0.67451   0.00000  Uiso   1.00
C583   C     0.29440   0.18794   0.58460   0.00000  Uiso   1.00
N584   N     0.32466   0.19909   0.60218   0.00000  Uiso   1.00
Cl585  Cl    0.06806   0.04485   0.81286   0.00000  Uiso   1.00
C586   C     0.06771   0.11247   0.68297   0.00000  Uiso   1.00
N587   N     0.09442   0.08936   0.65567   0.00000  Uiso   1.00
C588   C     0.30331   0.11582   0.67902   0.00000  Uiso   1.00
N589   N     0.29258   0.09537   0.64844   0.00000  Uiso   1.00
Cl590  Cl    0.26501   0.28863   0.68783   0.00000  Uiso   1.00
C591   C     0.50041   0.24587   0.74906   0.00000  Uiso   1.00
C592   C     0.48182   0.14701   0.98726   0.00000  Uiso   1.00
C593   C     0.49685   0.14626   0.93211   0.00000  Uiso   1.00
C594   C     0.51770   0.15365   0.51370   0.00000  Uiso   1.00
C595   C     0.56746   0.15707   0.98457   0.00000  Uiso   1.00
C596   C     0.58191   0.14807   0.93163   0.00000  Uiso   1.00
C597   C     0.54715   0.14063   0.90628   0.00000  Uiso   1.00
C598   C     0.50568   0.15859   0.56782   0.00000  Uiso   1.00
C599   C     0.59010   0.17412   0.56238   0.00000  Uiso   1.00
C600   C     0.46105   0.15081   0.90513   0.00000  Uiso   1.00
C601   C     0.54337   0.31251   0.72430   0.00000  Uiso   1.00
C602   C     0.47449   0.16168   0.84937   0.00000  Uiso   1.00
C603   C     0.54220   0.02178   0.72653   0.00000  Uiso   1.00
C604   C     0.49901   0.04281   0.75196   0.00000  Uiso   1.00
C605   C     0.45631   0.02078   0.77664   0.00000  Uiso   1.00
C606   C     0.45751   0.31142   0.77470   0.00000  Uiso   1.00
C607   C     0.50071   0.29047   0.74887   0.00000  Uiso   1.00
C608   C     0.63281   0.19178   0.78336   0.00000  Uiso   1.00
C609   C     0.34902   0.19190   0.78320   0.00000  Uiso   1.00
C610   C     0.36718   0.14098   0.71696   0.00000  Uiso   1.00
C611   C     0.65100   0.14148   0.71640   0.00000  Uiso   1.00
C612   C     0.49949   0.08745   0.75126   0.00000  Uiso   1.00
C613   C     0.52615   0.16760   0.64997   0.00000  Uiso   1.00
C614   C     0.60255   0.16888   0.50861   0.00000  Uiso   1.00
C615   C     0.54145   0.16703   0.59270   0.00000  Uiso   1.00
C616   C     0.41165   0.14570   0.93258   0.00000  Uiso   1.00
C617   C     0.39771   0.13874   0.98575   0.00000  Uiso   1.00
C618   C     0.43174   0.14115   0.51332   0.00000  Uiso   1.00
Cu619  Cu    0.45311   0.16666   0.75000   0.00000  Uiso   1.00
Cu620  Cu    0.54689   0.16667   0.75000   0.00000  Uiso   1.00
H621   H     0.57504   0.03847   0.70735   0.00000  Uiso   1.00
H622   H     0.42480   0.29454   0.79436   0.00000  Uiso   1.00
H623   H     0.60693   0.21196   0.81016   0.00000  Uiso   1.00
H624   H     0.36033   0.21218   0.80984   0.00000  Uiso   1.00
H625   H     0.62026   0.14660   0.90970   0.00000  Uiso   1.00
H626   H     0.63960   0.17466   0.98504   0.00000  Uiso   1.00
H627   H     0.46842   0.15620   0.59151   0.00000  Uiso   1.00
H628   H     0.38374   0.14655   0.91285   0.00000  Uiso   1.00
H629   H     0.41777   0.13721   0.55471   0.00000  Uiso   1.00
H630   H     0.36003   0.13244   0.50631   0.00000  Uiso   1.00
H631   H     0.56090   0.12945   0.86672   0.00000  Uiso   1.00
N632   N     0.38265   0.16666   0.74998   0.00000  Uiso   1.00
N633   N     0.61735   0.16669   0.74999   0.00000  Uiso   1.00
O634   O     0.46042   0.22678   0.75000   0.00000  Uiso   1.00
O635   O     0.53961   0.22679   0.75000   0.00000  Uiso   1.00
O636   O     0.44108   0.16665   0.82549   0.00000  Uiso   1.00
O637   O     0.52027   0.16666   0.82549   0.00000  Uiso   1.00
O638   O     0.46039   0.10654   0.74999   0.00000  Uiso   1.00
O639   O     0.53958   0.10655   0.74999   0.00000  Uiso   1.00
O640   O     0.47973   0.16667   0.67451   0.00000  Uiso   1.00
O641   O     0.55892   0.16668   0.67451   0.00000  Uiso   1.00
C642   C     0.62773   0.18794   0.58460   0.00000  Uiso   1.00
N643   N     0.65799   0.19909   0.60218   0.00000  Uiso   1.00
Cl644  Cl    0.40139   0.04485   0.81286   0.00000  Uiso   1.00
C645   C     0.40105   0.11247   0.68297   0.00000  Uiso   1.00
N646   N     0.42775   0.08936   0.65567   0.00000  Uiso   1.00
C647   C     0.63664   0.11582   0.67902   0.00000  Uiso   1.00
N648   N     0.62591   0.09537   0.64844   0.00000  Uiso   1.00
Cl649  Cl    0.59834   0.28863   0.68783   0.00000  Uiso   1.00
C650   C     0.83374   0.24587   0.74906   0.00000  Uiso   1.00
C651   C     0.81515   0.14701   0.98726   0.00000  Uiso   1.00
C652   C     0.83018   0.14626   0.93211   0.00000  Uiso   1.00
C653   C     0.85103   0.15365   0.51370   0.00000  Uiso   1.00
C654   C     0.90079   0.15707   0.98457   0.00000  Uiso   1.00
C655   C     0.91524   0.14807   0.93163   0.00000  Uiso   1.00
C656   C     0.88048   0.14063   0.90628   0.00000  Uiso   1.00
C657   C     0.83902   0.15859   0.56782   0.00000  Uiso   1.00
C658   C     0.92343   0.17412   0.56238   0.00000  Uiso   1.00
C659   C     0.79439   0.15081   0.90513   0.00000  Uiso   1.00
C660   C     0.87670   0.31251   0.72430   0.00000  Uiso   1.00
C661   C     0.80782   0.16168   0.84937   0.00000  Uiso   1.00
C662   C     0.87554   0.02178   0.72653   0.00000  Uiso   1.00
C663   C     0.83234   0.04281   0.75196   0.00000  Uiso   1.00
C664   C     0.78965   0.02078   0.77664   0.00000  Uiso   1.00
C665   C     0.79084   0.31142   0.77470   0.00000  Uiso   1.00
C666   C     0.83404   0.29047   0.74887   0.00000  Uiso   1.00
C667   C     0.96615   0.19178   0.78336   0.00000  Uiso   1.00
C668   C     0.68235   0.19190   0.78320   0.00000  Uiso   1.00
C669   C     0.70051   0.14098   0.71696   0.00000  Uiso   1.00
C670   C     0.98434   0.14148   0.71640   0.00000  Uiso   1.00
C671   C     0.83282   0.08745   0.75126   0.00000  Uiso   1.00
C672   C     0.85948   0.16760   0.64997   0.00000  Uiso   1.00
C673   C     0.93588   0.16888   0.50861   0.00000  Uiso   1.00
C674   C     0.87478   0.16703   0.59270   0.00000  Uiso   1.00
C675   C     0.74498   0.14570   0.93258   0.00000  Uiso   1.00
C676   C     0.73104   0.13874   0.98575   0.00000  Uiso   1.00
C677   C     0.76508   0.14115   0.51332   0.00000  Uiso   1.00
Cu678  Cu    0.78645   0.16666   0.75000   0.00000  Uiso   1.00
Cu679  Cu    0.88022   0.16667   0.75000   0.00000  Uiso   1.00
H680   H     0.90837   0.03847   0.70735   0.00000  Uiso   1.00
H681   H     0.75813   0.29454   0.79436   0.00000  Uiso   1.00
H682   H     0.94026   0.21196   0.81016   0.00000  Uiso   1.00
H683   H     0.69366   0.21218   0.80984   0.00000  Uiso   1.00
H684   H     0.95360   0.14660   0.90970   0.00000  Uiso   1.00
H685   H     0.97294   0.17466   0.98504   0.00000  Uiso   1.00
H686   H     0.80176   0.15620   0.59151   0.00000  Uiso   1.00
H687   H     0.71707   0.14655   0.91285   0.00000  Uiso   1.00
H688   H     0.75111   0.13721   0.55471   0.00000  Uiso   1.00
H689   H     0.69337   0.13244   0.50631   0.00000  Uiso   1.00
H690   H     0.89423   0.12945   0.86672   0.00000  Uiso   1.00
N691   N     0.71598   0.16666   0.74998   0.00000  Uiso   1.00
N692   N     0.95069   0.16669   0.74999   0.00000  Uiso   1.00
O693   O     0.79375   0.22678   0.75000   0.00000  Uiso   1.00
O694   O     0.87294   0.22679   0.75000   0.00000  Uiso   1.00
O695   O     0.77441   0.16665   0.82549   0.00000  Uiso   1.00
O696   O     0.85360   0.16666   0.82549   0.00000  Uiso   1.00
O697   O     0.79373   0.10654   0.74999   0.00000  Uiso   1.00
O698   O     0.87292   0.10655   0.74999   0.00000  Uiso   1.00
O699   O     0.81306   0.16667   0.67451   0.00000  Uiso   1.00
O700   O     0.89225   0.16668   0.67451   0.00000  Uiso   1.00
C701   C     0.96106   0.18794   0.58460   0.00000  Uiso   1.00
N702   N     0.99132   0.19909   0.60218   0.00000  Uiso   1.00
Cl703  Cl    0.73472   0.04485   0.81286   0.00000  Uiso   1.00
C704   C     0.73438   0.11247   0.68297   0.00000  Uiso   1.00
N705   N     0.76108   0.08936   0.65567   0.00000  Uiso   1.00
C706   C     0.96997   0.11582   0.67902   0.00000  Uiso   1.00
N707   N     0.95924   0.09537   0.64844   0.00000  Uiso   1.00
Cl708  Cl    0.93168   0.28863   0.68783   0.00000  Uiso   1.00
C709   C     0.16707   0.57920   0.74906   0.00000  Uiso   1.00
C710   C     0.14849   0.48034   0.98726   0.00000  Uiso   1.00
C711   C     0.16352   0.47959   0.93211   0.00000  Uiso   1.00
C712   C     0.18436   0.48698   0.51370   0.00000  Uiso   1.00
C713   C     0.23412   0.49041   0.98457   0.00000  Uiso   1.00
C714   C     0.24858   0.48140   0.93163   0.00000  Uiso   1.00
C715   C     0.21381   0.47396   0.90628   0.00000  Uiso   1.00
C716   C     0.17235   0.49192   0.56782   0.00000  Uiso   1.00
C717   C     0.25676   0.50745   0.56238   0.00000  Uiso   1.00
C718   C     0.12772   0.48415   0.90513   0.00000  Uiso   1.00
C719   C     0.21004   0.64584   0.72430   0.00000  Uiso   1.00
C720   C     0.14115   0.49501   0.84937   0.00000  Uiso   1.00
C721   C     0.20887   0.35511   0.72653   0.00000  Uiso   1.00
C722   C     0.16568   0.37614   0.75196   0.00000  Uiso   1.00
C723   C     0.12298   0.35411   0.77664   0.00000  Uiso   1.00
C724   C     0.12418   0.64476   0.77470   0.00000  Uiso   1.00
C725   C     0.16737   0.62380   0.74887   0.00000  Uiso   1.00
C726   C     0.29948   0.52512   0.78336   0.00000  Uiso   1.00
C727   C     0.01569   0.52523   0.78320   0.00000  Uiso   1.00
C728   C     0.03384   0.47431   0.71696   0.00000  Uiso   1.00
C729   C     0.31767   0.47481   0.71640   0.00000  Uiso   1.00
C730   C     0.16616   0.42078   0.75126   0.00000  Uiso   1.00
C731   C     0.19281   0.50093   0.64997   0.00000  Uiso   1.00
C732   C     0.26922   0.50221   0.50861   0.00000  Uiso   1.00
C733   C     0.20812   0.50036   0.59270   0.00000  Uiso   1.00
C734   C     0.07831   0.47903   0.93258   0.00000  Uiso   1.00
C735   C     0.06437   0.47208   0.98575   0.00000  Uiso   1.00
C736   C     0.09841   0.47449   0.51332   0.00000  Uiso   1.00
Cu737  Cu    0.11978   0.49999   0.75000   0.00000  Uiso   1.00
Cu738  Cu    0.21355   0.50001   0.75000   0.00000  Uiso   1.00
H739   H     0.24170   0.37180   0.70735   0.00000  Uiso   1.00
H740   H     0.09146   0.62787   0.79436   0.00000  Uiso   1.00
H741   H     0.27359   0.54529   0.81016   0.00000  Uiso   1.00
H742   H     0.02699   0.54551   0.80984   0.00000  Uiso   1.00
H743   H     0.28693   0.47994   0.90970   0.00000  Uiso   1.00
H744   H     0.30627   0.50799   0.98504   0.00000  Uiso   1.00
H745   H     0.13509   0.48953   0.59151   0.00000  Uiso   1.00
H746   H     0.05041   0.47989   0.91285   0.00000  Uiso   1.00
H747   H     0.08444   0.47054   0.55471   0.00000  Uiso   1.00
H748   H     0.02670   0.46577   0.50631   0.00000  Uiso   1.00
H749   H     0.22757   0.46278   0.86672   0.00000  Uiso   1.00
N750   N     0.04931   0.49999   0.74998   0.00000  Uiso   1.00
N751   N     0.28402   0.50002   0.74999   0.00000  Uiso   1.00
O752   O     0.12708   0.56011   0.75000   0.00000  Uiso   1.00
O753   O     0.20627   0.56012   0.75000   0.00000  Uiso   1.00
O754   O     0.10775   0.49998   0.82549   0.00000  Uiso   1.00
O755   O     0.18694   0.49999   0.82549   0.00000  Uiso   1.00
O756   O     0.12706   0.43988   0.74999   0.00000  Uiso   1.00
O757   O     0.20625   0.43989   0.74999   0.00000  Uiso   1.00
O758   O     0.14640   0.50001   0.67451   0.00000  Uiso   1.00
O759   O     0.22559   0.50002   0.67451   0.00000  Uiso   1.00
C760   C     0.29440   0.52127   0.58460   0.00000  Uiso   1.00
N761   N     0.32466   0.53242   0.60218   0.00000  Uiso   1.00
Cl762  Cl    0.06806   0.37818   0.81286   0.00000  Uiso   1.00
C763   C     0.06771   0.44580   0.68297   0.00000  Uiso   1.00
N764   N     0.09442   0.42269   0.65567   0.00000  Uiso   1.00
C765   C     0.30331   0.44916   0.67902   0.00000  Uiso   1.00
N766   N     0.29258   0.42871   0.64844   0.00000  Uiso   1.00
Cl767  Cl    0.26501   0.62196   0.68783   0.00000  Uiso   1.00
C768   C     0.50041   0.57920   0.74906   0.00000  Uiso   1.00
C769   C     0.48182   0.48034   0.98726   0.00000  Uiso   1.00
C770   C     0.49685   0.47959   0.93211   0.00000  Uiso   1.00
C771   C     0.51770   0.48698   0.51370   0.00000  Uiso   1.00
C772   C     0.56746   0.49041   0.98457   0.00000  Uiso   1.00
C773   C     0.58191   0.48140   0.93163   0.00000  Uiso   1.00
C774   C     0.54715   0.47396   0.90628   0.00000  Uiso   1.00
C775   C     0.50568   0.49192   0.56782   0.00000  Uiso   1.00
C776   C     0.59010   0.50745   0.56238   0.00000  Uiso   1.00
C777   C     0.46105   0.48415   0.90513   0.00000  Uiso   1.00
C778   C     0.54337   0.64584   0.72430   0.00000  Uiso   1.00
C779   C     0.47449   0.49501   0.84937   0.00000  Uiso   1.00
C780   C     0.54220   0.35511   0.72653   0.00000  Uiso   1.00
C781   C     0.49901   0.37614   0.75196   0.00000  Uiso   1.00
C782   C     0.45631   0.35411   0.77664   0.00000  Uiso   1.00
C783   C     0.45751   0.64476   0.77470   0.00000  Uiso   1.00
C784   C     0.50071   0.62380   0.74887   0.00000  Uiso   1.00
C785   C     0.63281   0.52512   0.78336   0.00000  Uiso   1.00
C786   C     0.34902   0.52523   0.78320   0.00000  Uiso   1.00
C787   C     0.36718   0.47431   0.71696   0.00000  Uiso   1.00
C788   C     0.65100   0.47481   0.71640   0.00000  Uiso   1.00
C789   C     0.49949   0.42078   0.75126   0.00000  Uiso   1.00
C790   C     0.52615   0.50093   0.64997   0.00000  Uiso   1.00
C791   C     0.60255   0.50221   0.50861   0.00000  Uiso   1.00
C792   C     0.54145   0.50036   0.59270   0.00000  Uiso   1.00
C793   C     0.41165   0.47903   0.93258   0.00000  Uiso   1.00
C794   C     0.39771   0.47208   0.98575   0.00000  Uiso   1.00
C795   C     0.43174   0.47449   0.51332   0.00000  Uiso   1.00
Cu796  Cu    0.45311   0.49999   0.75000   0.00000  Uiso   1.00
Cu797  Cu    0.54689   0.50001   0.75000   0.00000  Uiso   1.00
H798   H     0.57504   0.37180   0.70735   0.00000  Uiso   1.00
H799   H     0.42480   0.62787   0.79436   0.00000  Uiso   1.00
H800   H     0.60693   0.54529   0.81016   0.00000  Uiso   1.00
H801   H     0.36033   0.54551   0.80984   0.00000  Uiso   1.00
H802   H     0.62026   0.47994   0.90970   0.00000  Uiso   1.00
H803   H     0.63960   0.50799   0.98504   0.00000  Uiso   1.00
H804   H     0.46842   0.48953   0.59151   0.00000  Uiso   1.00
H805   H     0.38374   0.47989   0.91285   0.00000  Uiso   1.00
H806   H     0.41777   0.47054   0.55471   0.00000  Uiso   1.00
H807   H     0.36003   0.46577   0.50631   0.00000  Uiso   1.00
H808   H     0.56090   0.46278   0.86672   0.00000  Uiso   1.00
N809   N     0.38265   0.49999   0.74998   0.00000  Uiso   1.00
N810   N     0.61735   0.50002   0.74999   0.00000  Uiso   1.00
O811   O     0.46042   0.56011   0.75000   0.00000  Uiso   1.00
O812   O     0.53961   0.56012   0.75000   0.00000  Uiso   1.00
O813   O     0.44108   0.49998   0.82549   0.00000  Uiso   1.00
O814   O     0.52027   0.49999   0.82549   0.00000  Uiso   1.00
O815   O     0.46039   0.43988   0.74999   0.00000  Uiso   1.00
O816   O     0.53958   0.43989   0.74999   0.00000  Uiso   1.00
O817   O     0.47973   0.50001   0.67451   0.00000  Uiso   1.00
O818   O     0.55892   0.50002   0.67451   0.00000  Uiso   1.00
C819   C     0.62773   0.52127   0.58460   0.00000  Uiso   1.00
N820   N     0.65799   0.53242   0.60218   0.00000  Uiso   1.00
Cl821  Cl    0.40139   0.37818   0.81286   0.00000  Uiso   1.00
C822   C     0.40105   0.44580   0.68297   0.00000  Uiso   1.00
N823   N     0.42775   0.42269   0.65567   0.00000  Uiso   1.00
C824   C     0.63664   0.44916   0.67902   0.00000  Uiso   1.00
N825   N     0.62591   0.42871   0.64844   0.00000  Uiso   1.00
Cl826  Cl    0.59834   0.62196   0.68783   0.00000  Uiso   1.00
C827   C     0.83374   0.57920   0.74906   0.00000  Uiso   1.00
C828   C     0.81515   0.48034   0.98726   0.00000  Uiso   1.00
C829   C     0.83018   0.47959   0.93211   0.00000  Uiso   1.00
C830   C     0.85103   0.48698   0.51370   0.00000  Uiso   1.00
C831   C     0.90079   0.49041   0.98457   0.00000  Uiso   1.00
C832   C     0.91524   0.48140   0.93163   0.00000  Uiso   1.00
C833   C     0.88048   0.47396   0.90628   0.00000  Uiso   1.00
C834   C     0.83902   0.49192   0.56782   0.00000  Uiso   1.00
C835   C     0.92343   0.50745   0.56238   0.00000  Uiso   1.00
C836   C     0.79439   0.48415   0.90513   0.00000  Uiso   1.00
C837   C     0.87670   0.64584   0.72430   0.00000  Uiso   1.00
C838   C     0.80782   0.49501   0.84937   0.00000  Uiso   1.00
C839   C     0.87554   0.35511   0.72653   0.00000  Uiso   1.00
C840   C     0.83234   0.37614   0.75196   0.00000  Uiso   1.00
C841   C     0.78965   0.35411   0.77664   0.00000  Uiso   1.00
C842   C     0.79084   0.64476   0.77470   0.00000  Uiso   1.00
C843   C     0.83404   0.62380   0.74887   0.00000  Uiso   1.00
C844   C     0.96615   0.52512   0.78336   0.00000  Uiso   1.00
C845   C     0.68235   0.52523   0.78320   0.00000  Uiso   1.00
C846   C     0.70051   0.47431   0.71696   0.00000  Uiso   1.00
C847   C     0.98434   0.47481   0.71640   0.00000  Uiso   1.00
C848   C     0.83282   0.42078   0.75126   0.00000  Uiso   1.00
C849   C     0.85948   0.50093   0.64997   0.00000  Uiso   1.00
C850   C     0.93588   0.50221   0.50861   0.00000  Uiso   1.00
C851   C     0.87478   0.50036   0.59270   0.00000  Uiso   1.00
C852   C     0.74498   0.47903   0.93258   0.00000  Uiso   1.00
C853   C     0.73104   0.47208   0.98575   0.00000  Uiso   1.00
C854   C     0.76508   0.47449   0.51332   0.00000  Uiso   1.00
Cu855  Cu    0.78645   0.49999   0.75000   0.00000  Uiso   1.00
Cu856  Cu    0.88022   0.50001   0.75000   0.00000  Uiso   1.00
H857   H     0.90837   0.37180   0.70735   0.00000  Uiso   1.00
H858   H     0.75813   0.62787   0.79436   0.00000  Uiso   1.00
H859   H     0.94026   0.54529   0.81016   0.00000  Uiso   1.00
H860   H     0.69366   0.54551   0.80984   0.00000  Uiso   1.00
H861   H     0.95360   0.47994   0.90970   0.00000  Uiso   1.00
H862   H     0.97294   0.50799   0.98504   0.00000  Uiso   1.00
H863   H     0.80176   0.48953   0.59151   0.00000  Uiso   1.00
H864   H     0.71707   0.47989   0.91285   0.00000  Uiso   1.00
H865   H     0.75111   0.47054   0.55471   0.00000  Uiso   1.00
H866   H     0.69337   0.46577   0.50631   0.00000  Uiso   1.00
H867   H     0.89423   0.46278   0.86672   0.00000  Uiso   1.00
N868   N     0.71598   0.49999   0.74998   0.00000  Uiso   1.00
N869   N     0.95069   0.50002   0.74999   0.00000  Uiso   1.00
O870   O     0.79375   0.56011   0.75000   0.00000  Uiso   1.00
O871   O     0.87294   0.56012   0.75000   0.00000  Uiso   1.00
O872   O     0.77441   0.49998   0.82549   0.00000  Uiso   1.00
O873   O     0.85360   0.49999   0.82549   0.00000  Uiso   1.00
O874   O     0.79373   0.43988   0.74999   0.00000  Uiso   1.00
O875   O     0.87292   0.43989   0.74999   0.00000  Uiso   1.00
O876   O     0.81306   0.50001   0.67451   0.00000  Uiso   1.00
O877   O     0.89225   0.50002   0.67451   0.00000  Uiso   1.00
C878   C     0.96106   0.52127   0.58460   0.00000  Uiso   1.00
N879   N     0.99132   0.53242   0.60218   0.00000  Uiso   1.00
Cl880  Cl    0.73472   0.37818   0.81286   0.00000  Uiso   1.00
C881   C     0.73438   0.44580   0.68297   0.00000  Uiso   1.00
N882   N     0.76108   0.42269   0.65567   0.00000  Uiso   1.00
C883   C     0.96997   0.44916   0.67902   0.00000  Uiso   1.00
N884   N     0.95924   0.42871   0.64844   0.00000  Uiso   1.00
Cl885  Cl    0.93168   0.62196   0.68783   0.00000  Uiso   1.00
C886   C     0.16707   0.91254   0.74906   0.00000  Uiso   1.00
C887   C     0.14849   0.81368   0.98726   0.00000  Uiso   1.00
C888   C     0.16352   0.81293   0.93211   0.00000  Uiso   1.00
C889   C     0.18436   0.82031   0.51370   0.00000  Uiso   1.00
C890   C     0.23412   0.82374   0.98457   0.00000  Uiso   1.00
C891   C     0.24858   0.81474   0.93163   0.00000  Uiso   1.00
C892   C     0.21381   0.80730   0.90628   0.00000  Uiso   1.00
C893   C     0.17235   0.82526   0.56782   0.00000  Uiso   1.00
C894   C     0.25676   0.84079   0.56238   0.00000  Uiso   1.00
C895   C     0.12772   0.81748   0.90513   0.00000  Uiso   1.00
C896   C     0.21004   0.97918   0.72430   0.00000  Uiso   1.00
C897   C     0.14115   0.82835   0.84937   0.00000  Uiso   1.00
C898   C     0.20887   0.68845   0.72653   0.00000  Uiso   1.00
C899   C     0.16568   0.70948   0.75196   0.00000  Uiso   1.00
C900   C     0.12298   0.68745   0.77664   0.00000  Uiso   1.00
C901   C     0.12418   0.97809   0.77470   0.00000  Uiso   1.00
C902   C     0.16737   0.95714   0.74887   0.00000  Uiso   1.00
C903   C     0.29948   0.85845   0.78336   0.00000  Uiso   1.00
C904   C     0.01569   0.85857   0.78320   0.00000  Uiso   1.00
C905   C     0.03384   0.80764   0.71696   0.00000  Uiso   1.00
C906   C     0.31767   0.80815   0.71640   0.00000  Uiso   1.00
C907   C     0.16616   0.75412   0.75126   0.00000  Uiso   1.00
C908   C     0.19281   0.83426   0.64997   0.00000  Uiso   1.00
C909   C     0.26922   0.83555   0.50861   0.00000  Uiso   1.00
C910   C     0.20812   0.83369   0.59270   0.00000  Uiso   1.00
C911   C     0.07831   0.81237   0.93258   0.00000  Uiso   1.00
C912   C     0.06437   0.80541   0.98575   0.00000  Uiso   1.00
C913   C     0.09841   0.80782   0.51332   0.00000  Uiso   1.00
Cu914  Cu    0.11978   0.83333   0.75000   0.00000  Uiso   1.00
Cu915  Cu    0.21355   0.83334   0.75000   0.00000  Uiso   1.00
H916   H     0.24170   0.70513   0.70735   0.00000  Uiso   1.00
H917   H     0.09146   0.96121   0.79436   0.00000  Uiso   1.00
H918   H     0.27359   0.87862   0.81016   0.00000  Uiso   1.00
H919   H     0.02699   0.87884   0.80984   0.00000  Uiso   1.00
H920   H     0.28693   0.81327   0.90970   0.00000  Uiso   1.00
H921   H     0.30627   0.84132   0.98504   0.00000  Uiso   1.00
H922   H     0.13509   0.82287   0.59151   0.00000  Uiso   1.00
H923   H     0.05041   0.81322   0.91285   0.00000  Uiso   1.00
H924   H     0.08444   0.80388   0.55471   0.00000  Uiso   1.00
H925   H     0.02670   0.79910   0.50631   0.00000  Uiso   1.00
H926   H     0.22757   0.79611   0.86672   0.00000  Uiso   1.00
N927   N     0.04931   0.83332   0.74998   0.00000  Uiso   1.00
N928   N     0.28402   0.83335   0.74999   0.00000  Uiso   1.00
O929   O     0.12708   0.89345   0.75000   0.00000  Uiso   1.00
O930   O     0.20627   0.89346   0.75000   0.00000  Uiso   1.00
O931   O     0.10775   0.83332   0.82549   0.00000  Uiso   1.00
O932   O     0.18694   0.83333   0.82549   0.00000  Uiso   1.00
O933   O     0.12706   0.77321   0.74999   0.00000  Uiso   1.00
O934   O     0.20625   0.77322   0.74999   0.00000  Uiso   1.00
O935   O     0.14640   0.83334   0.67451   0.00000  Uiso   1.00
O936   O     0.22559   0.83335   0.67451   0.00000  Uiso   1.00
C937   C     0.29440   0.85460   0.58460   0.00000  Uiso   1.00
N938   N     0.32466   0.86576   0.60218   0.00000  Uiso   1.00
Cl939  Cl    0.06806   0.71151   0.81286   0.00000  Uiso   1.00
C940   C     0.06771   0.77914   0.68297   0.00000  Uiso   1.00
N941   N     0.09442   0.75603   0.65567   0.00000  Uiso   1.00
C942   C     0.30331   0.78249   0.67902   0.00000  Uiso   1.00
N943   N     0.29258   0.76204   0.64844   0.00000  Uiso   1.00
Cl944  Cl    0.26501   0.95529   0.68783   0.00000  Uiso   1.00
C945   C     0.50041   0.91254   0.74906   0.00000  Uiso   1.00
C946   C     0.48182   0.81368   0.98726   0.00000  Uiso   1.00
C947   C     0.49685   0.81293   0.93211   0.00000  Uiso   1.00
C948   C     0.51770   0.82031   0.51370   0.00000  Uiso   1.00
C949   C     0.56746   0.82374   0.98457   0.00000  Uiso   1.00
C950   C     0.58191   0.81474   0.93163   0.00000  Uiso   1.00
C951   C     0.54715   0.80730   0.90628   0.00000  Uiso   1.00
C952   C     0.50568   0.82526   0.56782   0.00000  Uiso   1.00
C953   C     0.59010   0.84079   0.56238   0.00000  Uiso   1.00
C954   C     0.46105   0.81748   0.90513   0.00000  Uiso   1.00
C955   C     0.54337   0.97918   0.72430   0.00000  Uiso   1.00
C956   C     0.47449   0.82835   0.84937   0.00000  Uiso   1.00
C957   C     0.54220   0.68845   0.72653   0.00000  Uiso   1.00
C958   C     0.49901   0.70948   0.75196   0.00000  Uiso   1.00
C959   C     0.45631   0.68745   0.77664   0.00000  Uiso   1.00
C960   C     0.45751   0.97809   0.77470   0.00000  Uiso   1.00
C961   C     0.50071   0.95714   0.74887   0.00000  Uiso   1.00
C962   C     0.63281   0.85845   0.78336   0.00000  Uiso   1.00
C963   C     0.34902   0.85857   0.78320   0.00000  Uiso   1.00
C964   C     0.36718   0.80764   0.71696   0.00000  Uiso   1.00
C965   C     0.65100   0.80815   0.71640   0.00000  Uiso   1.00
C966   C     0.49949   0.75412   0.75126   0.00000  Uiso   1.00
C967   C     0.52615   0.83426   0.64997   0.00000  Uiso   1.00
C968   C     0.60255   0.83555   0.50861   0.00000  Uiso   1.00
C969   C     0.54145   0.83369   0.59270   0.00000  Uiso   1.00
C970   C     0.41165   0.81237   0.93258   0.00000  Uiso   1.00
C971   C     0.39771   0.80541   0.98575   0.00000  Uiso   1.00
C972   C     0.43174   0.80782   0.51332   0.00000  Uiso   1.00
Cu973  Cu    0.45311   0.83333   0.75000   0.00000  Uiso   1.00
Cu974  Cu    0.54689   0.83334   0.75000   0.00000  Uiso   1.00
H975   H     0.57504   0.70513   0.70735   0.00000  Uiso   1.00
H976   H     0.42480   0.96121   0.79436   0.00000  Uiso   1.00
H977   H     0.60693   0.87862   0.81016   0.00000  Uiso   1.00
H978   H     0.36033   0.87884   0.80984   0.00000  Uiso   1.00
H979   H     0.62026   0.81327   0.90970   0.00000  Uiso   1.00
H980   H     0.63960   0.84132   0.98504   0.00000  Uiso   1.00
H981   H     0.46842   0.82287   0.59151   0.00000  Uiso   1.00
H982   H     0.38374   0.81322   0.91285   0.00000  Uiso   1.00
H983   H     0.41777   0.80388   0.55471   0.00000  Uiso   1.00
H984   H     0.36003   0.79910   0.50631   0.00000  Uiso   1.00
H985   H     0.56090   0.79611   0.86672   0.00000  Uiso   1.00
N986   N     0.38265   0.83332   0.74998   0.00000  Uiso   1.00
N987   N     0.61735   0.83335   0.74999   0.00000  Uiso   1.00
O988   O     0.46042   0.89345   0.75000   0.00000  Uiso   1.00
O989   O     0.53961   0.89346   0.75000   0.00000  Uiso   1.00
O990   O     0.44108   0.83332   0.82549   0.00000  Uiso   1.00
O991   O     0.52027   0.83333   0.82549   0.00000  Uiso   1.00
O992   O     0.46039   0.77321   0.74999   0.00000  Uiso   1.00
O993   O     0.53958   0.77322   0.74999   0.00000  Uiso   1.00
O994   O     0.47973   0.83334   0.67451   0.00000  Uiso   1.00
O995   O     0.55892   0.83335   0.67451   0.00000  Uiso   1.00
C996   C     0.62773   0.85460   0.58460   0.00000  Uiso   1.00
N997   N     0.65799   0.86576   0.60218   0.00000  Uiso   1.00
Cl998  Cl    0.40139   0.71151   0.81286   0.00000  Uiso   1.00
C999   C     0.40105   0.77914   0.68297   0.00000  Uiso   1.00
N1000  N     0.42775   0.75603   0.65567   0.00000  Uiso   1.00
C1001  C     0.63664   0.78249   0.67902   0.00000  Uiso   1.00
N1002  N     0.62591   0.76204   0.64844   0.00000  Uiso   1.00
Cl1003 Cl    0.59834   0.95529   0.68783   0.00000  Uiso   1.00
C1004  C     0.83374   0.91254   0.74906   0.00000  Uiso   1.00
C1005  C     0.81515   0.81368   0.98726   0.00000  Uiso   1.00
C1006  C     0.83018   0.81293   0.93211   0.00000  Uiso   1.00
C1007  C     0.85103   0.82031   0.51370   0.00000  Uiso   1.00
C1008  C     0.90079   0.82374   0.98457   0.00000  Uiso   1.00
C1009  C     0.91524   0.81474   0.93163   0.00000  Uiso   1.00
C1010  C     0.88048   0.80730   0.90628   0.00000  Uiso   1.00
C1011  C     0.83902   0.82526   0.56782   0.00000  Uiso   1.00
C1012  C     0.92343   0.84079   0.56238   0.00000  Uiso   1.00
C1013  C     0.79439   0.81748   0.90513   0.00000  Uiso   1.00
C1014  C     0.87670   0.97918   0.72430   0.00000  Uiso   1.00
C1015  C     0.80782   0.82835   0.84937   0.00000  Uiso   1.00
C1016  C     0.87554   0.68845   0.72653   0.00000  Uiso   1.00
C1017  C     0.83234   0.70948   0.75196   0.00000  Uiso   1.00
C1018  C     0.78965   0.68745   0.77664   0.00000  Uiso   1.00
C1019  C     0.79084   0.97809   0.77470   0.00000  Uiso   1.00
C1020  C     0.83404   0.95714   0.74887   0.00000  Uiso   1.00
C1021  C     0.96615   0.85845   0.78336   0.00000  Uiso   1.00
C1022  C     0.68235   0.85857   0.78320   0.00000  Uiso   1.00
C1023  C     0.70051   0.80764   0.71696   0.00000  Uiso   1.00
C1024  C     0.98434   0.80815   0.71640   0.00000  Uiso   1.00
C1025  C     0.83282   0.75412   0.75126   0.00000  Uiso   1.00
C1026  C     0.85948   0.83426   0.64997   0.00000  Uiso   1.00
C1027  C     0.93588   0.83555   0.50861   0.00000  Uiso   1.00
C1028  C     0.87478   0.83369   0.59270   0.00000  Uiso   1.00
C1029  C     0.74498   0.81237   0.93258   0.00000  Uiso   1.00
C1030  C     0.73104   0.80541   0.98575   0.00000  Uiso   1.00
C1031  C     0.76508   0.80782   0.51332   0.00000  Uiso   1.00
Cu1032 Cu    0.78645   0.83333   0.75000   0.00000  Uiso   1.00
Cu1033 Cu    0.88022   0.83334   0.75000   0.00000  Uiso   1.00
H1034  H     0.90837   0.70513   0.70735   0.00000  Uiso   1.00
H1035  H     0.75813   0.96121   0.79436   0.00000  Uiso   1.00
H1036  H     0.94026   0.87862   0.81016   0.00000  Uiso   1.00
H1037  H     0.69366   0.87884   0.80984   0.00000  Uiso   1.00
H1038  H     0.95360   0.81327   0.90970   0.00000  Uiso   1.00
H1039  H     0.97294   0.84132   0.98504   0.00000  Uiso   1.00
H1040  H     0.80176   0.82287   0.59151   0.00000  Uiso   1.00
H1041  H     0.71707   0.81322   0.91285   0.00000  Uiso   1.00
H1042  H     0.75111   0.80388   0.55471   0.00000  Uiso   1.00
H1043  H     0.69337   0.79910   0.50631   0.00000  Uiso   1.00
H1044  H     0.89423   0.79611   0.86672   0.00000  Uiso   1.00
N1045  N     0.71598   0.83332   0.74998   0.00000  Uiso   1.00
N1046  N     0.95069   0.83335   0.74999   0.00000  Uiso   1.00
O1047  O     0.79375   0.89345   0.75000   0.00000  Uiso   1.00
O1048  O     0.87294   0.89346   0.75000   0.00000  Uiso   1.00
O1049  O     0.77441   0.83332   0.82549   0.00000  Uiso   1.00
O1050  O     0.85360   0.83333   0.82549   0.00000  Uiso   1.00
O1051  O     0.79373   0.77321   0.74999   0.00000  Uiso   1.00
O1052  O     0.87292   0.77322   0.74999   0.00000  Uiso   1.00
O1053  O     0.81306   0.83334   0.67451   0.00000  Uiso   1.00
O1054  O     0.89225   0.83335   0.67451   0.00000  Uiso   1.00
C1055  C     0.96106   0.85460   0.58460   0.00000  Uiso   1.00
N1056  N     0.99132   0.86576   0.60218   0.00000  Uiso   1.00
Cl1057 Cl    0.73472   0.71151   0.81286   0.00000  Uiso   1.00
C1058  C     0.73438   0.77914   0.68297   0.00000  Uiso   1.00
N1059  N     0.76108   0.75603   0.65567   0.00000  Uiso   1.00
C1060  C     0.96997   0.78249   0.67902   0.00000  Uiso   1.00
N1061  N     0.95924   0.76204   0.64844   0.00000  Uiso   1.00
Cl1062 Cl    0.93168   0.95529   0.68783   0.00000  Uiso   1.00
loop_
_geom_bond_atom_site_label_1
_geom_bond_atom_site_label_2
_geom_bond_distance
_geom_bond_site_symmetry_2
_ccdc_geom_bond_type
C1     O44     1.295   .     A
C1     O45     1.292   .     A
C1     C17     1.448   .     S
C2     C3      1.419   .     A
C2     C535    1.426   .     S
C2     C559    1.414   .     S
C3     C10     1.430   .     A
C3     C7      1.415   .     A
C4     C8      1.401   .     A
C4     C533    1.426   1_554 S
C4     C536    1.416   1_554 S
C5     C6      1.388   .     A
C5     C535    1.416   .     S
C5     C555    1.396   .     S
C6     C7      1.381   .     A
C6     H35     1.085   .     S
C7     H41     1.077   .     S
C8     C25     1.403   .     A
C8     H37     1.074   .     S
C9     C24     1.392   .     A
C9     C25     1.414   .     A
C9     C52     1.445   .     S
C10    C12     1.485   .     S
C10    C26     1.402   .     A
C11    Cl59    1.765   .     S
C11    C17     1.408   .     A
C11    C190    1.384   .     S
C12    O47     1.291   .     A
C12    O46     1.313   .     A
C13    C14     1.399   .     A
C13    H31     1.080   .     S
C13    C365    1.384   1_545 S
C14    C22     1.450   .     S
C14    C15     1.409   .     A
C15    Cl54    1.765   .     S
C15    C370    1.386   1_545 S
C16    H32     1.084   .     S
C16    C17     1.400   .     A
C16    C192    1.386   .     S
C18    H33     1.082   .     S
C18    N43     1.368   .     A
C18    C78     1.418   .     S
C19    N42     1.367   .     A
C19    H34     1.082   .     S
C19    C136    1.418   1_455 S
C20    N42     1.372   .     A
C20    C55     1.445   .     S
C20    C139    1.423   1_455 S
C21    C57     1.444   .     S
C21    N43     1.372   .     A
C21    C79     1.423   .     S
C22    O48     1.292   .     A
C22    O49     1.296   .     A
C23    O51     1.298   .     A
C23    C25     1.473   .     S
C23    O50     1.300   .     A
C24    C536    1.396   1_554 S
C24    H567    1.083   1_554 S
C26    H38     1.083   .     S
C26    C27     1.391   .     A
C27    C559    1.390   .     S
C27    H571    1.079   .     S
C28    H39     1.077   .     S
C28    C558    1.390   1_554 S
C28    C533    1.414   1_554 S
Cu29   N42     2.020   .     S
Cu29   O46     1.959   .     S
Cu29   Cu30    2.687   .     S
Cu29   O50     1.949   .     S
Cu29   O44     1.963   .     S
Cu29   O48     1.964   .     S
Cu30   O51     1.959   .     S
Cu30   N43     2.019   .     S
Cu30   O47     1.949   .     S
Cu30   O45     1.964   .     S
Cu30   O49     1.963   .     S
H36    C555    1.083   .     S
H40    C558    1.079   1_554 S
C52    N53     1.158   .     T
C55    N56     1.158   .     T
C57    N58     1.157   .     T
C60    O103    1.295   .     A
C60    O104    1.292   .     A
C60    C76     1.448   .     S
C61    C62     1.419   .     A
C61    C594    1.426   .     S
C61    C618    1.414   .     S
C62    C69     1.430   .     A
C62    C66     1.415   .     A
C63    C67     1.401   .     A
C63    C592    1.426   1_554 S
C63    C595    1.416   1_554 S
C64    C65     1.388   .     A
C64    C594    1.416   .     S
C64    C614    1.396   .     S
C65    C66     1.381   .     A
C65    H94     1.085   .     S
C66    H100    1.077   .     S
C67    C84     1.403   .     A
C67    H96     1.074   .     S
C68    C83     1.392   .     A
C68    C84     1.414   .     A
C68    C111    1.445   .     S
C69    C71     1.485   .     S
C69    C85     1.402   .     A
C70    Cl118   1.765   .     S
C70    C76     1.408   .     A
C70    C249    1.384   .     S
C71    O106    1.291   .     A
C71    O105    1.313   .     A
C72    C73     1.399   .     A
C72    H90     1.080   .     S
C72    C424    1.384   1_545 S
C73    C81     1.450   .     S
C73    C74     1.409   .     A
C74    Cl113   1.765   .     S
C74    C429    1.386   1_545 S
C75    H91     1.084   .     S
C75    C76     1.400   .     A
C75    C251    1.386   .     S
C77    H92     1.082   .     S
C77    N102    1.368   .     A
C77    C137    1.418   .     S
C78    N101    1.367   .     A
C78    H93     1.082   .     S
C79    N101    1.372   .     A
C79    C114    1.445   .     S
C80    C116    1.444   .     S
C80    N102    1.372   .     A
C80    C138    1.423   .     S
C81    O107    1.292   .     A
C81    O108    1.296   .     A
C82    O110    1.298   .     A
C82    C84     1.473   .     S
C82    O109    1.300   .     A
C83    C595    1.396   1_554 S
C83    H626    1.083   1_554 S
C85    H97     1.083   .     S
C85    C86     1.391   .     A
C86    C618    1.390   .     S
C86    H630    1.079   .     S
C87    H98     1.077   .     S
C87    C617    1.390   1_554 S
C87    C592    1.414   1_554 S
Cu88   N101    2.020   .     S
Cu88   O105    1.959   .     S
Cu88   Cu89    2.687   .     S
Cu88   O109    1.949   .     S
Cu88   O103    1.963   .     S
Cu88   O107    1.964   .     S
Cu89   O110    1.959   .     S
Cu89   N102    2.019   .     S
Cu89   O106    1.949   .     S
Cu89   O104    1.964   .     S
Cu89   O108    1.963   .     S
H95    C614    1.083   .     S
H99    C617    1.079   1_554 S
C111   N112    1.158   .     T
C114   N115    1.158   .     T
C116   N117    1.157   .     T
C119   O162    1.295   .     A
C119   O163    1.292   .     A
C119   C135    1.448   .     S
C120   C121    1.419   .     A
C120   C653    1.426   .     S
C120   C677    1.414   .     S
C121   C128    1.430   .     A
C121   C125    1.415   .     A
C122   C126    1.401   .     A
C122   C651    1.426   1_554 S
C122   C654    1.416   1_554 S
C123   C124    1.388   .     A
C123   C653    1.416   .     S
C123   C673    1.396   .     S
C124   C125    1.381   .     A
C124   H153    1.085   .     S
C125   H159    1.077   .     S
C126   C143    1.403   .     A
C126   H155    1.074   .     S
C127   C142    1.392   .     A
C127   C143    1.414   .     A
C127   C170    1.445   .     S
C128   C130    1.485   .     S
C128   C144    1.402   .     A
C129   Cl177   1.765   .     S
C129   C135    1.408   .     A
C129   C308    1.384   .     S
C130   O165    1.291   .     A
C130   O164    1.313   .     A
C131   C132    1.399   .     A
C131   H149    1.080   .     S
C131   C483    1.384   1_545 S
C132   C140    1.450   .     S
C132   C133    1.409   .     A
C133   Cl172   1.765   .     S
C133   C488    1.386   1_545 S
C134   H150    1.084   .     S
C134   C135    1.400   .     A
C134   C310    1.386   .     S
C136   H151    1.082   .     S
C136   N161    1.368   .     A
C136   C19     1.418   1_655 S
C137   N160    1.367   .     A
C137   H152    1.082   .     S
C138   N160    1.372   .     A
C138   C173    1.445   .     S
C139   C175    1.444   .     S
C139   N161    1.372   .     A
C139   C20     1.423   1_655 S
C140   O166    1.292   .     A
C140   O167    1.296   .     A
C141   O169    1.298   .     A
C141   C143    1.473   .     S
C141   O168    1.300   .     A
C142   C654    1.396   1_554 S
C142   H685    1.083   1_554 S
C144   H156    1.083   .     S
C144   C145    1.391   .     A
C145   C677    1.390   .     S
C145   H689    1.079   .     S
C146   H157    1.077   .     S
C146   C676    1.390   1_554 S
C146   C651    1.414   1_554 S
Cu147  N160    2.020   .     S
Cu147  O164    1.959   .     S
Cu147  Cu148   2.687   .     S
Cu147  O168    1.949   .     S
Cu147  O162    1.963   .     S
Cu147  O166    1.964   .     S
Cu148  O169    1.959   .     S
Cu148  N161    2.019   .     S
Cu148  O165    1.949   .     S
Cu148  O163    1.964   .     S
Cu148  O167    1.963   .     S
H154   C673    1.083   .     S
H158   C676    1.079   1_554 S
C170   N171    1.158   .     T
C173   N174    1.158   .     T
C175   N176    1.157   .     T
C178   O221    1.295   .     A
C178   O222    1.292   .     A
C178   C194    1.448   .     S
C179   C180    1.419   .     A
C179   C712    1.426   .     S
C179   C736    1.414   .     S
C180   C187    1.430   .     A
C180   C184    1.415   .     A
C181   C185    1.401   .     A
C181   C710    1.426   1_554 S
C181   C713    1.416   1_554 S
C182   C183    1.388   .     A
C182   C712    1.416   .     S
C182   C732    1.396   .     S
C183   C184    1.381   .     A
C183   H212    1.085   .     S
C184   H218    1.077   .     S
C185   C202    1.403   .     A
C185   H214    1.074   .     S
C186   C201    1.392   .     A
C186   C202    1.414   .     A
C186   C229    1.445   .     S
C187   C189    1.485   .     S
C187   C203    1.402   .     A
C188   Cl236   1.765   .     S
C188   C194    1.408   .     A
C188   C367    1.384   .     S
C189   O224    1.291   .     A
C189   O223    1.313   .     A
C190   C191    1.399   .     A
C190   H208    1.080   .     S
C191   C199    1.450   .     S
C191   C192    1.409   .     A
C192   Cl231   1.765   .     S
C193   H209    1.084   .     S
C193   C194    1.400   .     A
C193   C369    1.386   .     S
C195   H210    1.082   .     S
C195   N220    1.368   .     A
C195   C255    1.418   .     S
C196   N219    1.367   .     A
C196   H211    1.082   .     S
C196   C313    1.418   1_455 S
C197   N219    1.372   .     A
C197   C232    1.445   .     S
C197   C316    1.423   1_455 S
C198   C234    1.444   .     S
C198   N220    1.372   .     A
C198   C256    1.423   .     S
C199   O225    1.292   .     A
C199   O226    1.296   .     A
C200   O228    1.298   .     A
C200   C202    1.473   .     S
C200   O227    1.300   .     A
C201   C713    1.396   1_554 S
C201   H744    1.083   1_554 S
C203   H215    1.083   .     S
C203   C204    1.391   .     A
C204   C736    1.390   .     S
C204   H748    1.079   .     S
C205   H216    1.077   .     S
C205   C735    1.390   1_554 S
C205   C710    1.414   1_554 S
Cu206  N219    2.020   .     S
Cu206  O223    1.959   .     S
Cu206  Cu207   2.687   .     S
Cu206  O227    1.949   .     S
Cu206  O221    1.963   .     S
Cu206  O225    1.964   .     S
Cu207  O228    1.959   .     S
Cu207  N220    2.019   .     S
Cu207  O224    1.949   .     S
Cu207  O222    1.964   .     S
Cu207  O226    1.963   .     S
H213   C732    1.083   .     S
H217   C735    1.079   1_554 S
C229   N230    1.158   .     T
C232   N233    1.158   .     T
C234   N235    1.157   .     T
C237   O280    1.295   .     A
C237   O281    1.292   .     A
C237   C253    1.448   .     S
C238   C239    1.419   .     A
C238   C771    1.426   .     S
C238   C795    1.414   .     S
C239   C246    1.430   .     A
C239   C243    1.415   .     A
C240   C244    1.401   .     A
C240   C769    1.426   1_554 S
C240   C772    1.416   1_554 S
C241   C242    1.388   .     A
C241   C771    1.416   .     S
C241   C791    1.396   .     S
C242   C243    1.381   .     A
C242   H271    1.085   .     S
C243   H277    1.077   .     S
C244   C261    1.403   .     A
C244   H273    1.074   .     S
C245   C260    1.392   .     A
C245   C261    1.414   .     A
C245   C288    1.445   .     S
C246   C248    1.485   .     S
C246   C262    1.402   .     A
C247   Cl295   1.765   .     S
C247   C253    1.408   .     A
C247   C426    1.384   .     S
C248   O283    1.291   .     A
C248   O282    1.313   .     A
C249   C250    1.399   .     A
C249   H267    1.080   .     S
C250   C258    1.450   .     S
C250   C251    1.409   .     A
C251   Cl290   1.765   .     S
C252   H268    1.084   .     S
C252   C253    1.400   .     A
C252   C428    1.386   .     S
C254   H269    1.082   .     S
C254   N279    1.368   .     A
C254   C314    1.418   .     S
C255   N278    1.367   .     A
C255   H270    1.082   .     S
C256   N278    1.372   .     A
C256   C291    1.445   .     S
C257   C293    1.444   .     S
C257   N279    1.372   .     A
C257   C315    1.423   .     S
C258   O284    1.292   .     A
C258   O285    1.296   .     A
C259   O287    1.298   .     A
C259   C261    1.473   .     S
C259   O286    1.300   .     A
C260   C772    1.396   1_554 S
C260   H803    1.083   1_554 S
C262   H274    1.083   .     S
C262   C263    1.391   .     A
C263   C795    1.390   .     S
C263   H807    1.079   .     S
C264   H275    1.077   .     S
C264   C794    1.390   1_554 S
C264   C769    1.414   1_554 S
Cu265  N278    2.020   .     S
Cu265  O282    1.959   .     S
Cu265  Cu266   2.687   .     S
Cu265  O286    1.949   .     S
Cu265  O280    1.963   .     S
Cu265  O284    1.964   .     S
Cu266  O287    1.959   .     S
Cu266  N279    2.019   .     S
Cu266  O283    1.949   .     S
Cu266  O281    1.964   .     S
Cu266  O285    1.963   .     S
H272   C791    1.083   .     S
H276   C794    1.079   1_554 S
C288   N289    1.158   .     T
C291   N292    1.158   .     T
C293   N294    1.157   .     T
C296   O339    1.295   .     A
C296   O340    1.292   .     A
C296   C312    1.448   .     S
C297   C298    1.419   .     A
C297   C830    1.426   .     S
C297   C854    1.414   .     S
C298   C305    1.430   .     A
C298   C302    1.415   .     A
C299   C303    1.401   .     A
C299   C828    1.426   1_554 S
C299   C831    1.416   1_554 S
C300   C301    1.388   .     A
C300   C830    1.416   .     S
C300   C850    1.396   .     S
C301   C302    1.381   .     A
C301   H330    1.085   .     S
C302   H336    1.077   .     S
C303   C320    1.403   .     A
C303   H332    1.074   .     S
C304   C319    1.392   .     A
C304   C320    1.414   .     A
C304   C347    1.445   .     S
C305   C307    1.485   .     S
C305   C321    1.402   .     A
C306   Cl354   1.765   .     S
C306   C312    1.408   .     A
C306   C485    1.384   .     S
C307   O342    1.291   .     A
C307   O341    1.313   .     A
C308   C309    1.399   .     A
C308   H326    1.080   .     S
C309   C317    1.450   .     S
C309   C310    1.409   .     A
C310   Cl349   1.765   .     S
C311   H327    1.084   .     S
C311   C312    1.400   .     A
C311   C487    1.386   .     S
C313   H328    1.082   .     S
C313   N338    1.368   .     A
C313   C196    1.418   1_655 S
C314   N337    1.367   .     A
C314   H329    1.082   .     S
C315   N337    1.372   .     A
C315   C350    1.445   .     S
C316   C352    1.444   .     S
C316   N338    1.372   .     A
C316   C197    1.423   1_655 S
C317   O343    1.292   .     A
C317   O344    1.296   .     A
C318   O346    1.298   .     A
C318   C320    1.473   .     S
C318   O345    1.300   .     A
C319   C831    1.396   1_554 S
C319   H862    1.083   1_554 S
C321   H333    1.083   .     S
C321   C322    1.391   .     A
C322   C854    1.390   .     S
C322   H866    1.079   .     S
C323   H334    1.077   .     S
C323   C853    1.390   1_554 S
C323   C828    1.414   1_554 S
Cu324  N337    2.020   .     S
Cu324  O341    1.959   .     S
Cu324  Cu325   2.687   .     S
Cu324  O345    1.949   .     S
Cu324  O339    1.963   .     S
Cu324  O343    1.964   .     S
Cu325  O346    1.959   .     S
Cu325  N338    2.019   .     S
Cu325  O342    1.949   .     S
Cu325  O340    1.964   .     S
Cu325  O344    1.963   .     S
H331   C850    1.083   .     S
H335   C853    1.079   1_554 S
C347   N348    1.158   .     T
C350   N351    1.158   .     T
C352   N353    1.157   .     T
C355   O398    1.295   .     A
C355   O399    1.292   .     A
C355   C371    1.448   .     S
C356   C357    1.419   .     A
C356   C889    1.426   .     S
C356   C913    1.414   .     S
C357   C364    1.430   .     A
C357   C361    1.415   .     A
C358   C362    1.401   .     A
C358   C887    1.426   1_554 S
C358   C890    1.416   1_554 S
C359   C360    1.388   .     A
C359   C889    1.416   .     S
C359   C909    1.396   .     S
C360   C361    1.381   .     A
C360   H389    1.085   .     S
C361   H395    1.077   .     S
C362   C379    1.403   .     A
C362   H391    1.074   .     S
C363   C378    1.392   .     A
C363   C379    1.414   .     A
C363   C406    1.445   .     S
C364   C366    1.485   .     S
C364   C380    1.402   .     A
C365   Cl413   1.765   .     S
C365   C371    1.408   .     A
C365   C13     1.384   1_565 S
C366   O401    1.291   .     A
C366   O400    1.313   .     A
C367   C368    1.399   .     A
C367   H385    1.080   .     S
C368   C376    1.450   .     S
C368   C369    1.409   .     A
C369   Cl408   1.765   .     S
C370   H386    1.084   .     S
C370   C371    1.400   .     A
C370   C15     1.386   1_565 S
C372   H387    1.082   .     S
C372   N397    1.368   .     A
C372   C432    1.418   .     S
C373   N396    1.367   .     A
C373   H388    1.082   .     S
C373   C490    1.418   1_455 S
C374   N396    1.372   .     A
C374   C409    1.445   .     S
C374   C493    1.423   1_455 S
C375   C411    1.444   .     S
C375   N397    1.372   .     A
C375   C433    1.423   .     S
C376   O402    1.292   .     A
C376   O403    1.296   .     A
C377   O405    1.298   .     A
C377   C379    1.473   .     S
C377   O404    1.300   .     A
C378   C890    1.396   1_554 S
C378   H921    1.083   1_554 S
C380   H392    1.083   .     S
C380   C381    1.391   .     A
C381   C913    1.390   .     S
C381   H925    1.079   .     S
C382   H393    1.077   .     S
C382   C912    1.390   1_554 S
C382   C887    1.414   1_554 S
Cu383  N396    2.020   .     S
Cu383  O400    1.959   .     S
Cu383  Cu384   2.687   .     S
Cu383  O404    1.949   .     S
Cu383  O398    1.963   .     S
Cu383  O402    1.964   .     S
Cu384  O405    1.959   .     S
Cu384  N397    2.019   .     S
Cu384  O401    1.949   .     S
Cu384  O399    1.964   .     S
Cu384  O403    1.963   .     S
H390   C909    1.083   .     S
H394   C912    1.079   1_554 S
C406   N407    1.158   .     T
C409   N410    1.158   .     T
C411   N412    1.157   .     T
C414   O457    1.295   .     A
C414   O458    1.292   .     A
C414   C430    1.448   .     S
C415   C416    1.419   .     A
C415   C948    1.426   .     S
C415   C972    1.414   .     S
C416   C423    1.430   .     A
C416   C420    1.415   .     A
C417   C421    1.401   .     A
C417   C946    1.426   1_554 S
C417   C949    1.416   1_554 S
C418   C419    1.388   .     A
C418   C948    1.416   .     S
C418   C968    1.396   .     S
C419   C420    1.381   .     A
C419   H448    1.085   .     S
C420   H454    1.077   .     S
C421   C438    1.403   .     A
C421   H450    1.074   .     S
C422   C437    1.392   .     A
C422   C438    1.414   .     A
C422   C465    1.445   .     S
C423   C425    1.485   .     S
C423   C439    1.402   .     A
C424   Cl472   1.765   .     S
C424   C430    1.408   .     A
C424   C72     1.384   1_565 S
C425   O460    1.291   .     A
C425   O459    1.313   .     A
C426   C427    1.399   .     A
C426   H444    1.080   .     S
C427   C435    1.450   .     S
C427   C428    1.409   .     A
C428   Cl467   1.765   .     S
C429   H445    1.084   .     S
C429   C430    1.400   .     A
C429   C74     1.386   1_565 S
C431   H446    1.082   .     S
C431   N456    1.368   .     A
C431   C491    1.418   .     S
C432   N455    1.367   .     A
C432   H447    1.082   .     S
C433   N455    1.372   .     A
C433   C468    1.445   .     S
C434   C470    1.444   .     S
C434   N456    1.372   .     A
C434   C492    1.423   .     S
C435   O461    1.292   .     A
C435   O462    1.296   .     A
C436   O464    1.298   .     A
C436   C438    1.473   .     S
C436   O463    1.300   .     A
C437   C949    1.396   1_554 S
C437   H980    1.083   1_554 S
C439   H451    1.083   .     S
C439   C440    1.391   .     A
C440   C972    1.390   .     S
C440   H984    1.079   .     S
C441   H452    1.077   .     S
C441   C971    1.390   1_554 S
C441   C946    1.414   1_554 S
Cu442  N455    2.020   .     S
Cu442  O459    1.959   .     S
Cu442  Cu443   2.687   .     S
Cu442  O463    1.949   .     S
Cu442  O457    1.963   .     S
Cu442  O461    1.964   .     S
Cu443  O464    1.959   .     S
Cu443  N456    2.019   .     S
Cu443  O460    1.949   .     S
Cu443  O458    1.964   .     S
Cu443  O462    1.963   .     S
H449   C968    1.083   .     S
H453   C971    1.079   1_554 S
C465   N466    1.158   .     T
C468   N469    1.158   .     T
C470   N471    1.157   .     T
C473   O516    1.295   .     A
C473   O517    1.292   .     A
C473   C489    1.448   .     S
C474   C475    1.419   .     A
C474   C1007   1.426   .     S
C474   C1031   1.414   .     S
C475   C482    1.430   .     A
C475   C479    1.415   .     A
C476   C480    1.401   .     A
C476   C1005   1.426   1_554 S
C476   C1008   1.416   1_554 S
C477   C478    1.388   .     A
C477   C1007   1.416   .     S
C477   C1027   1.396   .     S
C478   C479    1.381   .     A
C478   H507    1.085   .     S
C479   H513    1.077   .     S
C480   C497    1.403   .     A
C480   H509    1.074   .     S
C481   C496    1.392   .     A
C481   C497    1.414   .     A
C481   C524    1.445   .     S
C482   C484    1.485   .     S
C482   C498    1.402   .     A
C483   Cl531   1.765   .     S
C483   C489    1.408   .     A
C483   C131    1.384   1_565 S
C484   O519    1.291   .     A
C484   O518    1.313   .     A
C485   C486    1.399   .     A
C485   H503    1.080   .     S
C486   C494    1.450   .     S
C486   C487    1.409   .     A
C487   Cl526   1.765   .     S
C488   H504    1.084   .     S
C488   C489    1.400   .     A
C488   C133    1.386   1_565 S
C490   H505    1.082   .     S
C490   N515    1.368   .     A
C490   C373    1.418   1_655 S
C491   N514    1.367   .     A
C491   H506    1.082   .     S
C492   N514    1.372   .     A
C492   C527    1.445   .     S
C493   C529    1.444   .     S
C493   N515    1.372   .     A
C493   C374    1.423   1_655 S
C494   O520    1.292   .     A
C494   O521    1.296   .     A
C495   O523    1.298   .     A
C495   C497    1.473   .     S
C495   O522    1.300   .     A
C496   C1008   1.396   1_554 S
C496   H1039   1.083   1_554 S
C498   H510    1.083   .     S
C498   C499    1.391   .     A
C499   C1031   1.390   .     S
C499   H1043   1.079   .     S
C500   H511    1.077   .     S
C500   C1030   1.390   1_554 S
C500   C1005   1.414   1_554 S
Cu501  N514    2.020   .     S
Cu501  O518    1.959   .     S
Cu501  Cu502   2.687   .     S
Cu501  O522    1.949   .     S
Cu501  O516    1.963   .     S
Cu501  O520    1.964   .     S
Cu502  O523    1.959   .     S
Cu502  N515    2.019   .     S
Cu502  O519    1.949   .     S
Cu502  O517    1.964   .     S
Cu502  O521    1.963   .     S
H508   C1027   1.083   .     S
H512   C1030   1.079   1_554 S
C524   N525    1.158   .     T
C527   N528    1.158   .     T
C529   N530    1.157   .     T
C532   O575    1.295   .     A
C532   O576    1.292   .     A
C532   C548    1.448   .     S
C533   C534    1.419   .     A
C533   C4      1.426   1_556 S
C533   C28     1.414   1_556 S
C534   C541    1.430   .     A
C534   C538    1.415   .     A
C535   C539    1.401   .     A
C536   C537    1.388   .     A
C536   C4      1.416   1_556 S
C536   C24     1.396   1_556 S
C537   C538    1.381   .     A
C537   H566    1.085   .     S
C538   H572    1.077   .     S
C539   C556    1.403   .     A
C539   H568    1.074   .     S
C540   C555    1.392   .     A
C540   C556    1.414   .     A
C540   C583    1.445   .     S
C541   C543    1.485   .     S
C541   C557    1.402   .     A
C542   Cl590   1.765   .     S
C542   C548    1.408   .     A
C542   C721    1.384   .     S
C543   O578    1.291   .     A
C543   O577    1.313   .     A
C544   C545    1.399   .     A
C544   H562    1.080   .     S
C544   C896    1.384   1_545 S
C545   C553    1.450   .     S
C545   C546    1.409   .     A
C546   Cl585   1.765   .     S
C546   C901    1.386   1_545 S
C547   H563    1.084   .     S
C547   C548    1.400   .     A
C547   C723    1.386   .     S
C549   H564    1.082   .     S
C549   N574    1.368   .     A
C549   C609    1.418   .     S
C550   N573    1.367   .     A
C550   H565    1.082   .     S
C550   C667    1.418   1_455 S
C551   N573    1.372   .     A
C551   C586    1.445   .     S
C551   C670    1.423   1_455 S
C552   C588    1.444   .     S
C552   N574    1.372   .     A
C552   C610    1.423   .     S
C553   O579    1.292   .     A
C553   O580    1.296   .     A
C554   O582    1.298   .     A
C554   C556    1.473   .     S
C554   O581    1.300   .     A
C557   H569    1.083   .     S
C557   C558    1.391   .     A
C558   C28     1.390   1_556 S
C558   H40     1.079   1_556 S
C559   H570    1.077   .     S
Cu560  N573    2.020   .     S
Cu560  O577    1.959   .     S
Cu560  Cu561   2.687   .     S
Cu560  O581    1.949   .     S
Cu560  O575    1.963   .     S
Cu560  O579    1.964   .     S
Cu561  O582    1.959   .     S
Cu561  N574    2.019   .     S
Cu561  O578    1.949   .     S
Cu561  O576    1.964   .     S
Cu561  O580    1.963   .     S
H567   C24     1.083   1_556 S
C583   N584    1.158   .     T
C586   N587    1.158   .     T
C588   N589    1.157   .     T
C591   O634    1.295   .     A
C591   O635    1.292   .     A
C591   C607    1.448   .     S
C592   C593    1.419   .     A
C592   C63     1.426   1_556 S
C592   C87     1.414   1_556 S
C593   C600    1.430   .     A
C593   C597    1.415   .     A
C594   C598    1.401   .     A
C595   C596    1.388   .     A
C595   C63     1.416   1_556 S
C595   C83     1.396   1_556 S
C596   C597    1.381   .     A
C596   H625    1.085   .     S
C597   H631    1.077   .     S
C598   C615    1.403   .     A
C598   H627    1.074   .     S
C599   C614    1.392   .     A
C599   C615    1.414   .     A
C599   C642    1.445   .     S
C600   C602    1.485   .     S
C600   C616    1.402   .     A
C601   Cl649   1.765   .     S
C601   C607    1.408   .     A
C601   C780    1.384   .     S
C602   O637    1.291   .     A
C602   O636    1.313   .     A
C603   C604    1.399   .     A
C603   H621    1.080   .     S
C603   C955    1.384   1_545 S
C604   C612    1.450   .     S
C604   C605    1.409   .     A
C605   Cl644   1.765   .     S
C605   C960    1.386   1_545 S
C606   H622    1.084   .     S
C606   C607    1.400   .     A
C606   C782    1.386   .     S
C608   H623    1.082   .     S
C608   N633    1.368   .     A
C608   C668    1.418   .     S
C609   N632    1.367   .     A
C609   H624    1.082   .     S
C610   N632    1.372   .     A
C610   C645    1.445   .     S
C611   C647    1.444   .     S
C611   N633    1.372   .     A
C611   C669    1.423   .     S
C612   O638    1.292   .     A
C612   O639    1.296   .     A
C613   O641    1.298   .     A
C613   C615    1.473   .     S
C613   O640    1.300   .     A
C616   H628    1.083   .     S
C616   C617    1.391   .     A
C617   C87     1.390   1_556 S
C617   H99     1.079   1_556 S
C618   H629    1.077   .     S
Cu619  N632    2.020   .     S
Cu619  O636    1.959   .     S
Cu619  Cu620   2.687   .     S
Cu619  O640    1.949   .     S
Cu619  O634    1.963   .     S
Cu619  O638    1.964   .     S
Cu620  O641    1.959   .     S
Cu620  N633    2.019   .     S
Cu620  O637    1.949   .     S
Cu620  O635    1.964   .     S
Cu620  O639    1.963   .     S
H626   C83     1.083   1_556 S
C642   N643    1.158   .     T
C645   N646    1.158   .     T
C647   N648    1.157   .     T
C650   O693    1.295   .     A
C650   O694    1.292   .     A
C650   C666    1.448   .     S
C651   C652    1.419   .     A
C651   C122    1.426   1_556 S
C651   C146    1.414   1_556 S
C652   C659    1.430   .     A
C652   C656    1.415   .     A
C653   C657    1.401   .     A
C654   C655    1.388   .     A
C654   C122    1.416   1_556 S
C654   C142    1.396   1_556 S
C655   C656    1.381   .     A
C655   H684    1.085   .     S
C656   H690    1.077   .     S
C657   C674    1.403   .     A
C657   H686    1.074   .     S
C658   C673    1.392   .     A
C658   C674    1.414   .     A
C658   C701    1.445   .     S
C659   C661    1.485   .     S
C659   C675    1.402   .     A
C660   Cl708   1.765   .     S
C660   C666    1.408   .     A
C660   C839    1.384   .     S
C661   O696    1.291   .     A
C661   O695    1.313   .     A
C662   C663    1.399   .     A
C662   H680    1.080   .     S
C662   C1014   1.384   1_545 S
C663   C671    1.450   .     S
C663   C664    1.409   .     A
C664   Cl703   1.765   .     S
C664   C1019   1.386   1_545 S
C665   H681    1.084   .     S
C665   C666    1.400   .     A
C665   C841    1.386   .     S
C667   H682    1.082   .     S
C667   N692    1.368   .     A
C667   C550    1.418   1_655 S
C668   N691    1.367   .     A
C668   H683    1.082   .     S
C669   N691    1.372   .     A
C669   C704    1.445   .     S
C670   C706    1.444   .     S
C670   N692    1.372   .     A
C670   C551    1.423   1_655 S
C671   O697    1.292   .     A
C671   O698    1.296   .     A
C672   O700    1.298   .     A
C672   C674    1.473   .     S
C672   O699    1.300   .     A
C675   H687    1.083   .     S
C675   C676    1.391   .     A
C676   C146    1.390   1_556 S
C676   H158    1.079   1_556 S
C677   H688    1.077   .     S
Cu678  N691    2.020   .     S
Cu678  O695    1.959   .     S
Cu678  Cu679   2.687   .     S
Cu678  O699    1.949   .     S
Cu678  O693    1.963   .     S
Cu678  O697    1.964   .     S
Cu679  O700    1.959   .     S
Cu679  N692    2.019   .     S
Cu679  O696    1.949   .     S
Cu679  O694    1.964   .     S
Cu679  O698    1.963   .     S
H685   C142    1.083   1_556 S
C701   N702    1.158   .     T
C704   N705    1.158   .     T
C706   N707    1.157   .     T
C709   O752    1.295   .     A
C709   O753    1.292   .     A
C709   C725    1.448   .     S
C710   C711    1.419   .     A
C710   C181    1.426   1_556 S
C710   C205    1.414   1_556 S
C711   C718    1.430   .     A
C711   C715    1.415   .     A
C712   C716    1.401   .     A
C713   C714    1.388   .     A
C713   C181    1.416   1_556 S
C713   C201    1.396   1_556 S
C714   C715    1.381   .     A
C714   H743    1.085   .     S
C715   H749    1.077   .     S
C716   C733    1.403   .     A
C716   H745    1.074   .     S
C717   C732    1.392   .     A
C717   C733    1.414   .     A
C717   C760    1.445   .     S
C718   C720    1.485   .     S
C718   C734    1.402   .     A
C719   Cl767   1.765   .     S
C719   C725    1.408   .     A
C719   C898    1.384   .     S
C720   O755    1.291   .     A
C720   O754    1.313   .     A
C721   C722    1.399   .     A
C721   H739    1.080   .     S
C722   C730    1.450   .     S
C722   C723    1.409   .     A
C723   Cl762   1.765   .     S
C724   H740    1.084   .     S
C724   C725    1.400   .     A
C724   C900    1.386   .     S
C726   H741    1.082   .     S
C726   N751    1.368   .     A
C726   C786    1.418   .     S
C727   N750    1.367   .     A
C727   H742    1.082   .     S
C727   C844    1.418   1_455 S
C728   N750    1.372   .     A
C728   C763    1.445   .     S
C728   C847    1.423   1_455 S
C729   C765    1.444   .     S
C729   N751    1.372   .     A
C729   C787    1.423   .     S
C730   O756    1.292   .     A
C730   O757    1.296   .     A
C731   O759    1.298   .     A
C731   C733    1.473   .     S
C731   O758    1.300   .     A
C734   H746    1.083   .     S
C734   C735    1.391   .     A
C735   C205    1.390   1_556 S
C735   H217    1.079   1_556 S
C736   H747    1.077   .     S
Cu737  N750    2.020   .     S
Cu737  O754    1.959   .     S
Cu737  Cu738   2.687   .     S
Cu737  O758    1.949   .     S
Cu737  O752    1.963   .     S
Cu737  O756    1.964   .     S
Cu738  O759    1.959   .     S
Cu738  N751    2.019   .     S
Cu738  O755    1.949   .     S
Cu738  O753    1.964   .     S
Cu738  O757    1.963   .     S
H744   C201    1.083   1_556 S
C760   N761    1.158   .     T
C763   N764    1.158   .     T
C765   N766    1.157   .     T
C768   O811    1.295   .     A
C768   O812    1.292   .     A
C768   C784    1.448   .     S
C769   C770    1.419   .     A
C769   C240    1.426   1_556 S
C769   C264    1.414   1_556 S
C770   C777    1.430   .     A
C770   C774    1.415   .     A
C771   C775    1.401   .     A
C772   C773    1.388   .     A
C772   C240    1.416   1_556 S
C772   C260    1.396   1_556 S
C773   C774    1.381   .     A
C773   H802    1.085   .     S
C774   H808    1.077   .     S
C775   C792    1.403   .     A
C775   H804    1.074   .     S
C776   C791    1.392   .     A
C776   C792    1.414   .     A
C776   C819    1.445   .     S
C777   C779    1.485   .     S
C777   C793    1.402   .     A
C778   Cl826   1.765   .     S
C778   C784    1.408   .     A
C778   C957    1.384   .     S
C779   O814    1.291   .     A
C779   O813    1.313   .     A
C780   C781    1.399   .     A
C780   H798    1.080   .     S
C781   C789    1.450   .     S
C781   C782    1.409   .     A
C782   Cl821   1.765   .     S
C783   H799    1.084   .     S
C783   C784    1.400   .     A
C783   C959    1.386   .     S
C785   H800    1.082   .     S
C785   N810    1.368   .     A
C785   C845    1.418   .     S
C786   N809    1.367   .     A
C786   H801    1.082   .     S
C787   N809    1.372   .     A
C787   C822    1.445   .     S
C788   C824    1.444   .     S
C788   N810    1.372   .     A
C788   C846    1.423   .     S
C789   O815    1.292   .     A
C789   O816    1.296   .     A
C790   O818    1.298   .     A
C790   C792    1.473   .     S
C790   O817    1.300   .     A
C793   H805    1.083   .     S
C793   C794    1.391   .     A
C794   C264    1.390   1_556 S
C794   H276    1.079   1_556 S
C795   H806    1.077   .     S
Cu796  N809    2.020   .     S
Cu796  O813    1.959   .     S
Cu796  Cu797   2.687   .     S
Cu796  O817    1.949   .     S
Cu796  O811    1.963   .     S
Cu796  O815    1.964   .     S
Cu797  O818    1.959   .     S
Cu797  N810    2.019   .     S
Cu797  O814    1.949   .     S
Cu797  O812    1.964   .     S
Cu797  O816    1.963   .     S
H803   C260    1.083   1_556 S
C819   N820    1.158   .     T
C822   N823    1.158   .     T
C824   N825    1.157   .     T
C827   O870    1.295   .     A
C827   O871    1.292   .     A
C827   C843    1.448   .     S
C828   C829    1.419   .     A
C828   C299    1.426   1_556 S
C828   C323    1.414   1_556 S
C829   C836    1.430   .     A
C829   C833    1.415   .     A
C830   C834    1.401   .     A
C831   C832    1.388   .     A
C831   C299    1.416   1_556 S
C831   C319    1.396   1_556 S
C832   C833    1.381   .     A
C832   H861    1.085   .     S
C833   H867    1.077   .     S
C834   C851    1.403   .     A
C834   H863    1.074   .     S
C835   C850    1.392   .     A
C835   C851    1.414   .     A
C835   C878    1.445   .     S
C836   C838    1.485   .     S
C836   C852    1.402   .     A
C837   Cl885   1.765   .     S
C837   C843    1.408   .     A
C837   C1016   1.384   .     S
C838   O873    1.291   .     A
C838   O872    1.313   .     A
C839   C840    1.399   .     A
C839   H857    1.080   .     S
C840   C848    1.450   .     S
C840   C841    1.409   .     A
C841   Cl880   1.765   .     S
C842   H858    1.084   .     S
C842   C843    1.400   .     A
C842   C1018   1.386   .     S
C844   H859    1.082   .     S
C844   N869    1.368   .     A
C844   C727    1.418   1_655 S
C845   N868    1.367   .     A
C845   H860    1.082   .     S
C846   N868    1.372   .     A
C846   C881    1.445   .     S
C847   C883    1.444   .     S
C847   N869    1.372   .     A
C847   C728    1.423   1_655 S
C848   O874    1.292   .     A
C848   O875    1.296   .     A
C849   O877    1.298   .     A
C849   C851    1.473   .     S
C849   O876    1.300   .     A
C852   H864    1.083   .     S
C852   C853    1.391   .     A
C853   C323    1.390   1_556 S
C853   H335    1.079   1_556 S
C854   H865    1.077   .     S
Cu855  N868    2.020   .     S
Cu855  O872    1.959   .     S
Cu855  Cu856   2.687   .     S
Cu855  O876    1.949   .     S
Cu855  O870    1.963   .     S
Cu855  O874    1.964   .     S
Cu856  O877    1.959   .     S
Cu856  N869    2.019   .     S
Cu856  O873    1.949   .     S
Cu856  O871    1.964   .     S
Cu856  O875    1.963   .     S
H862   C319    1.083   1_556 S
C878   N879    1.158   .     T
C881   N882    1.158   .     T
C883   N884    1.157   .     T
C886   O929    1.295   .     A
C886   O930    1.292   .     A
C886   C902    1.448   .     S
C887   C888    1.419   .     A
C887   C358    1.426   1_556 S
C887   C382    1.414   1_556 S
C888   C895    1.430   .     A
C888   C892    1.415   .     A
C889   C893    1.401   .     A
C890   C891    1.388   .     A
C890   C358    1.416   1_556 S
C890   C378    1.396   1_556 S
C891   C892    1.381   .     A
C891   H920    1.085   .     S
C892   H926    1.077   .     S
C893   C910    1.403   .     A
C893   H922    1.074   .     S
C894   C909    1.392   .     A
C894   C910    1.414   .     A
C894   C937    1.445   .     S
C895   C897    1.485   .     S
C895   C911    1.402   .     A
C896   Cl944   1.765   .     S
C896   C902    1.408   .     A
C896   C544    1.384   1_565 S
C897   O932    1.291   .     A
C897   O931    1.313   .     A
C898   C899    1.399   .     A
C898   H916    1.080   .     S
C899   C907    1.450   .     S
C899   C900    1.409   .     A
C900   Cl939   1.765   .     S
C901   H917    1.084   .     S
C901   C902    1.400   .     A
C901   C546    1.386   1_565 S
C903   H918    1.082   .     S
C903   N928    1.368   .     A
C903   C963    1.418   .     S
C904   N927    1.367   .     A
C904   H919    1.082   .     S
C904   C1021   1.418   1_455 S
C905   N927    1.372   .     A
C905   C940    1.445   .     S
C905   C1024   1.423   1_455 S
C906   C942    1.444   .     S
C906   N928    1.372   .     A
C906   C964    1.423   .     S
C907   O933    1.292   .     A
C907   O934    1.296   .     A
C908   O936    1.298   .     A
C908   C910    1.473   .     S
C908   O935    1.300   .     A
C911   H923    1.083   .     S
C911   C912    1.391   .     A
C912   C382    1.390   1_556 S
C912   H394    1.079   1_556 S
C913   H924    1.077   .     S
Cu914  N927    2.020   .     S
Cu914  O931    1.959   .     S
Cu914  Cu915   2.687   .     S
Cu914  O935    1.949   .     S
Cu914  O929    1.963   .     S
Cu914  O933    1.964   .     S
Cu915  O936    1.959   .     S
Cu915  N928    2.019   .     S
Cu915  O932    1.949   .     S
Cu915  O930    1.964   .     S
Cu915  O934    1.963   .     S
H921   C378    1.083   1_556 S
C937   N938    1.158   .     T
C940   N941    1.158   .     T
C942   N943    1.157   .     T
C945   O988    1.295   .     A
C945   O989    1.292   .     A
C945   C961    1.448   .     S
C946   C947    1.419   .     A
C946   C417    1.426   1_556 S
C946   C441    1.414   1_556 S
C947   C954    1.430   .     A
C947   C951    1.415   .     A
C948   C952    1.401   .     A
C949   C950    1.388   .     A
C949   C417    1.416   1_556 S
C949   C437    1.396   1_556 S
C950   C951    1.381   .     A
C950   H979    1.085   .     S
C951   H985    1.077   .     S
C952   C969    1.403   .     A
C952   H981    1.074   .     S
C953   C968    1.392   .     A
C953   C969    1.414   .     A
C953   C996    1.445   .     S
C954   C956    1.485   .     S
C954   C970    1.402   .     A
C955   Cl1003  1.765   .     S
C955   C961    1.408   .     A
C955   C603    1.384   1_565 S
C956   O991    1.291   .     A
C956   O990    1.313   .     A
C957   C958    1.399   .     A
C957   H975    1.080   .     S
C958   C966    1.450   .     S
C958   C959    1.409   .     A
C959   Cl998   1.765   .     S
C960   H976    1.084   .     S
C960   C961    1.400   .     A
C960   C605    1.386   1_565 S
C962   H977    1.082   .     S
C962   N987    1.368   .     A
C962   C1022   1.418   .     S
C963   N986    1.367   .     A
C963   H978    1.082   .     S
C964   N986    1.372   .     A
C964   C999    1.445   .     S
C965   C1001   1.444   .     S
C965   N987    1.372   .     A
C965   C1023   1.423   .     S
C966   O992    1.292   .     A
C966   O993    1.296   .     A
C967   O995    1.298   .     A
C967   C969    1.473   .     S
C967   O994    1.300   .     A
C970   H982    1.083   .     S
C970   C971    1.391   .     A
C971   C441    1.390   1_556 S
C971   H453    1.079   1_556 S
C972   H983    1.077   .     S
Cu973  N986    2.020   .     S
Cu973  O990    1.959   .     S
Cu973  Cu974   2.687   .     S
Cu973  O994    1.949   .     S
Cu973  O988    1.963   .     S
Cu973  O992    1.964   .     S
Cu974  O995    1.959   .     S
Cu974  N987    2.019   .     S
Cu974  O991    1.949   .     S
Cu974  O989    1.964   .     S
Cu974  O993    1.963   .     S
H980   C437    1.083   1_556 S
C996   N997    1.158   .     T
C999   N1000   1.158   .     T
C1001  N1002   1.157   .     T
C1004  O1047   1.295   .     A
C1004  O1048   1.292   .     A
C1004  C1020   1.448   .     S
C1005  C1006   1.419   .     A
C1005  C476    1.426   1_556 S
C1005  C500    1.414   1_556 S
C1006  C1013   1.430   .     A
C1006  C1010   1.415   .     A
C1007  C1011   1.401   .     A
C1008  C1009   1.388   .     A
C1008  C476    1.416   1_556 S
C1008  C496    1.396   1_556 S
C1009  C1010   1.381   .     A
C1009  H1038   1.085   .     S
C1010  H1044   1.077   .     S
C1011  C1028   1.403   .     A
C1011  H1040   1.074   .     S
C1012  C1027   1.392   .     A
C1012  C1028   1.414   .     A
C1012  C1055   1.445   .     S
C1013  C1015   1.485   .     S
C1013  C1029   1.402   .     A
C1014  Cl1062  1.765   .     S
C1014  C1020   1.408   .     A
C1014  C662    1.384   1_565 S
C1015  O1050   1.291   .     A
C1015  O1049   1.313   .     A
C1016  C1017   1.399   .     A
C1016  H1034   1.080   .     S
C1017  C1025   1.450   .     S
C1017  C1018   1.409   .     A
C1018  Cl1057  1.765   .     S
C1019  H1035   1.084   .     S
C1019  C1020   1.400   .     A
C1019  C664    1.386   1_565 S
C1021  H1036   1.082   .     S
C1021  N1046   1.368   .     A
C1021  C904    1.418   1_655 S
C1022  N1045   1.367   .     A
C1022  H1037   1.082   .     S
C1023  N1045   1.372   .     A
C1023  C1058   1.445   .     S
C1024  C1060   1.444   .     S
C1024  N1046   1.372   .     A
C1024  C905    1.423   1_655 S
C1025  O1051   1.292   .     A
C1025  O1052   1.296   .     A
C1026  O1054   1.298   .     A
C1026  C1028   1.473   .     S
C1026  O1053   1.300   .     A
C1029  H1041   1.083   .     S
C1029  C1030   1.391   .     A
C1030  C500    1.390   1_556 S
C1030  H512    1.079   1_556 S
C1031  H1042   1.077   .     S
Cu1032 N1045   2.020   .     S
Cu1032 O1049   1.959   .     S
Cu1032 Cu1033  2.687   .     S
Cu1032 O1053   1.949   .     S
Cu1032 O1047   1.963   .     S
Cu1032 O1051   1.964   .     S
Cu1033 O1054   1.959   .     S
Cu1033 N1046   2.019   .     S
Cu1033 O1050   1.949   .     S
Cu1033 O1048   1.964   .     S
Cu1033 O1052   1.963   .     S
H1039  C496    1.083   1_556 S
C1055  N1056   1.158   .     T
C1058  N1059   1.158   .     T
C1060  N1061   1.157   .     T
