data_str_m1_o10_o18_pcu_sym.181
_audit_creation_date              2020-01-03
_audit_creation_method            'Materials Studio'
_symmetry_space_group_name_H-M    'P1'
_symmetry_Int_Tables_number       1
_symmetry_cell_setting            triclinic
loop_
_symmetry_equiv_pos_as_xyz
  x,y,z
_cell_length_a                    32.6649
_cell_length_b                    32.5069
_cell_length_c                    35.7408
_cell_angle_alpha                 98.0713
_cell_angle_beta                  72.8930
_cell_angle_gamma                 98.3884
loop_
_atom_site_label
_atom_site_type_symbol
_atom_site_fract_x
_atom_site_fract_y
_atom_site_fract_z
_atom_site_U_iso_or_equiv
_atom_site_adp_type
_atom_site_occupancy
Br1    Br    0.04720   0.21018   0.40155   0.00000  Uiso   1.00
Br2    Br    0.22699   0.20376   0.38870   0.00000  Uiso   1.00
C3     C     0.05282   0.16042   0.25832   0.00000  Uiso   1.00
C4     C     0.21221   0.14871   0.45886   0.00000  Uiso   1.00
C5     C     0.23716   0.13399   0.47837   0.00000  Uiso   1.00
C6     C     0.28098   0.17345   0.24134   0.00000  Uiso   1.00
C7     C     0.22610   0.13866   0.01933   0.00000  Uiso   1.00
C8     C     0.18891   0.15795   0.04118   0.00000  Uiso   1.00
C9     C     0.25044   0.12187   0.03852   0.00000  Uiso   1.00
C10    C     0.23807   0.12285   0.07933   0.00000  Uiso   1.00
C11    C     0.17188   0.15143   0.08145   0.00000  Uiso   1.00
C12    C     0.32673   0.17517   0.23802   0.00000  Uiso   1.00
C13    C     0.00715   0.15750   0.26335   0.00000  Uiso   1.00
C14    C     0.09425   0.20653   0.42261   0.00000  Uiso   1.00
C15    C     0.18087   0.32218   0.23815   0.00000  Uiso   1.00
C16    C     0.15163   0.01215   0.26225   0.00000  Uiso   1.00
C17    C     0.15594   0.05617   0.25895   0.00000  Uiso   1.00
C18    C     0.17685   0.27768   0.24137   0.00000  Uiso   1.00
C19    C     0.18797   0.14570   0.14401   0.00000  Uiso   1.00
C20    C     0.14522   0.18767   0.35619   0.00000  Uiso   1.00
C21    C     0.13520   0.19578   0.39936   0.00000  Uiso   1.00
C22    C     0.19828   0.13759   0.10113   0.00000  Uiso   1.00
C23    C     0.08654   0.21524   0.46319   0.00000  Uiso   1.00
C24    C     0.16691   0.19206   0.41789   0.00000  Uiso   1.00
C25    C     0.15509   0.19117   0.45920   0.00000  Uiso   1.00
C26    C     0.11660   0.20775   0.48159   0.00000  Uiso   1.00
C27    C     0.17944   0.17411   0.47919   0.00000  Uiso   1.00
C28    C     0.16827   0.17984   0.02112   0.00000  Uiso   1.00
C29    C     0.13755   0.20791   0.04122   0.00000  Uiso   1.00
C30    C     0.10937   0.21817   0.02197   0.00000  Uiso   1.00
H31    H     0.08273   0.23574   0.03826   0.00000  Uiso   1.00
H32    H     0.11878   0.14129   0.12393   0.00000  Uiso   1.00
H33    H     0.25065   0.10507   0.12446   0.00000  Uiso   1.00
H34    H     0.11455   0.24614   0.08751   0.00000  Uiso   1.00
H35    H     0.27959   0.10820   0.02174   0.00000  Uiso   1.00
H36    H     0.01648   0.19104   0.21437   0.00000  Uiso   1.00
H37    H     0.20788   0.00275   0.21599   0.00000  Uiso   1.00
H38    H     0.12424   0.33235   0.28450   0.00000  Uiso   1.00
H39    H     0.26365   0.11655   0.46139   0.00000  Uiso   1.00
H40    H     0.05619   0.22622   0.48058   0.00000  Uiso   1.00
H41    H     0.21843   0.13891   0.42780   0.00000  Uiso   1.00
H42    H     0.32911   0.12775   0.30951   0.00000  Uiso   1.00
O43    O     0.16667   0.16667   0.25000   0.00000  Uiso   1.00
O44    O     0.15693   0.12393   0.16625   0.00000  Uiso   1.00
O45    O     0.12687   0.20646   0.33749   0.00000  Uiso   1.00
O46    O     0.21088   0.17493   0.15877   0.00000  Uiso   1.00
O47    O     0.17198   0.16135   0.33749   0.00000  Uiso   1.00
O48    O     0.31216   0.13813   0.29456   0.00000  Uiso   1.00
O49    O     0.12882   0.15572   0.09978   0.00000  Uiso   1.00
O50    O     0.26519   0.10798   0.09632   0.00000  Uiso   1.00
O51    O     0.13734   0.22698   0.07838   0.00000  Uiso   1.00
O52    O     0.17849   0.08101   0.27820   0.00000  Uiso   1.00
O53    O     0.14581   0.26136   0.26767   0.00000  Uiso   1.00
O54    O     0.07452   0.13251   0.23607   0.00000  Uiso   1.00
O55    O     0.26785   0.19179   0.21805   0.00000  Uiso   1.00
O56    O     0.06990   0.18960   0.27820   0.00000  Uiso   1.00
O57    O     0.25440   0.15277   0.26767   0.00000  Uiso   1.00
O58    O     0.13800   0.06903   0.23607   0.00000  Uiso   1.00
O59    O     0.20437   0.25527   0.21805   0.00000  Uiso   1.00
Zn60   Zn    0.19244   0.14090   0.28277   0.00000  Uiso   1.00
Zn61   Zn    0.13459   0.12378   0.22257   0.00000  Uiso   1.00
Zn62   Zn    0.21166   0.19664   0.21188   0.00000  Uiso   1.00
Zn63   Zn    0.12798   0.20535   0.28277   0.00000  Uiso   1.00
Br64   Br    0.38053   0.21018   0.40155   0.00000  Uiso   1.00
Br65   Br    0.56032   0.20376   0.38870   0.00000  Uiso   1.00
C66    C     0.38615   0.16042   0.25832   0.00000  Uiso   1.00
C67    C     0.54554   0.14871   0.45886   0.00000  Uiso   1.00
C68    C     0.57050   0.13399   0.47837   0.00000  Uiso   1.00
C69    C     0.61431   0.17345   0.24134   0.00000  Uiso   1.00
C70    C     0.55943   0.13866   0.01933   0.00000  Uiso   1.00
C71    C     0.52224   0.15795   0.04118   0.00000  Uiso   1.00
C72    C     0.58378   0.12187   0.03852   0.00000  Uiso   1.00
C73    C     0.57141   0.12285   0.07933   0.00000  Uiso   1.00
C74    C     0.50521   0.15143   0.08145   0.00000  Uiso   1.00
C75    C     0.66007   0.17517   0.23802   0.00000  Uiso   1.00
C76    C     0.34048   0.15750   0.26335   0.00000  Uiso   1.00
C77    C     0.42758   0.20653   0.42261   0.00000  Uiso   1.00
C78    C     0.51420   0.32218   0.23815   0.00000  Uiso   1.00
C79    C     0.48496   0.01215   0.26225   0.00000  Uiso   1.00
C80    C     0.48927   0.05617   0.25895   0.00000  Uiso   1.00
C81    C     0.51018   0.27768   0.24137   0.00000  Uiso   1.00
C82    C     0.52130   0.14570   0.14401   0.00000  Uiso   1.00
C83    C     0.47855   0.18767   0.35619   0.00000  Uiso   1.00
C84    C     0.46853   0.19578   0.39936   0.00000  Uiso   1.00
C85    C     0.53161   0.13759   0.10113   0.00000  Uiso   1.00
C86    C     0.41988   0.21524   0.46319   0.00000  Uiso   1.00
C87    C     0.50024   0.19206   0.41789   0.00000  Uiso   1.00
C88    C     0.48843   0.19117   0.45920   0.00000  Uiso   1.00
C89    C     0.44993   0.20775   0.48159   0.00000  Uiso   1.00
C90    C     0.51278   0.17411   0.47919   0.00000  Uiso   1.00
C91    C     0.50160   0.17984   0.02112   0.00000  Uiso   1.00
C92    C     0.47089   0.20791   0.04122   0.00000  Uiso   1.00
C93    C     0.44270   0.21817   0.02197   0.00000  Uiso   1.00
H94    H     0.41607   0.23574   0.03826   0.00000  Uiso   1.00
H95    H     0.45211   0.14129   0.12393   0.00000  Uiso   1.00
H96    H     0.58398   0.10507   0.12446   0.00000  Uiso   1.00
H97    H     0.44788   0.24614   0.08751   0.00000  Uiso   1.00
H98    H     0.61292   0.10820   0.02174   0.00000  Uiso   1.00
H99    H     0.34982   0.19104   0.21437   0.00000  Uiso   1.00
H100   H     0.54121   0.00275   0.21599   0.00000  Uiso   1.00
H101   H     0.45758   0.33235   0.28450   0.00000  Uiso   1.00
H102   H     0.59698   0.11655   0.46139   0.00000  Uiso   1.00
H103   H     0.38952   0.22622   0.48058   0.00000  Uiso   1.00
H104   H     0.55176   0.13891   0.42780   0.00000  Uiso   1.00
H105   H     0.66244   0.12775   0.30951   0.00000  Uiso   1.00
O106   O     0.50000   0.16667   0.25000   0.00000  Uiso   1.00
O107   O     0.49027   0.12393   0.16625   0.00000  Uiso   1.00
O108   O     0.46020   0.20646   0.33749   0.00000  Uiso   1.00
O109   O     0.54421   0.17493   0.15877   0.00000  Uiso   1.00
O110   O     0.50532   0.16135   0.33749   0.00000  Uiso   1.00
O111   O     0.64550   0.13813   0.29456   0.00000  Uiso   1.00
O112   O     0.46216   0.15572   0.09978   0.00000  Uiso   1.00
O113   O     0.59852   0.10798   0.09632   0.00000  Uiso   1.00
O114   O     0.47067   0.22698   0.07838   0.00000  Uiso   1.00
O115   O     0.51182   0.08101   0.27820   0.00000  Uiso   1.00
O116   O     0.47914   0.26136   0.26767   0.00000  Uiso   1.00
O117   O     0.40785   0.13251   0.23607   0.00000  Uiso   1.00
O118   O     0.60119   0.19179   0.21805   0.00000  Uiso   1.00
O119   O     0.40323   0.18960   0.27820   0.00000  Uiso   1.00
O120   O     0.58773   0.15277   0.26767   0.00000  Uiso   1.00
O121   O     0.47133   0.06903   0.23607   0.00000  Uiso   1.00
O122   O     0.53771   0.25527   0.21805   0.00000  Uiso   1.00
Zn123  Zn    0.52577   0.14090   0.28277   0.00000  Uiso   1.00
Zn124  Zn    0.46792   0.12378   0.22257   0.00000  Uiso   1.00
Zn125  Zn    0.54500   0.19664   0.21188   0.00000  Uiso   1.00
Zn126  Zn    0.46131   0.20535   0.28277   0.00000  Uiso   1.00
Br127  Br    0.71386   0.21018   0.40155   0.00000  Uiso   1.00
Br128  Br    0.89366   0.20376   0.38870   0.00000  Uiso   1.00
C129   C     0.71949   0.16042   0.25832   0.00000  Uiso   1.00
C130   C     0.87887   0.14871   0.45886   0.00000  Uiso   1.00
C131   C     0.90383   0.13399   0.47837   0.00000  Uiso   1.00
C132   C     0.94764   0.17345   0.24134   0.00000  Uiso   1.00
C133   C     0.89276   0.13866   0.01933   0.00000  Uiso   1.00
C134   C     0.85557   0.15795   0.04118   0.00000  Uiso   1.00
C135   C     0.91711   0.12187   0.03852   0.00000  Uiso   1.00
C136   C     0.90474   0.12285   0.07933   0.00000  Uiso   1.00
C137   C     0.83854   0.15143   0.08145   0.00000  Uiso   1.00
C138   C     0.99340   0.17517   0.23802   0.00000  Uiso   1.00
C139   C     0.67381   0.15750   0.26335   0.00000  Uiso   1.00
C140   C     0.76091   0.20653   0.42261   0.00000  Uiso   1.00
C141   C     0.84754   0.32218   0.23815   0.00000  Uiso   1.00
C142   C     0.81829   0.01215   0.26225   0.00000  Uiso   1.00
C143   C     0.82261   0.05617   0.25895   0.00000  Uiso   1.00
C144   C     0.84352   0.27768   0.24137   0.00000  Uiso   1.00
C145   C     0.85463   0.14570   0.14401   0.00000  Uiso   1.00
C146   C     0.81189   0.18767   0.35619   0.00000  Uiso   1.00
C147   C     0.80187   0.19578   0.39936   0.00000  Uiso   1.00
C148   C     0.86495   0.13759   0.10113   0.00000  Uiso   1.00
C149   C     0.75321   0.21524   0.46319   0.00000  Uiso   1.00
C150   C     0.83358   0.19206   0.41789   0.00000  Uiso   1.00
C151   C     0.82176   0.19117   0.45920   0.00000  Uiso   1.00
C152   C     0.78327   0.20775   0.48159   0.00000  Uiso   1.00
C153   C     0.84611   0.17411   0.47919   0.00000  Uiso   1.00
C154   C     0.83493   0.17984   0.02112   0.00000  Uiso   1.00
C155   C     0.80422   0.20791   0.04122   0.00000  Uiso   1.00
C156   C     0.77603   0.21817   0.02197   0.00000  Uiso   1.00
H157   H     0.74940   0.23574   0.03826   0.00000  Uiso   1.00
H158   H     0.78545   0.14129   0.12393   0.00000  Uiso   1.00
H159   H     0.91732   0.10507   0.12446   0.00000  Uiso   1.00
H160   H     0.78122   0.24614   0.08751   0.00000  Uiso   1.00
H161   H     0.94626   0.10820   0.02174   0.00000  Uiso   1.00
H162   H     0.68315   0.19104   0.21437   0.00000  Uiso   1.00
H163   H     0.87455   0.00275   0.21599   0.00000  Uiso   1.00
H164   H     0.79091   0.33235   0.28450   0.00000  Uiso   1.00
H165   H     0.93031   0.11655   0.46139   0.00000  Uiso   1.00
H166   H     0.72285   0.22622   0.48058   0.00000  Uiso   1.00
H167   H     0.88510   0.13891   0.42780   0.00000  Uiso   1.00
H168   H     0.99577   0.12775   0.30951   0.00000  Uiso   1.00
O169   O     0.83333   0.16667   0.25000   0.00000  Uiso   1.00
O170   O     0.82360   0.12393   0.16625   0.00000  Uiso   1.00
O171   O     0.79354   0.20646   0.33749   0.00000  Uiso   1.00
O172   O     0.87755   0.17493   0.15877   0.00000  Uiso   1.00
O173   O     0.83865   0.16135   0.33749   0.00000  Uiso   1.00
O174   O     0.97883   0.13813   0.29456   0.00000  Uiso   1.00
O175   O     0.79549   0.15572   0.09978   0.00000  Uiso   1.00
O176   O     0.93186   0.10798   0.09632   0.00000  Uiso   1.00
O177   O     0.80400   0.22698   0.07838   0.00000  Uiso   1.00
O178   O     0.84515   0.08101   0.27820   0.00000  Uiso   1.00
O179   O     0.81247   0.26136   0.26767   0.00000  Uiso   1.00
O180   O     0.74119   0.13251   0.23607   0.00000  Uiso   1.00
O181   O     0.93452   0.19179   0.21805   0.00000  Uiso   1.00
O182   O     0.73656   0.18960   0.27820   0.00000  Uiso   1.00
O183   O     0.92106   0.15277   0.26767   0.00000  Uiso   1.00
O184   O     0.80467   0.06903   0.23607   0.00000  Uiso   1.00
O185   O     0.87104   0.25527   0.21805   0.00000  Uiso   1.00
Zn186  Zn    0.85910   0.14090   0.28277   0.00000  Uiso   1.00
Zn187  Zn    0.80125   0.12378   0.22257   0.00000  Uiso   1.00
Zn188  Zn    0.87833   0.19664   0.21188   0.00000  Uiso   1.00
Zn189  Zn    0.79465   0.20535   0.28277   0.00000  Uiso   1.00
Br190  Br    0.04720   0.54351   0.40155   0.00000  Uiso   1.00
Br191  Br    0.22699   0.53709   0.38870   0.00000  Uiso   1.00
C192   C     0.05282   0.49376   0.25832   0.00000  Uiso   1.00
C193   C     0.21221   0.48204   0.45886   0.00000  Uiso   1.00
C194   C     0.23716   0.46732   0.47837   0.00000  Uiso   1.00
C195   C     0.28098   0.50678   0.24134   0.00000  Uiso   1.00
C196   C     0.22610   0.47199   0.01933   0.00000  Uiso   1.00
C197   C     0.18891   0.49129   0.04118   0.00000  Uiso   1.00
C198   C     0.25044   0.45520   0.03852   0.00000  Uiso   1.00
C199   C     0.23807   0.45619   0.07933   0.00000  Uiso   1.00
C200   C     0.17188   0.48476   0.08145   0.00000  Uiso   1.00
C201   C     0.32673   0.50850   0.23802   0.00000  Uiso   1.00
C202   C     0.00715   0.49084   0.26335   0.00000  Uiso   1.00
C203   C     0.09425   0.53986   0.42261   0.00000  Uiso   1.00
C204   C     0.18087   0.65551   0.23815   0.00000  Uiso   1.00
C205   C     0.15163   0.34549   0.26225   0.00000  Uiso   1.00
C206   C     0.15594   0.38950   0.25895   0.00000  Uiso   1.00
C207   C     0.17685   0.61101   0.24137   0.00000  Uiso   1.00
C208   C     0.18797   0.47903   0.14401   0.00000  Uiso   1.00
C209   C     0.14522   0.52100   0.35619   0.00000  Uiso   1.00
C210   C     0.13520   0.52911   0.39936   0.00000  Uiso   1.00
C211   C     0.19828   0.47092   0.10113   0.00000  Uiso   1.00
C212   C     0.08654   0.54858   0.46319   0.00000  Uiso   1.00
C213   C     0.16691   0.52540   0.41789   0.00000  Uiso   1.00
C214   C     0.15509   0.52450   0.45920   0.00000  Uiso   1.00
C215   C     0.11660   0.54108   0.48159   0.00000  Uiso   1.00
C216   C     0.17944   0.50744   0.47919   0.00000  Uiso   1.00
C217   C     0.16827   0.51318   0.02112   0.00000  Uiso   1.00
C218   C     0.13755   0.54125   0.04122   0.00000  Uiso   1.00
C219   C     0.10937   0.55150   0.02197   0.00000  Uiso   1.00
H220   H     0.08273   0.56908   0.03826   0.00000  Uiso   1.00
H221   H     0.11878   0.47462   0.12393   0.00000  Uiso   1.00
H222   H     0.25065   0.43840   0.12446   0.00000  Uiso   1.00
H223   H     0.11455   0.57948   0.08751   0.00000  Uiso   1.00
H224   H     0.27959   0.44153   0.02174   0.00000  Uiso   1.00
H225   H     0.01648   0.52438   0.21437   0.00000  Uiso   1.00
H226   H     0.20788   0.33608   0.21599   0.00000  Uiso   1.00
H227   H     0.12424   0.66569   0.28450   0.00000  Uiso   1.00
H228   H     0.26365   0.44989   0.46139   0.00000  Uiso   1.00
H229   H     0.05619   0.55956   0.48058   0.00000  Uiso   1.00
H230   H     0.21843   0.47225   0.42780   0.00000  Uiso   1.00
H231   H     0.32911   0.46108   0.30951   0.00000  Uiso   1.00
O232   O     0.16667   0.50000   0.25000   0.00000  Uiso   1.00
O233   O     0.15693   0.45726   0.16625   0.00000  Uiso   1.00
O234   O     0.12687   0.53979   0.33749   0.00000  Uiso   1.00
O235   O     0.21088   0.50826   0.15877   0.00000  Uiso   1.00
O236   O     0.17198   0.49468   0.33749   0.00000  Uiso   1.00
O237   O     0.31216   0.47146   0.29456   0.00000  Uiso   1.00
O238   O     0.12882   0.48905   0.09978   0.00000  Uiso   1.00
O239   O     0.26519   0.44131   0.09632   0.00000  Uiso   1.00
O240   O     0.13734   0.56031   0.07838   0.00000  Uiso   1.00
O241   O     0.17849   0.41434   0.27820   0.00000  Uiso   1.00
O242   O     0.14581   0.59469   0.26767   0.00000  Uiso   1.00
O243   O     0.07452   0.46584   0.23607   0.00000  Uiso   1.00
O244   O     0.26785   0.52512   0.21805   0.00000  Uiso   1.00
O245   O     0.06990   0.52293   0.27820   0.00000  Uiso   1.00
O246   O     0.25440   0.48610   0.26767   0.00000  Uiso   1.00
O247   O     0.13800   0.40236   0.23607   0.00000  Uiso   1.00
O248   O     0.20437   0.58860   0.21805   0.00000  Uiso   1.00
Zn249  Zn    0.19244   0.47423   0.28277   0.00000  Uiso   1.00
Zn250  Zn    0.13459   0.45711   0.22257   0.00000  Uiso   1.00
Zn251  Zn    0.21166   0.52997   0.21188   0.00000  Uiso   1.00
Zn252  Zn    0.12798   0.53868   0.28277   0.00000  Uiso   1.00
Br253  Br    0.38053   0.54351   0.40155   0.00000  Uiso   1.00
Br254  Br    0.56032   0.53709   0.38870   0.00000  Uiso   1.00
C255   C     0.38615   0.49376   0.25832   0.00000  Uiso   1.00
C256   C     0.54554   0.48204   0.45886   0.00000  Uiso   1.00
C257   C     0.57050   0.46732   0.47837   0.00000  Uiso   1.00
C258   C     0.61431   0.50678   0.24134   0.00000  Uiso   1.00
C259   C     0.55943   0.47199   0.01933   0.00000  Uiso   1.00
C260   C     0.52224   0.49129   0.04118   0.00000  Uiso   1.00
C261   C     0.58378   0.45520   0.03852   0.00000  Uiso   1.00
C262   C     0.57141   0.45619   0.07933   0.00000  Uiso   1.00
C263   C     0.50521   0.48476   0.08145   0.00000  Uiso   1.00
C264   C     0.66007   0.50850   0.23802   0.00000  Uiso   1.00
C265   C     0.34048   0.49084   0.26335   0.00000  Uiso   1.00
C266   C     0.42758   0.53986   0.42261   0.00000  Uiso   1.00
C267   C     0.51420   0.65551   0.23815   0.00000  Uiso   1.00
C268   C     0.48496   0.34549   0.26225   0.00000  Uiso   1.00
C269   C     0.48927   0.38950   0.25895   0.00000  Uiso   1.00
C270   C     0.51018   0.61101   0.24137   0.00000  Uiso   1.00
C271   C     0.52130   0.47903   0.14401   0.00000  Uiso   1.00
C272   C     0.47855   0.52100   0.35619   0.00000  Uiso   1.00
C273   C     0.46853   0.52911   0.39936   0.00000  Uiso   1.00
C274   C     0.53161   0.47092   0.10113   0.00000  Uiso   1.00
C275   C     0.41988   0.54858   0.46319   0.00000  Uiso   1.00
C276   C     0.50024   0.52540   0.41789   0.00000  Uiso   1.00
C277   C     0.48843   0.52450   0.45920   0.00000  Uiso   1.00
C278   C     0.44993   0.54108   0.48159   0.00000  Uiso   1.00
C279   C     0.51278   0.50744   0.47919   0.00000  Uiso   1.00
C280   C     0.50160   0.51318   0.02112   0.00000  Uiso   1.00
C281   C     0.47089   0.54125   0.04122   0.00000  Uiso   1.00
C282   C     0.44270   0.55150   0.02197   0.00000  Uiso   1.00
H283   H     0.41607   0.56908   0.03826   0.00000  Uiso   1.00
H284   H     0.45211   0.47462   0.12393   0.00000  Uiso   1.00
H285   H     0.58398   0.43840   0.12446   0.00000  Uiso   1.00
H286   H     0.44788   0.57948   0.08751   0.00000  Uiso   1.00
H287   H     0.61292   0.44153   0.02174   0.00000  Uiso   1.00
H288   H     0.34982   0.52438   0.21437   0.00000  Uiso   1.00
H289   H     0.54121   0.33608   0.21599   0.00000  Uiso   1.00
H290   H     0.45758   0.66569   0.28450   0.00000  Uiso   1.00
H291   H     0.59698   0.44989   0.46139   0.00000  Uiso   1.00
H292   H     0.38952   0.55956   0.48058   0.00000  Uiso   1.00
H293   H     0.55176   0.47225   0.42780   0.00000  Uiso   1.00
H294   H     0.66244   0.46108   0.30951   0.00000  Uiso   1.00
O295   O     0.50000   0.50000   0.25000   0.00000  Uiso   1.00
O296   O     0.49027   0.45726   0.16625   0.00000  Uiso   1.00
O297   O     0.46020   0.53979   0.33749   0.00000  Uiso   1.00
O298   O     0.54421   0.50826   0.15877   0.00000  Uiso   1.00
O299   O     0.50532   0.49468   0.33749   0.00000  Uiso   1.00
O300   O     0.64550   0.47146   0.29456   0.00000  Uiso   1.00
O301   O     0.46216   0.48905   0.09978   0.00000  Uiso   1.00
O302   O     0.59852   0.44131   0.09632   0.00000  Uiso   1.00
O303   O     0.47067   0.56031   0.07838   0.00000  Uiso   1.00
O304   O     0.51182   0.41434   0.27820   0.00000  Uiso   1.00
O305   O     0.47914   0.59469   0.26767   0.00000  Uiso   1.00
O306   O     0.40785   0.46584   0.23607   0.00000  Uiso   1.00
O307   O     0.60119   0.52512   0.21805   0.00000  Uiso   1.00
O308   O     0.40323   0.52293   0.27820   0.00000  Uiso   1.00
O309   O     0.58773   0.48610   0.26767   0.00000  Uiso   1.00
O310   O     0.47133   0.40236   0.23607   0.00000  Uiso   1.00
O311   O     0.53771   0.58860   0.21805   0.00000  Uiso   1.00
Zn312  Zn    0.52577   0.47423   0.28277   0.00000  Uiso   1.00
Zn313  Zn    0.46792   0.45711   0.22257   0.00000  Uiso   1.00
Zn314  Zn    0.54500   0.52997   0.21188   0.00000  Uiso   1.00
Zn315  Zn    0.46131   0.53868   0.28277   0.00000  Uiso   1.00
Br316  Br    0.71386   0.54351   0.40155   0.00000  Uiso   1.00
Br317  Br    0.89366   0.53709   0.38870   0.00000  Uiso   1.00
C318   C     0.71949   0.49376   0.25832   0.00000  Uiso   1.00
C319   C     0.87887   0.48204   0.45886   0.00000  Uiso   1.00
C320   C     0.90383   0.46732   0.47837   0.00000  Uiso   1.00
C321   C     0.94764   0.50678   0.24134   0.00000  Uiso   1.00
C322   C     0.89276   0.47199   0.01933   0.00000  Uiso   1.00
C323   C     0.85557   0.49129   0.04118   0.00000  Uiso   1.00
C324   C     0.91711   0.45520   0.03852   0.00000  Uiso   1.00
C325   C     0.90474   0.45619   0.07933   0.00000  Uiso   1.00
C326   C     0.83854   0.48476   0.08145   0.00000  Uiso   1.00
C327   C     0.99340   0.50850   0.23802   0.00000  Uiso   1.00
C328   C     0.67381   0.49084   0.26335   0.00000  Uiso   1.00
C329   C     0.76091   0.53986   0.42261   0.00000  Uiso   1.00
C330   C     0.84754   0.65551   0.23815   0.00000  Uiso   1.00
C331   C     0.81829   0.34549   0.26225   0.00000  Uiso   1.00
C332   C     0.82261   0.38950   0.25895   0.00000  Uiso   1.00
C333   C     0.84352   0.61101   0.24137   0.00000  Uiso   1.00
C334   C     0.85463   0.47903   0.14401   0.00000  Uiso   1.00
C335   C     0.81189   0.52100   0.35619   0.00000  Uiso   1.00
C336   C     0.80187   0.52911   0.39936   0.00000  Uiso   1.00
C337   C     0.86495   0.47092   0.10113   0.00000  Uiso   1.00
C338   C     0.75321   0.54858   0.46319   0.00000  Uiso   1.00
C339   C     0.83358   0.52540   0.41789   0.00000  Uiso   1.00
C340   C     0.82176   0.52450   0.45920   0.00000  Uiso   1.00
C341   C     0.78327   0.54108   0.48159   0.00000  Uiso   1.00
C342   C     0.84611   0.50744   0.47919   0.00000  Uiso   1.00
C343   C     0.83493   0.51318   0.02112   0.00000  Uiso   1.00
C344   C     0.80422   0.54125   0.04122   0.00000  Uiso   1.00
C345   C     0.77603   0.55150   0.02197   0.00000  Uiso   1.00
H346   H     0.74940   0.56908   0.03826   0.00000  Uiso   1.00
H347   H     0.78545   0.47462   0.12393   0.00000  Uiso   1.00
H348   H     0.91732   0.43840   0.12446   0.00000  Uiso   1.00
H349   H     0.78122   0.57948   0.08751   0.00000  Uiso   1.00
H350   H     0.94626   0.44153   0.02174   0.00000  Uiso   1.00
H351   H     0.68315   0.52438   0.21437   0.00000  Uiso   1.00
H352   H     0.87455   0.33608   0.21599   0.00000  Uiso   1.00
H353   H     0.79091   0.66569   0.28450   0.00000  Uiso   1.00
H354   H     0.93031   0.44989   0.46139   0.00000  Uiso   1.00
H355   H     0.72285   0.55956   0.48058   0.00000  Uiso   1.00
H356   H     0.88510   0.47225   0.42780   0.00000  Uiso   1.00
H357   H     0.99577   0.46108   0.30951   0.00000  Uiso   1.00
O358   O     0.83333   0.50000   0.25000   0.00000  Uiso   1.00
O359   O     0.82360   0.45726   0.16625   0.00000  Uiso   1.00
O360   O     0.79354   0.53979   0.33749   0.00000  Uiso   1.00
O361   O     0.87755   0.50826   0.15877   0.00000  Uiso   1.00
O362   O     0.83865   0.49468   0.33749   0.00000  Uiso   1.00
O363   O     0.97883   0.47146   0.29456   0.00000  Uiso   1.00
O364   O     0.79549   0.48905   0.09978   0.00000  Uiso   1.00
O365   O     0.93186   0.44131   0.09632   0.00000  Uiso   1.00
O366   O     0.80400   0.56031   0.07838   0.00000  Uiso   1.00
O367   O     0.84515   0.41434   0.27820   0.00000  Uiso   1.00
O368   O     0.81247   0.59469   0.26767   0.00000  Uiso   1.00
O369   O     0.74119   0.46584   0.23607   0.00000  Uiso   1.00
O370   O     0.93452   0.52512   0.21805   0.00000  Uiso   1.00
O371   O     0.73656   0.52293   0.27820   0.00000  Uiso   1.00
O372   O     0.92106   0.48610   0.26767   0.00000  Uiso   1.00
O373   O     0.80467   0.40236   0.23607   0.00000  Uiso   1.00
O374   O     0.87104   0.58860   0.21805   0.00000  Uiso   1.00
Zn375  Zn    0.85910   0.47423   0.28277   0.00000  Uiso   1.00
Zn376  Zn    0.80125   0.45711   0.22257   0.00000  Uiso   1.00
Zn377  Zn    0.87833   0.52997   0.21188   0.00000  Uiso   1.00
Zn378  Zn    0.79465   0.53868   0.28277   0.00000  Uiso   1.00
Br379  Br    0.04720   0.87684   0.40155   0.00000  Uiso   1.00
Br380  Br    0.22699   0.87043   0.38870   0.00000  Uiso   1.00
C381   C     0.05282   0.82709   0.25832   0.00000  Uiso   1.00
C382   C     0.21221   0.81537   0.45886   0.00000  Uiso   1.00
C383   C     0.23716   0.80066   0.47837   0.00000  Uiso   1.00
C384   C     0.28098   0.84011   0.24134   0.00000  Uiso   1.00
C385   C     0.22610   0.80532   0.01933   0.00000  Uiso   1.00
C386   C     0.18891   0.82462   0.04118   0.00000  Uiso   1.00
C387   C     0.25044   0.78853   0.03852   0.00000  Uiso   1.00
C388   C     0.23807   0.78952   0.07933   0.00000  Uiso   1.00
C389   C     0.17188   0.81810   0.08145   0.00000  Uiso   1.00
C390   C     0.32673   0.84183   0.23802   0.00000  Uiso   1.00
C391   C     0.00715   0.82417   0.26335   0.00000  Uiso   1.00
C392   C     0.09425   0.87320   0.42261   0.00000  Uiso   1.00
C393   C     0.18087   0.98884   0.23815   0.00000  Uiso   1.00
C394   C     0.15163   0.67882   0.26225   0.00000  Uiso   1.00
C395   C     0.15594   0.72284   0.25895   0.00000  Uiso   1.00
C396   C     0.17685   0.94434   0.24137   0.00000  Uiso   1.00
C397   C     0.18797   0.81237   0.14401   0.00000  Uiso   1.00
C398   C     0.14522   0.85434   0.35619   0.00000  Uiso   1.00
C399   C     0.13520   0.86244   0.39936   0.00000  Uiso   1.00
C400   C     0.19828   0.80425   0.10113   0.00000  Uiso   1.00
C401   C     0.08654   0.88191   0.46319   0.00000  Uiso   1.00
C402   C     0.16691   0.85873   0.41789   0.00000  Uiso   1.00
C403   C     0.15509   0.85784   0.45920   0.00000  Uiso   1.00
C404   C     0.11660   0.87442   0.48159   0.00000  Uiso   1.00
C405   C     0.17944   0.84077   0.47919   0.00000  Uiso   1.00
C406   C     0.16827   0.84651   0.02112   0.00000  Uiso   1.00
C407   C     0.13755   0.87458   0.04122   0.00000  Uiso   1.00
C408   C     0.10937   0.88484   0.02197   0.00000  Uiso   1.00
H409   H     0.08273   0.90241   0.03826   0.00000  Uiso   1.00
H410   H     0.11878   0.80796   0.12393   0.00000  Uiso   1.00
H411   H     0.25065   0.77174   0.12446   0.00000  Uiso   1.00
H412   H     0.11455   0.91281   0.08751   0.00000  Uiso   1.00
H413   H     0.27959   0.77486   0.02174   0.00000  Uiso   1.00
H414   H     0.01648   0.85771   0.21437   0.00000  Uiso   1.00
H415   H     0.20788   0.66942   0.21599   0.00000  Uiso   1.00
H416   H     0.12424   0.99902   0.28450   0.00000  Uiso   1.00
H417   H     0.26365   0.78322   0.46139   0.00000  Uiso   1.00
H418   H     0.05619   0.89289   0.48058   0.00000  Uiso   1.00
H419   H     0.21843   0.80558   0.42780   0.00000  Uiso   1.00
H420   H     0.32911   0.79442   0.30951   0.00000  Uiso   1.00
O421   O     0.16667   0.83333   0.25000   0.00000  Uiso   1.00
O422   O     0.15693   0.79060   0.16625   0.00000  Uiso   1.00
O423   O     0.12687   0.87313   0.33749   0.00000  Uiso   1.00
O424   O     0.21088   0.84159   0.15877   0.00000  Uiso   1.00
O425   O     0.17198   0.82802   0.33749   0.00000  Uiso   1.00
O426   O     0.31216   0.80480   0.29456   0.00000  Uiso   1.00
O427   O     0.12882   0.82239   0.09978   0.00000  Uiso   1.00
O428   O     0.26519   0.77464   0.09632   0.00000  Uiso   1.00
O429   O     0.13734   0.89365   0.07838   0.00000  Uiso   1.00
O430   O     0.17849   0.74768   0.27820   0.00000  Uiso   1.00
O431   O     0.14581   0.92803   0.26767   0.00000  Uiso   1.00
O432   O     0.07452   0.79917   0.23607   0.00000  Uiso   1.00
O433   O     0.26785   0.85845   0.21805   0.00000  Uiso   1.00
O434   O     0.06990   0.85627   0.27820   0.00000  Uiso   1.00
O435   O     0.25440   0.81944   0.26767   0.00000  Uiso   1.00
O436   O     0.13800   0.73570   0.23607   0.00000  Uiso   1.00
O437   O     0.20437   0.92193   0.21805   0.00000  Uiso   1.00
Zn438  Zn    0.19244   0.80756   0.28277   0.00000  Uiso   1.00
Zn439  Zn    0.13459   0.79044   0.22257   0.00000  Uiso   1.00
Zn440  Zn    0.21166   0.86331   0.21188   0.00000  Uiso   1.00
Zn441  Zn    0.12798   0.87202   0.28277   0.00000  Uiso   1.00
Br442  Br    0.38053   0.87684   0.40155   0.00000  Uiso   1.00
Br443  Br    0.56032   0.87043   0.38870   0.00000  Uiso   1.00
C444   C     0.38615   0.82709   0.25832   0.00000  Uiso   1.00
C445   C     0.54554   0.81537   0.45886   0.00000  Uiso   1.00
C446   C     0.57050   0.80066   0.47837   0.00000  Uiso   1.00
C447   C     0.61431   0.84011   0.24134   0.00000  Uiso   1.00
C448   C     0.55943   0.80532   0.01933   0.00000  Uiso   1.00
C449   C     0.52224   0.82462   0.04118   0.00000  Uiso   1.00
C450   C     0.58378   0.78853   0.03852   0.00000  Uiso   1.00
C451   C     0.57141   0.78952   0.07933   0.00000  Uiso   1.00
C452   C     0.50521   0.81810   0.08145   0.00000  Uiso   1.00
C453   C     0.66007   0.84183   0.23802   0.00000  Uiso   1.00
C454   C     0.34048   0.82417   0.26335   0.00000  Uiso   1.00
C455   C     0.42758   0.87320   0.42261   0.00000  Uiso   1.00
C456   C     0.51420   0.98884   0.23815   0.00000  Uiso   1.00
C457   C     0.48496   0.67882   0.26225   0.00000  Uiso   1.00
C458   C     0.48927   0.72284   0.25895   0.00000  Uiso   1.00
C459   C     0.51018   0.94434   0.24137   0.00000  Uiso   1.00
C460   C     0.52130   0.81237   0.14401   0.00000  Uiso   1.00
C461   C     0.47855   0.85434   0.35619   0.00000  Uiso   1.00
C462   C     0.46853   0.86244   0.39936   0.00000  Uiso   1.00
C463   C     0.53161   0.80425   0.10113   0.00000  Uiso   1.00
C464   C     0.41988   0.88191   0.46319   0.00000  Uiso   1.00
C465   C     0.50024   0.85873   0.41789   0.00000  Uiso   1.00
C466   C     0.48843   0.85784   0.45920   0.00000  Uiso   1.00
C467   C     0.44993   0.87442   0.48159   0.00000  Uiso   1.00
C468   C     0.51278   0.84077   0.47919   0.00000  Uiso   1.00
C469   C     0.50160   0.84651   0.02112   0.00000  Uiso   1.00
C470   C     0.47089   0.87458   0.04122   0.00000  Uiso   1.00
C471   C     0.44270   0.88484   0.02197   0.00000  Uiso   1.00
H472   H     0.41607   0.90241   0.03826   0.00000  Uiso   1.00
H473   H     0.45211   0.80796   0.12393   0.00000  Uiso   1.00
H474   H     0.58398   0.77174   0.12446   0.00000  Uiso   1.00
H475   H     0.44788   0.91281   0.08751   0.00000  Uiso   1.00
H476   H     0.61292   0.77486   0.02174   0.00000  Uiso   1.00
H477   H     0.34982   0.85771   0.21437   0.00000  Uiso   1.00
H478   H     0.54121   0.66942   0.21599   0.00000  Uiso   1.00
H479   H     0.45758   0.99902   0.28450   0.00000  Uiso   1.00
H480   H     0.59698   0.78322   0.46139   0.00000  Uiso   1.00
H481   H     0.38952   0.89289   0.48058   0.00000  Uiso   1.00
H482   H     0.55176   0.80558   0.42780   0.00000  Uiso   1.00
H483   H     0.66244   0.79442   0.30951   0.00000  Uiso   1.00
O484   O     0.50000   0.83333   0.25000   0.00000  Uiso   1.00
O485   O     0.49027   0.79060   0.16625   0.00000  Uiso   1.00
O486   O     0.46020   0.87313   0.33749   0.00000  Uiso   1.00
O487   O     0.54421   0.84159   0.15877   0.00000  Uiso   1.00
O488   O     0.50532   0.82802   0.33749   0.00000  Uiso   1.00
O489   O     0.64550   0.80480   0.29456   0.00000  Uiso   1.00
O490   O     0.46216   0.82239   0.09978   0.00000  Uiso   1.00
O491   O     0.59852   0.77464   0.09632   0.00000  Uiso   1.00
O492   O     0.47067   0.89365   0.07838   0.00000  Uiso   1.00
O493   O     0.51182   0.74768   0.27820   0.00000  Uiso   1.00
O494   O     0.47914   0.92803   0.26767   0.00000  Uiso   1.00
O495   O     0.40785   0.79917   0.23607   0.00000  Uiso   1.00
O496   O     0.60119   0.85845   0.21805   0.00000  Uiso   1.00
O497   O     0.40323   0.85627   0.27820   0.00000  Uiso   1.00
O498   O     0.58773   0.81944   0.26767   0.00000  Uiso   1.00
O499   O     0.47133   0.73570   0.23607   0.00000  Uiso   1.00
O500   O     0.53771   0.92193   0.21805   0.00000  Uiso   1.00
Zn501  Zn    0.52577   0.80756   0.28277   0.00000  Uiso   1.00
Zn502  Zn    0.46792   0.79044   0.22257   0.00000  Uiso   1.00
Zn503  Zn    0.54500   0.86331   0.21188   0.00000  Uiso   1.00
Zn504  Zn    0.46131   0.87202   0.28277   0.00000  Uiso   1.00
Br505  Br    0.71386   0.87684   0.40155   0.00000  Uiso   1.00
Br506  Br    0.89366   0.87043   0.38870   0.00000  Uiso   1.00
C507   C     0.71949   0.82709   0.25832   0.00000  Uiso   1.00
C508   C     0.87887   0.81537   0.45886   0.00000  Uiso   1.00
C509   C     0.90383   0.80066   0.47837   0.00000  Uiso   1.00
C510   C     0.94764   0.84011   0.24134   0.00000  Uiso   1.00
C511   C     0.89276   0.80532   0.01933   0.00000  Uiso   1.00
C512   C     0.85557   0.82462   0.04118   0.00000  Uiso   1.00
C513   C     0.91711   0.78853   0.03852   0.00000  Uiso   1.00
C514   C     0.90474   0.78952   0.07933   0.00000  Uiso   1.00
C515   C     0.83854   0.81810   0.08145   0.00000  Uiso   1.00
C516   C     0.99340   0.84183   0.23802   0.00000  Uiso   1.00
C517   C     0.67381   0.82417   0.26335   0.00000  Uiso   1.00
C518   C     0.76091   0.87320   0.42261   0.00000  Uiso   1.00
C519   C     0.84754   0.98884   0.23815   0.00000  Uiso   1.00
C520   C     0.81829   0.67882   0.26225   0.00000  Uiso   1.00
C521   C     0.82261   0.72284   0.25895   0.00000  Uiso   1.00
C522   C     0.84352   0.94434   0.24137   0.00000  Uiso   1.00
C523   C     0.85463   0.81237   0.14401   0.00000  Uiso   1.00
C524   C     0.81189   0.85434   0.35619   0.00000  Uiso   1.00
C525   C     0.80187   0.86244   0.39936   0.00000  Uiso   1.00
C526   C     0.86495   0.80425   0.10113   0.00000  Uiso   1.00
C527   C     0.75321   0.88191   0.46319   0.00000  Uiso   1.00
C528   C     0.83358   0.85873   0.41789   0.00000  Uiso   1.00
C529   C     0.82176   0.85784   0.45920   0.00000  Uiso   1.00
C530   C     0.78327   0.87442   0.48159   0.00000  Uiso   1.00
C531   C     0.84611   0.84077   0.47919   0.00000  Uiso   1.00
C532   C     0.83493   0.84651   0.02112   0.00000  Uiso   1.00
C533   C     0.80422   0.87458   0.04122   0.00000  Uiso   1.00
C534   C     0.77603   0.88484   0.02197   0.00000  Uiso   1.00
H535   H     0.74940   0.90241   0.03826   0.00000  Uiso   1.00
H536   H     0.78545   0.80796   0.12393   0.00000  Uiso   1.00
H537   H     0.91732   0.77174   0.12446   0.00000  Uiso   1.00
H538   H     0.78122   0.91281   0.08751   0.00000  Uiso   1.00
H539   H     0.94626   0.77486   0.02174   0.00000  Uiso   1.00
H540   H     0.68315   0.85771   0.21437   0.00000  Uiso   1.00
H541   H     0.87455   0.66942   0.21599   0.00000  Uiso   1.00
H542   H     0.79091   0.99902   0.28450   0.00000  Uiso   1.00
H543   H     0.93031   0.78322   0.46139   0.00000  Uiso   1.00
H544   H     0.72285   0.89289   0.48058   0.00000  Uiso   1.00
H545   H     0.88510   0.80558   0.42780   0.00000  Uiso   1.00
H546   H     0.99577   0.79442   0.30951   0.00000  Uiso   1.00
O547   O     0.83333   0.83333   0.25000   0.00000  Uiso   1.00
O548   O     0.82360   0.79060   0.16625   0.00000  Uiso   1.00
O549   O     0.79354   0.87313   0.33749   0.00000  Uiso   1.00
O550   O     0.87755   0.84159   0.15877   0.00000  Uiso   1.00
O551   O     0.83865   0.82802   0.33749   0.00000  Uiso   1.00
O552   O     0.97883   0.80480   0.29456   0.00000  Uiso   1.00
O553   O     0.79549   0.82239   0.09978   0.00000  Uiso   1.00
O554   O     0.93186   0.77464   0.09632   0.00000  Uiso   1.00
O555   O     0.80400   0.89365   0.07838   0.00000  Uiso   1.00
O556   O     0.84515   0.74768   0.27820   0.00000  Uiso   1.00
O557   O     0.81247   0.92803   0.26767   0.00000  Uiso   1.00
O558   O     0.74119   0.79917   0.23607   0.00000  Uiso   1.00
O559   O     0.93452   0.85845   0.21805   0.00000  Uiso   1.00
O560   O     0.73656   0.85627   0.27820   0.00000  Uiso   1.00
O561   O     0.92106   0.81944   0.26767   0.00000  Uiso   1.00
O562   O     0.80467   0.73570   0.23607   0.00000  Uiso   1.00
O563   O     0.87104   0.92193   0.21805   0.00000  Uiso   1.00
Zn564  Zn    0.85910   0.80756   0.28277   0.00000  Uiso   1.00
Zn565  Zn    0.80125   0.79044   0.22257   0.00000  Uiso   1.00
Zn566  Zn    0.87833   0.86331   0.21188   0.00000  Uiso   1.00
Zn567  Zn    0.79465   0.87202   0.28277   0.00000  Uiso   1.00
Br568  Br    0.04720   0.21018   0.90155   0.00000  Uiso   1.00
Br569  Br    0.22699   0.20376   0.88870   0.00000  Uiso   1.00
C570   C     0.05282   0.16042   0.75832   0.00000  Uiso   1.00
C571   C     0.21221   0.14871   0.95886   0.00000  Uiso   1.00
C572   C     0.23716   0.13399   0.97837   0.00000  Uiso   1.00
C573   C     0.28098   0.17345   0.74134   0.00000  Uiso   1.00
C574   C     0.22610   0.13866   0.51933   0.00000  Uiso   1.00
C575   C     0.18891   0.15795   0.54118   0.00000  Uiso   1.00
C576   C     0.25044   0.12187   0.53852   0.00000  Uiso   1.00
C577   C     0.23807   0.12285   0.57933   0.00000  Uiso   1.00
C578   C     0.17188   0.15143   0.58145   0.00000  Uiso   1.00
C579   C     0.32673   0.17517   0.73802   0.00000  Uiso   1.00
C580   C     0.00715   0.15750   0.76335   0.00000  Uiso   1.00
C581   C     0.09425   0.20653   0.92261   0.00000  Uiso   1.00
C582   C     0.18087   0.32218   0.73815   0.00000  Uiso   1.00
C583   C     0.15163   0.01215   0.76225   0.00000  Uiso   1.00
C584   C     0.15594   0.05617   0.75895   0.00000  Uiso   1.00
C585   C     0.17685   0.27768   0.74137   0.00000  Uiso   1.00
C586   C     0.18797   0.14570   0.64401   0.00000  Uiso   1.00
C587   C     0.14522   0.18767   0.85619   0.00000  Uiso   1.00
C588   C     0.13520   0.19578   0.89936   0.00000  Uiso   1.00
C589   C     0.19828   0.13759   0.60113   0.00000  Uiso   1.00
C590   C     0.08654   0.21524   0.96319   0.00000  Uiso   1.00
C591   C     0.16691   0.19206   0.91789   0.00000  Uiso   1.00
C592   C     0.15509   0.19117   0.95920   0.00000  Uiso   1.00
C593   C     0.11660   0.20775   0.98159   0.00000  Uiso   1.00
C594   C     0.17944   0.17411   0.97919   0.00000  Uiso   1.00
C595   C     0.16827   0.17984   0.52112   0.00000  Uiso   1.00
C596   C     0.13755   0.20791   0.54122   0.00000  Uiso   1.00
C597   C     0.10937   0.21817   0.52197   0.00000  Uiso   1.00
H598   H     0.08273   0.23574   0.53826   0.00000  Uiso   1.00
H599   H     0.11878   0.14129   0.62393   0.00000  Uiso   1.00
H600   H     0.25065   0.10507   0.62446   0.00000  Uiso   1.00
H601   H     0.11455   0.24614   0.58751   0.00000  Uiso   1.00
H602   H     0.27959   0.10820   0.52174   0.00000  Uiso   1.00
H603   H     0.01648   0.19104   0.71437   0.00000  Uiso   1.00
H604   H     0.20788   0.00275   0.71599   0.00000  Uiso   1.00
H605   H     0.12424   0.33235   0.78450   0.00000  Uiso   1.00
H606   H     0.26365   0.11655   0.96139   0.00000  Uiso   1.00
H607   H     0.05619   0.22622   0.98058   0.00000  Uiso   1.00
H608   H     0.21843   0.13891   0.92780   0.00000  Uiso   1.00
H609   H     0.32911   0.12775   0.80951   0.00000  Uiso   1.00
O610   O     0.16667   0.16667   0.75000   0.00000  Uiso   1.00
O611   O     0.15693   0.12393   0.66625   0.00000  Uiso   1.00
O612   O     0.12687   0.20646   0.83749   0.00000  Uiso   1.00
O613   O     0.21088   0.17493   0.65877   0.00000  Uiso   1.00
O614   O     0.17198   0.16135   0.83749   0.00000  Uiso   1.00
O615   O     0.31216   0.13813   0.79456   0.00000  Uiso   1.00
O616   O     0.12882   0.15572   0.59978   0.00000  Uiso   1.00
O617   O     0.26519   0.10798   0.59632   0.00000  Uiso   1.00
O618   O     0.13734   0.22698   0.57838   0.00000  Uiso   1.00
O619   O     0.17849   0.08101   0.77820   0.00000  Uiso   1.00
O620   O     0.14581   0.26136   0.76767   0.00000  Uiso   1.00
O621   O     0.07452   0.13251   0.73607   0.00000  Uiso   1.00
O622   O     0.26785   0.19179   0.71805   0.00000  Uiso   1.00
O623   O     0.06990   0.18960   0.77820   0.00000  Uiso   1.00
O624   O     0.25440   0.15277   0.76767   0.00000  Uiso   1.00
O625   O     0.13800   0.06903   0.73607   0.00000  Uiso   1.00
O626   O     0.20437   0.25527   0.71805   0.00000  Uiso   1.00
Zn627  Zn    0.19244   0.14090   0.78277   0.00000  Uiso   1.00
Zn628  Zn    0.13459   0.12378   0.72257   0.00000  Uiso   1.00
Zn629  Zn    0.21166   0.19664   0.71188   0.00000  Uiso   1.00
Zn630  Zn    0.12798   0.20535   0.78277   0.00000  Uiso   1.00
Br631  Br    0.38053   0.21018   0.90155   0.00000  Uiso   1.00
Br632  Br    0.56032   0.20376   0.88870   0.00000  Uiso   1.00
C633   C     0.38615   0.16042   0.75832   0.00000  Uiso   1.00
C634   C     0.54554   0.14871   0.95886   0.00000  Uiso   1.00
C635   C     0.57050   0.13399   0.97837   0.00000  Uiso   1.00
C636   C     0.61431   0.17345   0.74134   0.00000  Uiso   1.00
C637   C     0.55943   0.13866   0.51933   0.00000  Uiso   1.00
C638   C     0.52224   0.15795   0.54118   0.00000  Uiso   1.00
C639   C     0.58378   0.12187   0.53852   0.00000  Uiso   1.00
C640   C     0.57141   0.12285   0.57933   0.00000  Uiso   1.00
C641   C     0.50521   0.15143   0.58145   0.00000  Uiso   1.00
C642   C     0.66007   0.17517   0.73802   0.00000  Uiso   1.00
C643   C     0.34048   0.15750   0.76335   0.00000  Uiso   1.00
C644   C     0.42758   0.20653   0.92261   0.00000  Uiso   1.00
C645   C     0.51420   0.32218   0.73815   0.00000  Uiso   1.00
C646   C     0.48496   0.01215   0.76225   0.00000  Uiso   1.00
C647   C     0.48927   0.05617   0.75895   0.00000  Uiso   1.00
C648   C     0.51018   0.27768   0.74137   0.00000  Uiso   1.00
C649   C     0.52130   0.14570   0.64401   0.00000  Uiso   1.00
C650   C     0.47855   0.18767   0.85619   0.00000  Uiso   1.00
C651   C     0.46853   0.19578   0.89936   0.00000  Uiso   1.00
C652   C     0.53161   0.13759   0.60113   0.00000  Uiso   1.00
C653   C     0.41988   0.21524   0.96319   0.00000  Uiso   1.00
C654   C     0.50024   0.19206   0.91789   0.00000  Uiso   1.00
C655   C     0.48843   0.19117   0.95920   0.00000  Uiso   1.00
C656   C     0.44993   0.20775   0.98159   0.00000  Uiso   1.00
C657   C     0.51278   0.17411   0.97919   0.00000  Uiso   1.00
C658   C     0.50160   0.17984   0.52112   0.00000  Uiso   1.00
C659   C     0.47089   0.20791   0.54122   0.00000  Uiso   1.00
C660   C     0.44270   0.21817   0.52197   0.00000  Uiso   1.00
H661   H     0.41607   0.23574   0.53826   0.00000  Uiso   1.00
H662   H     0.45211   0.14129   0.62393   0.00000  Uiso   1.00
H663   H     0.58398   0.10507   0.62446   0.00000  Uiso   1.00
H664   H     0.44788   0.24614   0.58751   0.00000  Uiso   1.00
H665   H     0.61292   0.10820   0.52174   0.00000  Uiso   1.00
H666   H     0.34982   0.19104   0.71437   0.00000  Uiso   1.00
H667   H     0.54121   0.00275   0.71599   0.00000  Uiso   1.00
H668   H     0.45758   0.33235   0.78450   0.00000  Uiso   1.00
H669   H     0.59698   0.11655   0.96139   0.00000  Uiso   1.00
H670   H     0.38952   0.22622   0.98058   0.00000  Uiso   1.00
H671   H     0.55176   0.13891   0.92780   0.00000  Uiso   1.00
H672   H     0.66244   0.12775   0.80951   0.00000  Uiso   1.00
O673   O     0.50000   0.16667   0.75000   0.00000  Uiso   1.00
O674   O     0.49027   0.12393   0.66625   0.00000  Uiso   1.00
O675   O     0.46020   0.20646   0.83749   0.00000  Uiso   1.00
O676   O     0.54421   0.17493   0.65877   0.00000  Uiso   1.00
O677   O     0.50532   0.16135   0.83749   0.00000  Uiso   1.00
O678   O     0.64550   0.13813   0.79456   0.00000  Uiso   1.00
O679   O     0.46216   0.15572   0.59978   0.00000  Uiso   1.00
O680   O     0.59852   0.10798   0.59632   0.00000  Uiso   1.00
O681   O     0.47067   0.22698   0.57838   0.00000  Uiso   1.00
O682   O     0.51182   0.08101   0.77820   0.00000  Uiso   1.00
O683   O     0.47914   0.26136   0.76767   0.00000  Uiso   1.00
O684   O     0.40785   0.13251   0.73607   0.00000  Uiso   1.00
O685   O     0.60119   0.19179   0.71805   0.00000  Uiso   1.00
O686   O     0.40323   0.18960   0.77820   0.00000  Uiso   1.00
O687   O     0.58773   0.15277   0.76767   0.00000  Uiso   1.00
O688   O     0.47133   0.06903   0.73607   0.00000  Uiso   1.00
O689   O     0.53771   0.25527   0.71805   0.00000  Uiso   1.00
Zn690  Zn    0.52577   0.14090   0.78277   0.00000  Uiso   1.00
Zn691  Zn    0.46792   0.12378   0.72257   0.00000  Uiso   1.00
Zn692  Zn    0.54500   0.19664   0.71188   0.00000  Uiso   1.00
Zn693  Zn    0.46131   0.20535   0.78277   0.00000  Uiso   1.00
Br694  Br    0.71386   0.21018   0.90155   0.00000  Uiso   1.00
Br695  Br    0.89366   0.20376   0.88870   0.00000  Uiso   1.00
C696   C     0.71949   0.16042   0.75832   0.00000  Uiso   1.00
C697   C     0.87887   0.14871   0.95886   0.00000  Uiso   1.00
C698   C     0.90383   0.13399   0.97837   0.00000  Uiso   1.00
C699   C     0.94764   0.17345   0.74134   0.00000  Uiso   1.00
C700   C     0.89276   0.13866   0.51933   0.00000  Uiso   1.00
C701   C     0.85557   0.15795   0.54118   0.00000  Uiso   1.00
C702   C     0.91711   0.12187   0.53852   0.00000  Uiso   1.00
C703   C     0.90474   0.12285   0.57933   0.00000  Uiso   1.00
C704   C     0.83854   0.15143   0.58145   0.00000  Uiso   1.00
C705   C     0.99340   0.17517   0.73802   0.00000  Uiso   1.00
C706   C     0.67381   0.15750   0.76335   0.00000  Uiso   1.00
C707   C     0.76091   0.20653   0.92261   0.00000  Uiso   1.00
C708   C     0.84754   0.32218   0.73815   0.00000  Uiso   1.00
C709   C     0.81829   0.01215   0.76225   0.00000  Uiso   1.00
C710   C     0.82261   0.05617   0.75895   0.00000  Uiso   1.00
C711   C     0.84352   0.27768   0.74137   0.00000  Uiso   1.00
C712   C     0.85463   0.14570   0.64401   0.00000  Uiso   1.00
C713   C     0.81189   0.18767   0.85619   0.00000  Uiso   1.00
C714   C     0.80187   0.19578   0.89936   0.00000  Uiso   1.00
C715   C     0.86495   0.13759   0.60113   0.00000  Uiso   1.00
C716   C     0.75321   0.21524   0.96319   0.00000  Uiso   1.00
C717   C     0.83358   0.19206   0.91789   0.00000  Uiso   1.00
C718   C     0.82176   0.19117   0.95920   0.00000  Uiso   1.00
C719   C     0.78327   0.20775   0.98159   0.00000  Uiso   1.00
C720   C     0.84611   0.17411   0.97919   0.00000  Uiso   1.00
C721   C     0.83493   0.17984   0.52112   0.00000  Uiso   1.00
C722   C     0.80422   0.20791   0.54122   0.00000  Uiso   1.00
C723   C     0.77603   0.21817   0.52197   0.00000  Uiso   1.00
H724   H     0.74940   0.23574   0.53826   0.00000  Uiso   1.00
H725   H     0.78545   0.14129   0.62393   0.00000  Uiso   1.00
H726   H     0.91732   0.10507   0.62446   0.00000  Uiso   1.00
H727   H     0.78122   0.24614   0.58751   0.00000  Uiso   1.00
H728   H     0.94626   0.10820   0.52174   0.00000  Uiso   1.00
H729   H     0.68315   0.19104   0.71437   0.00000  Uiso   1.00
H730   H     0.87455   0.00275   0.71599   0.00000  Uiso   1.00
H731   H     0.79091   0.33235   0.78450   0.00000  Uiso   1.00
H732   H     0.93031   0.11655   0.96139   0.00000  Uiso   1.00
H733   H     0.72285   0.22622   0.98058   0.00000  Uiso   1.00
H734   H     0.88510   0.13891   0.92780   0.00000  Uiso   1.00
H735   H     0.99577   0.12775   0.80951   0.00000  Uiso   1.00
O736   O     0.83333   0.16667   0.75000   0.00000  Uiso   1.00
O737   O     0.82360   0.12393   0.66625   0.00000  Uiso   1.00
O738   O     0.79354   0.20646   0.83749   0.00000  Uiso   1.00
O739   O     0.87755   0.17493   0.65877   0.00000  Uiso   1.00
O740   O     0.83865   0.16135   0.83749   0.00000  Uiso   1.00
O741   O     0.97883   0.13813   0.79456   0.00000  Uiso   1.00
O742   O     0.79549   0.15572   0.59978   0.00000  Uiso   1.00
O743   O     0.93186   0.10798   0.59632   0.00000  Uiso   1.00
O744   O     0.80400   0.22698   0.57838   0.00000  Uiso   1.00
O745   O     0.84515   0.08101   0.77820   0.00000  Uiso   1.00
O746   O     0.81247   0.26136   0.76767   0.00000  Uiso   1.00
O747   O     0.74119   0.13251   0.73607   0.00000  Uiso   1.00
O748   O     0.93452   0.19179   0.71805   0.00000  Uiso   1.00
O749   O     0.73656   0.18960   0.77820   0.00000  Uiso   1.00
O750   O     0.92106   0.15277   0.76767   0.00000  Uiso   1.00
O751   O     0.80467   0.06903   0.73607   0.00000  Uiso   1.00
O752   O     0.87104   0.25527   0.71805   0.00000  Uiso   1.00
Zn753  Zn    0.85910   0.14090   0.78277   0.00000  Uiso   1.00
Zn754  Zn    0.80125   0.12378   0.72257   0.00000  Uiso   1.00
Zn755  Zn    0.87833   0.19664   0.71188   0.00000  Uiso   1.00
Zn756  Zn    0.79465   0.20535   0.78277   0.00000  Uiso   1.00
Br757  Br    0.04720   0.54351   0.90155   0.00000  Uiso   1.00
Br758  Br    0.22699   0.53709   0.88870   0.00000  Uiso   1.00
C759   C     0.05282   0.49376   0.75832   0.00000  Uiso   1.00
C760   C     0.21221   0.48204   0.95886   0.00000  Uiso   1.00
C761   C     0.23716   0.46732   0.97837   0.00000  Uiso   1.00
C762   C     0.28098   0.50678   0.74134   0.00000  Uiso   1.00
C763   C     0.22610   0.47199   0.51933   0.00000  Uiso   1.00
C764   C     0.18891   0.49129   0.54118   0.00000  Uiso   1.00
C765   C     0.25044   0.45520   0.53852   0.00000  Uiso   1.00
C766   C     0.23807   0.45619   0.57933   0.00000  Uiso   1.00
C767   C     0.17188   0.48476   0.58145   0.00000  Uiso   1.00
C768   C     0.32673   0.50850   0.73802   0.00000  Uiso   1.00
C769   C     0.00715   0.49084   0.76335   0.00000  Uiso   1.00
C770   C     0.09425   0.53986   0.92261   0.00000  Uiso   1.00
C771   C     0.18087   0.65551   0.73815   0.00000  Uiso   1.00
C772   C     0.15163   0.34549   0.76225   0.00000  Uiso   1.00
C773   C     0.15594   0.38950   0.75895   0.00000  Uiso   1.00
C774   C     0.17685   0.61101   0.74137   0.00000  Uiso   1.00
C775   C     0.18797   0.47903   0.64401   0.00000  Uiso   1.00
C776   C     0.14522   0.52100   0.85619   0.00000  Uiso   1.00
C777   C     0.13520   0.52911   0.89936   0.00000  Uiso   1.00
C778   C     0.19828   0.47092   0.60113   0.00000  Uiso   1.00
C779   C     0.08654   0.54858   0.96319   0.00000  Uiso   1.00
C780   C     0.16691   0.52540   0.91789   0.00000  Uiso   1.00
C781   C     0.15509   0.52450   0.95920   0.00000  Uiso   1.00
C782   C     0.11660   0.54108   0.98159   0.00000  Uiso   1.00
C783   C     0.17944   0.50744   0.97919   0.00000  Uiso   1.00
C784   C     0.16827   0.51318   0.52112   0.00000  Uiso   1.00
C785   C     0.13755   0.54125   0.54122   0.00000  Uiso   1.00
C786   C     0.10937   0.55150   0.52197   0.00000  Uiso   1.00
H787   H     0.08273   0.56908   0.53826   0.00000  Uiso   1.00
H788   H     0.11878   0.47462   0.62393   0.00000  Uiso   1.00
H789   H     0.25065   0.43840   0.62446   0.00000  Uiso   1.00
H790   H     0.11455   0.57948   0.58751   0.00000  Uiso   1.00
H791   H     0.27959   0.44153   0.52174   0.00000  Uiso   1.00
H792   H     0.01648   0.52438   0.71437   0.00000  Uiso   1.00
H793   H     0.20788   0.33608   0.71599   0.00000  Uiso   1.00
H794   H     0.12424   0.66569   0.78450   0.00000  Uiso   1.00
H795   H     0.26365   0.44989   0.96139   0.00000  Uiso   1.00
H796   H     0.05619   0.55956   0.98058   0.00000  Uiso   1.00
H797   H     0.21843   0.47225   0.92780   0.00000  Uiso   1.00
H798   H     0.32911   0.46108   0.80951   0.00000  Uiso   1.00
O799   O     0.16667   0.50000   0.75000   0.00000  Uiso   1.00
O800   O     0.15693   0.45726   0.66625   0.00000  Uiso   1.00
O801   O     0.12687   0.53979   0.83749   0.00000  Uiso   1.00
O802   O     0.21088   0.50826   0.65877   0.00000  Uiso   1.00
O803   O     0.17198   0.49468   0.83749   0.00000  Uiso   1.00
O804   O     0.31216   0.47146   0.79456   0.00000  Uiso   1.00
O805   O     0.12882   0.48905   0.59978   0.00000  Uiso   1.00
O806   O     0.26519   0.44131   0.59632   0.00000  Uiso   1.00
O807   O     0.13734   0.56031   0.57838   0.00000  Uiso   1.00
O808   O     0.17849   0.41434   0.77820   0.00000  Uiso   1.00
O809   O     0.14581   0.59469   0.76767   0.00000  Uiso   1.00
O810   O     0.07452   0.46584   0.73607   0.00000  Uiso   1.00
O811   O     0.26785   0.52512   0.71805   0.00000  Uiso   1.00
O812   O     0.06990   0.52293   0.77820   0.00000  Uiso   1.00
O813   O     0.25440   0.48610   0.76767   0.00000  Uiso   1.00
O814   O     0.13800   0.40236   0.73607   0.00000  Uiso   1.00
O815   O     0.20437   0.58860   0.71805   0.00000  Uiso   1.00
Zn816  Zn    0.19244   0.47423   0.78277   0.00000  Uiso   1.00
Zn817  Zn    0.13459   0.45711   0.72257   0.00000  Uiso   1.00
Zn818  Zn    0.21166   0.52997   0.71188   0.00000  Uiso   1.00
Zn819  Zn    0.12798   0.53868   0.78277   0.00000  Uiso   1.00
Br820  Br    0.38053   0.54351   0.90155   0.00000  Uiso   1.00
Br821  Br    0.56032   0.53709   0.88870   0.00000  Uiso   1.00
C822   C     0.38615   0.49376   0.75832   0.00000  Uiso   1.00
C823   C     0.54554   0.48204   0.95886   0.00000  Uiso   1.00
C824   C     0.57050   0.46732   0.97837   0.00000  Uiso   1.00
C825   C     0.61431   0.50678   0.74134   0.00000  Uiso   1.00
C826   C     0.55943   0.47199   0.51933   0.00000  Uiso   1.00
C827   C     0.52224   0.49129   0.54118   0.00000  Uiso   1.00
C828   C     0.58378   0.45520   0.53852   0.00000  Uiso   1.00
C829   C     0.57141   0.45619   0.57933   0.00000  Uiso   1.00
C830   C     0.50521   0.48476   0.58145   0.00000  Uiso   1.00
C831   C     0.66007   0.50850   0.73802   0.00000  Uiso   1.00
C832   C     0.34048   0.49084   0.76335   0.00000  Uiso   1.00
C833   C     0.42758   0.53986   0.92261   0.00000  Uiso   1.00
C834   C     0.51420   0.65551   0.73815   0.00000  Uiso   1.00
C835   C     0.48496   0.34549   0.76225   0.00000  Uiso   1.00
C836   C     0.48927   0.38950   0.75895   0.00000  Uiso   1.00
C837   C     0.51018   0.61101   0.74137   0.00000  Uiso   1.00
C838   C     0.52130   0.47903   0.64401   0.00000  Uiso   1.00
C839   C     0.47855   0.52100   0.85619   0.00000  Uiso   1.00
C840   C     0.46853   0.52911   0.89936   0.00000  Uiso   1.00
C841   C     0.53161   0.47092   0.60113   0.00000  Uiso   1.00
C842   C     0.41988   0.54858   0.96319   0.00000  Uiso   1.00
C843   C     0.50024   0.52540   0.91789   0.00000  Uiso   1.00
C844   C     0.48843   0.52450   0.95920   0.00000  Uiso   1.00
C845   C     0.44993   0.54108   0.98159   0.00000  Uiso   1.00
C846   C     0.51278   0.50744   0.97919   0.00000  Uiso   1.00
C847   C     0.50160   0.51318   0.52112   0.00000  Uiso   1.00
C848   C     0.47089   0.54125   0.54122   0.00000  Uiso   1.00
C849   C     0.44270   0.55150   0.52197   0.00000  Uiso   1.00
H850   H     0.41607   0.56908   0.53826   0.00000  Uiso   1.00
H851   H     0.45211   0.47462   0.62393   0.00000  Uiso   1.00
H852   H     0.58398   0.43840   0.62446   0.00000  Uiso   1.00
H853   H     0.44788   0.57948   0.58751   0.00000  Uiso   1.00
H854   H     0.61292   0.44153   0.52174   0.00000  Uiso   1.00
H855   H     0.34982   0.52438   0.71437   0.00000  Uiso   1.00
H856   H     0.54121   0.33608   0.71599   0.00000  Uiso   1.00
H857   H     0.45758   0.66569   0.78450   0.00000  Uiso   1.00
H858   H     0.59698   0.44989   0.96139   0.00000  Uiso   1.00
H859   H     0.38952   0.55956   0.98058   0.00000  Uiso   1.00
H860   H     0.55176   0.47225   0.92780   0.00000  Uiso   1.00
H861   H     0.66244   0.46108   0.80951   0.00000  Uiso   1.00
O862   O     0.50000   0.50000   0.75000   0.00000  Uiso   1.00
O863   O     0.49027   0.45726   0.66625   0.00000  Uiso   1.00
O864   O     0.46020   0.53979   0.83749   0.00000  Uiso   1.00
O865   O     0.54421   0.50826   0.65877   0.00000  Uiso   1.00
O866   O     0.50532   0.49468   0.83749   0.00000  Uiso   1.00
O867   O     0.64550   0.47146   0.79456   0.00000  Uiso   1.00
O868   O     0.46216   0.48905   0.59978   0.00000  Uiso   1.00
O869   O     0.59852   0.44131   0.59632   0.00000  Uiso   1.00
O870   O     0.47067   0.56031   0.57838   0.00000  Uiso   1.00
O871   O     0.51182   0.41434   0.77820   0.00000  Uiso   1.00
O872   O     0.47914   0.59469   0.76767   0.00000  Uiso   1.00
O873   O     0.40785   0.46584   0.73607   0.00000  Uiso   1.00
O874   O     0.60119   0.52512   0.71805   0.00000  Uiso   1.00
O875   O     0.40323   0.52293   0.77820   0.00000  Uiso   1.00
O876   O     0.58773   0.48610   0.76767   0.00000  Uiso   1.00
O877   O     0.47133   0.40236   0.73607   0.00000  Uiso   1.00
O878   O     0.53771   0.58860   0.71805   0.00000  Uiso   1.00
Zn879  Zn    0.52577   0.47423   0.78277   0.00000  Uiso   1.00
Zn880  Zn    0.46792   0.45711   0.72257   0.00000  Uiso   1.00
Zn881  Zn    0.54500   0.52997   0.71188   0.00000  Uiso   1.00
Zn882  Zn    0.46131   0.53868   0.78277   0.00000  Uiso   1.00
Br883  Br    0.71386   0.54351   0.90155   0.00000  Uiso   1.00
Br884  Br    0.89366   0.53709   0.88870   0.00000  Uiso   1.00
C885   C     0.71949   0.49376   0.75832   0.00000  Uiso   1.00
C886   C     0.87887   0.48204   0.95886   0.00000  Uiso   1.00
C887   C     0.90383   0.46732   0.97837   0.00000  Uiso   1.00
C888   C     0.94764   0.50678   0.74134   0.00000  Uiso   1.00
C889   C     0.89276   0.47199   0.51933   0.00000  Uiso   1.00
C890   C     0.85557   0.49129   0.54118   0.00000  Uiso   1.00
C891   C     0.91711   0.45520   0.53852   0.00000  Uiso   1.00
C892   C     0.90474   0.45619   0.57933   0.00000  Uiso   1.00
C893   C     0.83854   0.48476   0.58145   0.00000  Uiso   1.00
C894   C     0.99340   0.50850   0.73802   0.00000  Uiso   1.00
C895   C     0.67381   0.49084   0.76335   0.00000  Uiso   1.00
C896   C     0.76091   0.53986   0.92261   0.00000  Uiso   1.00
C897   C     0.84754   0.65551   0.73815   0.00000  Uiso   1.00
C898   C     0.81829   0.34549   0.76225   0.00000  Uiso   1.00
C899   C     0.82261   0.38950   0.75895   0.00000  Uiso   1.00
C900   C     0.84352   0.61101   0.74137   0.00000  Uiso   1.00
C901   C     0.85463   0.47903   0.64401   0.00000  Uiso   1.00
C902   C     0.81189   0.52100   0.85619   0.00000  Uiso   1.00
C903   C     0.80187   0.52911   0.89936   0.00000  Uiso   1.00
C904   C     0.86495   0.47092   0.60113   0.00000  Uiso   1.00
C905   C     0.75321   0.54858   0.96319   0.00000  Uiso   1.00
C906   C     0.83358   0.52540   0.91789   0.00000  Uiso   1.00
C907   C     0.82176   0.52450   0.95920   0.00000  Uiso   1.00
C908   C     0.78327   0.54108   0.98159   0.00000  Uiso   1.00
C909   C     0.84611   0.50744   0.97919   0.00000  Uiso   1.00
C910   C     0.83493   0.51318   0.52112   0.00000  Uiso   1.00
C911   C     0.80422   0.54125   0.54122   0.00000  Uiso   1.00
C912   C     0.77603   0.55150   0.52197   0.00000  Uiso   1.00
H913   H     0.74940   0.56908   0.53826   0.00000  Uiso   1.00
H914   H     0.78545   0.47462   0.62393   0.00000  Uiso   1.00
H915   H     0.91732   0.43840   0.62446   0.00000  Uiso   1.00
H916   H     0.78122   0.57948   0.58751   0.00000  Uiso   1.00
H917   H     0.94626   0.44153   0.52174   0.00000  Uiso   1.00
H918   H     0.68315   0.52438   0.71437   0.00000  Uiso   1.00
H919   H     0.87455   0.33608   0.71599   0.00000  Uiso   1.00
H920   H     0.79091   0.66569   0.78450   0.00000  Uiso   1.00
H921   H     0.93031   0.44989   0.96139   0.00000  Uiso   1.00
H922   H     0.72285   0.55956   0.98058   0.00000  Uiso   1.00
H923   H     0.88510   0.47225   0.92780   0.00000  Uiso   1.00
H924   H     0.99577   0.46108   0.80951   0.00000  Uiso   1.00
O925   O     0.83333   0.50000   0.75000   0.00000  Uiso   1.00
O926   O     0.82360   0.45726   0.66625   0.00000  Uiso   1.00
O927   O     0.79354   0.53979   0.83749   0.00000  Uiso   1.00
O928   O     0.87755   0.50826   0.65877   0.00000  Uiso   1.00
O929   O     0.83865   0.49468   0.83749   0.00000  Uiso   1.00
O930   O     0.97883   0.47146   0.79456   0.00000  Uiso   1.00
O931   O     0.79549   0.48905   0.59978   0.00000  Uiso   1.00
O932   O     0.93186   0.44131   0.59632   0.00000  Uiso   1.00
O933   O     0.80400   0.56031   0.57838   0.00000  Uiso   1.00
O934   O     0.84515   0.41434   0.77820   0.00000  Uiso   1.00
O935   O     0.81247   0.59469   0.76767   0.00000  Uiso   1.00
O936   O     0.74119   0.46584   0.73607   0.00000  Uiso   1.00
O937   O     0.93452   0.52512   0.71805   0.00000  Uiso   1.00
O938   O     0.73656   0.52293   0.77820   0.00000  Uiso   1.00
O939   O     0.92106   0.48610   0.76767   0.00000  Uiso   1.00
O940   O     0.80467   0.40236   0.73607   0.00000  Uiso   1.00
O941   O     0.87104   0.58860   0.71805   0.00000  Uiso   1.00
Zn942  Zn    0.85910   0.47423   0.78277   0.00000  Uiso   1.00
Zn943  Zn    0.80125   0.45711   0.72257   0.00000  Uiso   1.00
Zn944  Zn    0.87833   0.52997   0.71188   0.00000  Uiso   1.00
Zn945  Zn    0.79465   0.53868   0.78277   0.00000  Uiso   1.00
Br946  Br    0.04720   0.87684   0.90155   0.00000  Uiso   1.00
Br947  Br    0.22699   0.87043   0.88870   0.00000  Uiso   1.00
C948   C     0.05282   0.82709   0.75832   0.00000  Uiso   1.00
C949   C     0.21221   0.81537   0.95886   0.00000  Uiso   1.00
C950   C     0.23716   0.80066   0.97837   0.00000  Uiso   1.00
C951   C     0.28098   0.84011   0.74134   0.00000  Uiso   1.00
C952   C     0.22610   0.80532   0.51933   0.00000  Uiso   1.00
C953   C     0.18891   0.82462   0.54118   0.00000  Uiso   1.00
C954   C     0.25044   0.78853   0.53852   0.00000  Uiso   1.00
C955   C     0.23807   0.78952   0.57933   0.00000  Uiso   1.00
C956   C     0.17188   0.81810   0.58145   0.00000  Uiso   1.00
C957   C     0.32673   0.84183   0.73802   0.00000  Uiso   1.00
C958   C     0.00715   0.82417   0.76335   0.00000  Uiso   1.00
C959   C     0.09425   0.87320   0.92261   0.00000  Uiso   1.00
C960   C     0.18087   0.98884   0.73815   0.00000  Uiso   1.00
C961   C     0.15163   0.67882   0.76225   0.00000  Uiso   1.00
C962   C     0.15594   0.72284   0.75895   0.00000  Uiso   1.00
C963   C     0.17685   0.94434   0.74137   0.00000  Uiso   1.00
C964   C     0.18797   0.81237   0.64401   0.00000  Uiso   1.00
C965   C     0.14522   0.85434   0.85619   0.00000  Uiso   1.00
C966   C     0.13520   0.86244   0.89936   0.00000  Uiso   1.00
C967   C     0.19828   0.80425   0.60113   0.00000  Uiso   1.00
C968   C     0.08654   0.88191   0.96319   0.00000  Uiso   1.00
C969   C     0.16691   0.85873   0.91789   0.00000  Uiso   1.00
C970   C     0.15509   0.85784   0.95920   0.00000  Uiso   1.00
C971   C     0.11660   0.87442   0.98159   0.00000  Uiso   1.00
C972   C     0.17944   0.84077   0.97919   0.00000  Uiso   1.00
C973   C     0.16827   0.84651   0.52112   0.00000  Uiso   1.00
C974   C     0.13755   0.87458   0.54122   0.00000  Uiso   1.00
C975   C     0.10937   0.88484   0.52197   0.00000  Uiso   1.00
H976   H     0.08273   0.90241   0.53826   0.00000  Uiso   1.00
H977   H     0.11878   0.80796   0.62393   0.00000  Uiso   1.00
H978   H     0.25065   0.77174   0.62446   0.00000  Uiso   1.00
H979   H     0.11455   0.91281   0.58751   0.00000  Uiso   1.00
H980   H     0.27959   0.77486   0.52174   0.00000  Uiso   1.00
H981   H     0.01648   0.85771   0.71437   0.00000  Uiso   1.00
H982   H     0.20788   0.66942   0.71599   0.00000  Uiso   1.00
H983   H     0.12424   0.99902   0.78450   0.00000  Uiso   1.00
H984   H     0.26365   0.78322   0.96139   0.00000  Uiso   1.00
H985   H     0.05619   0.89289   0.98058   0.00000  Uiso   1.00
H986   H     0.21843   0.80558   0.92780   0.00000  Uiso   1.00
H987   H     0.32911   0.79442   0.80951   0.00000  Uiso   1.00
O988   O     0.16667   0.83333   0.75000   0.00000  Uiso   1.00
O989   O     0.15693   0.79060   0.66625   0.00000  Uiso   1.00
O990   O     0.12687   0.87313   0.83749   0.00000  Uiso   1.00
O991   O     0.21088   0.84159   0.65877   0.00000  Uiso   1.00
O992   O     0.17198   0.82802   0.83749   0.00000  Uiso   1.00
O993   O     0.31216   0.80480   0.79456   0.00000  Uiso   1.00
O994   O     0.12882   0.82239   0.59978   0.00000  Uiso   1.00
O995   O     0.26519   0.77464   0.59632   0.00000  Uiso   1.00
O996   O     0.13734   0.89365   0.57838   0.00000  Uiso   1.00
O997   O     0.17849   0.74768   0.77820   0.00000  Uiso   1.00
O998   O     0.14581   0.92803   0.76767   0.00000  Uiso   1.00
O999   O     0.07452   0.79917   0.73607   0.00000  Uiso   1.00
O1000  O     0.26785   0.85845   0.71805   0.00000  Uiso   1.00
O1001  O     0.06990   0.85627   0.77820   0.00000  Uiso   1.00
O1002  O     0.25440   0.81944   0.76767   0.00000  Uiso   1.00
O1003  O     0.13800   0.73570   0.73607   0.00000  Uiso   1.00
O1004  O     0.20437   0.92193   0.71805   0.00000  Uiso   1.00
Zn1005 Zn    0.19244   0.80756   0.78277   0.00000  Uiso   1.00
Zn1006 Zn    0.13459   0.79044   0.72257   0.00000  Uiso   1.00
Zn1007 Zn    0.21166   0.86331   0.71188   0.00000  Uiso   1.00
Zn1008 Zn    0.12798   0.87202   0.78277   0.00000  Uiso   1.00
Br1009 Br    0.38053   0.87684   0.90155   0.00000  Uiso   1.00
Br1010 Br    0.56032   0.87043   0.88870   0.00000  Uiso   1.00
C1011  C     0.38615   0.82709   0.75832   0.00000  Uiso   1.00
C1012  C     0.54554   0.81537   0.95886   0.00000  Uiso   1.00
C1013  C     0.57050   0.80066   0.97837   0.00000  Uiso   1.00
C1014  C     0.61431   0.84011   0.74134   0.00000  Uiso   1.00
C1015  C     0.55943   0.80532   0.51933   0.00000  Uiso   1.00
C1016  C     0.52224   0.82462   0.54118   0.00000  Uiso   1.00
C1017  C     0.58378   0.78853   0.53852   0.00000  Uiso   1.00
C1018  C     0.57141   0.78952   0.57933   0.00000  Uiso   1.00
C1019  C     0.50521   0.81810   0.58145   0.00000  Uiso   1.00
C1020  C     0.66007   0.84183   0.73802   0.00000  Uiso   1.00
C1021  C     0.34048   0.82417   0.76335   0.00000  Uiso   1.00
C1022  C     0.42758   0.87320   0.92261   0.00000  Uiso   1.00
C1023  C     0.51420   0.98884   0.73815   0.00000  Uiso   1.00
C1024  C     0.48496   0.67882   0.76225   0.00000  Uiso   1.00
C1025  C     0.48927   0.72284   0.75895   0.00000  Uiso   1.00
C1026  C     0.51018   0.94434   0.74137   0.00000  Uiso   1.00
C1027  C     0.52130   0.81237   0.64401   0.00000  Uiso   1.00
C1028  C     0.47855   0.85434   0.85619   0.00000  Uiso   1.00
C1029  C     0.46853   0.86244   0.89936   0.00000  Uiso   1.00
C1030  C     0.53161   0.80425   0.60113   0.00000  Uiso   1.00
C1031  C     0.41988   0.88191   0.96319   0.00000  Uiso   1.00
C1032  C     0.50024   0.85873   0.91789   0.00000  Uiso   1.00
C1033  C     0.48843   0.85784   0.95920   0.00000  Uiso   1.00
C1034  C     0.44993   0.87442   0.98159   0.00000  Uiso   1.00
C1035  C     0.51278   0.84077   0.97919   0.00000  Uiso   1.00
C1036  C     0.50160   0.84651   0.52112   0.00000  Uiso   1.00
C1037  C     0.47089   0.87458   0.54122   0.00000  Uiso   1.00
C1038  C     0.44270   0.88484   0.52197   0.00000  Uiso   1.00
H1039  H     0.41607   0.90241   0.53826   0.00000  Uiso   1.00
H1040  H     0.45211   0.80796   0.62393   0.00000  Uiso   1.00
H1041  H     0.58398   0.77174   0.62446   0.00000  Uiso   1.00
H1042  H     0.44788   0.91281   0.58751   0.00000  Uiso   1.00
H1043  H     0.61292   0.77486   0.52174   0.00000  Uiso   1.00
H1044  H     0.34982   0.85771   0.71437   0.00000  Uiso   1.00
H1045  H     0.54121   0.66942   0.71599   0.00000  Uiso   1.00
H1046  H     0.45758   0.99902   0.78450   0.00000  Uiso   1.00
H1047  H     0.59698   0.78322   0.96139   0.00000  Uiso   1.00
H1048  H     0.38952   0.89289   0.98058   0.00000  Uiso   1.00
H1049  H     0.55176   0.80558   0.92780   0.00000  Uiso   1.00
H1050  H     0.66244   0.79442   0.80951   0.00000  Uiso   1.00
O1051  O     0.50000   0.83333   0.75000   0.00000  Uiso   1.00
O1052  O     0.49027   0.79060   0.66625   0.00000  Uiso   1.00
O1053  O     0.46020   0.87313   0.83749   0.00000  Uiso   1.00
O1054  O     0.54421   0.84159   0.65877   0.00000  Uiso   1.00
O1055  O     0.50532   0.82802   0.83749   0.00000  Uiso   1.00
O1056  O     0.64550   0.80480   0.79456   0.00000  Uiso   1.00
O1057  O     0.46216   0.82239   0.59978   0.00000  Uiso   1.00
O1058  O     0.59852   0.77464   0.59632   0.00000  Uiso   1.00
O1059  O     0.47067   0.89365   0.57838   0.00000  Uiso   1.00
O1060  O     0.51182   0.74768   0.77820   0.00000  Uiso   1.00
O1061  O     0.47914   0.92803   0.76767   0.00000  Uiso   1.00
O1062  O     0.40785   0.79917   0.73607   0.00000  Uiso   1.00
O1063  O     0.60119   0.85845   0.71805   0.00000  Uiso   1.00
O1064  O     0.40323   0.85627   0.77820   0.00000  Uiso   1.00
O1065  O     0.58773   0.81944   0.76767   0.00000  Uiso   1.00
O1066  O     0.47133   0.73570   0.73607   0.00000  Uiso   1.00
O1067  O     0.53771   0.92193   0.71805   0.00000  Uiso   1.00
Zn1068 Zn    0.52577   0.80756   0.78277   0.00000  Uiso   1.00
Zn1069 Zn    0.46792   0.79044   0.72257   0.00000  Uiso   1.00
Zn1070 Zn    0.54500   0.86331   0.71188   0.00000  Uiso   1.00
Zn1071 Zn    0.46131   0.87202   0.78277   0.00000  Uiso   1.00
Br1072 Br    0.71386   0.87684   0.90155   0.00000  Uiso   1.00
Br1073 Br    0.89366   0.87043   0.88870   0.00000  Uiso   1.00
C1074  C     0.71949   0.82709   0.75832   0.00000  Uiso   1.00
C1075  C     0.87887   0.81537   0.95886   0.00000  Uiso   1.00
C1076  C     0.90383   0.80066   0.97837   0.00000  Uiso   1.00
C1077  C     0.94764   0.84011   0.74134   0.00000  Uiso   1.00
C1078  C     0.89276   0.80532   0.51933   0.00000  Uiso   1.00
C1079  C     0.85557   0.82462   0.54118   0.00000  Uiso   1.00
C1080  C     0.91711   0.78853   0.53852   0.00000  Uiso   1.00
C1081  C     0.90474   0.78952   0.57933   0.00000  Uiso   1.00
C1082  C     0.83854   0.81810   0.58145   0.00000  Uiso   1.00
C1083  C     0.99340   0.84183   0.73802   0.00000  Uiso   1.00
C1084  C     0.67381   0.82417   0.76335   0.00000  Uiso   1.00
C1085  C     0.76091   0.87320   0.92261   0.00000  Uiso   1.00
C1086  C     0.84754   0.98884   0.73815   0.00000  Uiso   1.00
C1087  C     0.81829   0.67882   0.76225   0.00000  Uiso   1.00
C1088  C     0.82261   0.72284   0.75895   0.00000  Uiso   1.00
C1089  C     0.84352   0.94434   0.74137   0.00000  Uiso   1.00
C1090  C     0.85463   0.81237   0.64401   0.00000  Uiso   1.00
C1091  C     0.81189   0.85434   0.85619   0.00000  Uiso   1.00
C1092  C     0.80187   0.86244   0.89936   0.00000  Uiso   1.00
C1093  C     0.86495   0.80425   0.60113   0.00000  Uiso   1.00
C1094  C     0.75321   0.88191   0.96319   0.00000  Uiso   1.00
C1095  C     0.83358   0.85873   0.91789   0.00000  Uiso   1.00
C1096  C     0.82176   0.85784   0.95920   0.00000  Uiso   1.00
C1097  C     0.78327   0.87442   0.98159   0.00000  Uiso   1.00
C1098  C     0.84611   0.84077   0.97919   0.00000  Uiso   1.00
C1099  C     0.83493   0.84651   0.52112   0.00000  Uiso   1.00
C1100  C     0.80422   0.87458   0.54122   0.00000  Uiso   1.00
C1101  C     0.77603   0.88484   0.52197   0.00000  Uiso   1.00
H1102  H     0.74940   0.90241   0.53826   0.00000  Uiso   1.00
H1103  H     0.78545   0.80796   0.62393   0.00000  Uiso   1.00
H1104  H     0.91732   0.77174   0.62446   0.00000  Uiso   1.00
H1105  H     0.78122   0.91281   0.58751   0.00000  Uiso   1.00
H1106  H     0.94626   0.77486   0.52174   0.00000  Uiso   1.00
H1107  H     0.68315   0.85771   0.71437   0.00000  Uiso   1.00
H1108  H     0.87455   0.66942   0.71599   0.00000  Uiso   1.00
H1109  H     0.79091   0.99902   0.78450   0.00000  Uiso   1.00
H1110  H     0.93031   0.78322   0.96139   0.00000  Uiso   1.00
H1111  H     0.72285   0.89289   0.98058   0.00000  Uiso   1.00
H1112  H     0.88510   0.80558   0.92780   0.00000  Uiso   1.00
H1113  H     0.99577   0.79442   0.80951   0.00000  Uiso   1.00
O1114  O     0.83333   0.83333   0.75000   0.00000  Uiso   1.00
O1115  O     0.82360   0.79060   0.66625   0.00000  Uiso   1.00
O1116  O     0.79354   0.87313   0.83749   0.00000  Uiso   1.00
O1117  O     0.87755   0.84159   0.65877   0.00000  Uiso   1.00
O1118  O     0.83865   0.82802   0.83749   0.00000  Uiso   1.00
O1119  O     0.97883   0.80480   0.79456   0.00000  Uiso   1.00
O1120  O     0.79549   0.82239   0.59978   0.00000  Uiso   1.00
O1121  O     0.93186   0.77464   0.59632   0.00000  Uiso   1.00
O1122  O     0.80400   0.89365   0.57838   0.00000  Uiso   1.00
O1123  O     0.84515   0.74768   0.77820   0.00000  Uiso   1.00
O1124  O     0.81247   0.92803   0.76767   0.00000  Uiso   1.00
O1125  O     0.74119   0.79917   0.73607   0.00000  Uiso   1.00
O1126  O     0.93452   0.85845   0.71805   0.00000  Uiso   1.00
O1127  O     0.73656   0.85627   0.77820   0.00000  Uiso   1.00
O1128  O     0.92106   0.81944   0.76767   0.00000  Uiso   1.00
O1129  O     0.80467   0.73570   0.73607   0.00000  Uiso   1.00
O1130  O     0.87104   0.92193   0.71805   0.00000  Uiso   1.00
Zn1131 Zn    0.85910   0.80756   0.78277   0.00000  Uiso   1.00
Zn1132 Zn    0.80125   0.79044   0.72257   0.00000  Uiso   1.00
Zn1133 Zn    0.87833   0.86331   0.71188   0.00000  Uiso   1.00
Zn1134 Zn    0.79465   0.87202   0.78277   0.00000  Uiso   1.00
loop_
_geom_bond_atom_site_label_1
_geom_bond_atom_site_label_2
_geom_bond_distance
_geom_bond_site_symmetry_2
_ccdc_geom_bond_type
Br1    C14     1.924   .     S
Br2    C24     1.943   .     S
C3     C13     1.440   .     S
C3     O54     1.270   .     A
C3     O56     1.267   .     A
C4     H41     1.078   .     S
C4     C5      1.386   .     A
C4     C27     1.410   .     A
C5     H39     1.084   .     S
C5     C574    1.393   .     S
C6     O55     1.287   .     A
C6     C12     1.458   .     S
C6     O57     1.272   .     A
C7     C8      1.416   .     A
C7     C9      1.398   .     A
C7     C572    1.393   1_554 S
C8     C11     1.417   .     A
C8     C28     1.429   .     A
C9     C10     1.391   .     A
C9     H35     1.085   .     S
C10    C22     1.417   .     A
C10    O50     1.383   .     S
C11    O49     1.384   .     S
C11    C22     1.414   .     A
C12    C76     1.346   .     S
C12    H99     1.088   .     S
C13    C138    1.346   1_455 S
C13    O174    1.384   1_455 S
C14    C23     1.392   .     A
C14    C21     1.415   .     A
C15    C18     1.451   .     S
C15    C205    1.331   .     S
C15    H226    1.088   .     S
C16    C17     1.435   .     S
C16    C393    1.331   1_545 S
C16    H416    1.086   1_545 S
C17    O58     1.279   .     A
C17    O52     1.279   .     A
C18    O59     1.270   .     A
C18    O53     1.271   .     A
C19    C22     1.463   .     S
C19    O46     1.275   .     A
C19    O44     1.279   .     A
C20    O45     1.279   .     A
C20    O47     1.287   .     A
C20    C21     1.474   .     S
C21    C24     1.410   .     A
C23    C26     1.397   .     A
C23    H40     1.084   .     S
C24    C25     1.415   .     A
C25    C27     1.423   .     A
C25    C26     1.413   .     A
C26    C597    1.392   .     S
C27    C595    1.426   .     S
C28    C29     1.419   .     A
C28    C594    1.426   1_554 S
C29    C30     1.400   .     A
C29    O51     1.383   .     S
C30    H31     1.084   .     S
C30    C593    1.392   1_554 S
H32    O49     0.987   .     S
H33    O50     0.989   .     S
H34    O51     0.992   .     S
H36    C138    1.088   1_455 S
H37    C393    1.088   1_545 S
H38    C205    1.086   .     S
H42    O48     0.992   .     S
O43    Zn63    1.931   .     S
O43    Zn61    1.949   .     S
O43    Zn60    1.961   .     S
O43    Zn62    1.935   .     S
O44    Zn61    1.929   .     S
O45    Zn63    1.941   .     S
O46    Zn62    1.936   .     S
O47    Zn60    1.926   .     S
O48    C76     1.384   .     S
O52    Zn60    1.929   .     S
O53    Zn63    1.931   .     S
O54    Zn61    1.931   .     S
O55    Zn62    1.943   .     S
O56    Zn63    1.940   .     S
O57    Zn60    1.930   .     S
O58    Zn61    1.935   .     S
O59    Zn62    1.929   .     S
Br64   C77     1.924   .     S
Br65   C87     1.943   .     S
C66    C76     1.440   .     S
C66    O117    1.270   .     A
C66    O119    1.267   .     A
C67    H104    1.078   .     S
C67    C68     1.386   .     A
C67    C90     1.410   .     A
C68    H102    1.084   .     S
C68    C637    1.393   .     S
C69    O118    1.287   .     A
C69    C75     1.458   .     S
C69    O120    1.272   .     A
C70    C71     1.416   .     A
C70    C72     1.398   .     A
C70    C635    1.393   1_554 S
C71    C74     1.417   .     A
C71    C91     1.429   .     A
C72    C73     1.391   .     A
C72    H98     1.085   .     S
C73    C85     1.417   .     A
C73    O113    1.383   .     S
C74    O112    1.384   .     S
C74    C85     1.414   .     A
C75    C139    1.346   .     S
C75    H162    1.088   .     S
C77    C86     1.392   .     A
C77    C84     1.415   .     A
C78    C81     1.451   .     S
C78    C268    1.331   .     S
C78    H289    1.088   .     S
C79    C80     1.435   .     S
C79    C456    1.331   1_545 S
C79    H479    1.086   1_545 S
C80    O121    1.279   .     A
C80    O115    1.279   .     A
C81    O122    1.270   .     A
C81    O116    1.271   .     A
C82    C85     1.463   .     S
C82    O109    1.275   .     A
C82    O107    1.279   .     A
C83    O108    1.279   .     A
C83    O110    1.287   .     A
C83    C84     1.474   .     S
C84    C87     1.410   .     A
C86    C89     1.397   .     A
C86    H103    1.084   .     S
C87    C88     1.415   .     A
C88    C90     1.423   .     A
C88    C89     1.413   .     A
C89    C660    1.392   .     S
C90    C658    1.426   .     S
C91    C92     1.419   .     A
C91    C657    1.426   1_554 S
C92    C93     1.400   .     A
C92    O114    1.383   .     S
C93    H94     1.084   .     S
C93    C656    1.392   1_554 S
H95    O112    0.987   .     S
H96    O113    0.989   .     S
H97    O114    0.992   .     S
H100   C456    1.088   1_545 S
H101   C268    1.086   .     S
H105   O111    0.992   .     S
O106   Zn126   1.931   .     S
O106   Zn124   1.949   .     S
O106   Zn123   1.961   .     S
O106   Zn125   1.935   .     S
O107   Zn124   1.929   .     S
O108   Zn126   1.941   .     S
O109   Zn125   1.936   .     S
O110   Zn123   1.926   .     S
O111   C139    1.384   .     S
O115   Zn123   1.929   .     S
O116   Zn126   1.931   .     S
O117   Zn124   1.931   .     S
O118   Zn125   1.943   .     S
O119   Zn126   1.940   .     S
O120   Zn123   1.930   .     S
O121   Zn124   1.935   .     S
O122   Zn125   1.929   .     S
Br127  C140    1.924   .     S
Br128  C150    1.943   .     S
C129   C139    1.440   .     S
C129   O180    1.270   .     A
C129   O182    1.267   .     A
C130   H167    1.078   .     S
C130   C131    1.386   .     A
C130   C153    1.410   .     A
C131   H165    1.084   .     S
C131   C700    1.393   .     S
C132   O181    1.287   .     A
C132   C138    1.458   .     S
C132   O183    1.272   .     A
C133   C134    1.416   .     A
C133   C135    1.398   .     A
C133   C698    1.393   1_554 S
C134   C137    1.417   .     A
C134   C154    1.429   .     A
C135   C136    1.391   .     A
C135   H161    1.085   .     S
C136   C148    1.417   .     A
C136   O176    1.383   .     S
C137   O175    1.384   .     S
C137   C148    1.414   .     A
C138   C13     1.346   1_655 S
C138   H36     1.088   1_655 S
C140   C149    1.392   .     A
C140   C147    1.415   .     A
C141   C144    1.451   .     S
C141   C331    1.331   .     S
C141   H352    1.088   .     S
C142   C143    1.435   .     S
C142   C519    1.331   1_545 S
C142   H542    1.086   1_545 S
C143   O184    1.279   .     A
C143   O178    1.279   .     A
C144   O185    1.270   .     A
C144   O179    1.271   .     A
C145   C148    1.463   .     S
C145   O172    1.275   .     A
C145   O170    1.279   .     A
C146   O171    1.279   .     A
C146   O173    1.287   .     A
C146   C147    1.474   .     S
C147   C150    1.410   .     A
C149   C152    1.397   .     A
C149   H166    1.084   .     S
C150   C151    1.415   .     A
C151   C153    1.423   .     A
C151   C152    1.413   .     A
C152   C723    1.392   .     S
C153   C721    1.426   .     S
C154   C155    1.419   .     A
C154   C720    1.426   1_554 S
C155   C156    1.400   .     A
C155   O177    1.383   .     S
C156   H157    1.084   .     S
C156   C719    1.392   1_554 S
H158   O175    0.987   .     S
H159   O176    0.989   .     S
H160   O177    0.992   .     S
H163   C519    1.088   1_545 S
H164   C331    1.086   .     S
H168   O174    0.992   .     S
O169   Zn189   1.931   .     S
O169   Zn187   1.949   .     S
O169   Zn186   1.961   .     S
O169   Zn188   1.935   .     S
O170   Zn187   1.929   .     S
O171   Zn189   1.941   .     S
O172   Zn188   1.936   .     S
O173   Zn186   1.926   .     S
O174   C13     1.384   1_655 S
O178   Zn186   1.929   .     S
O179   Zn189   1.931   .     S
O180   Zn187   1.931   .     S
O181   Zn188   1.943   .     S
O182   Zn189   1.940   .     S
O183   Zn186   1.930   .     S
O184   Zn187   1.935   .     S
O185   Zn188   1.929   .     S
Br190  C203    1.924   .     S
Br191  C213    1.943   .     S
C192   C202    1.440   .     S
C192   O243    1.270   .     A
C192   O245    1.267   .     A
C193   H230    1.078   .     S
C193   C194    1.386   .     A
C193   C216    1.410   .     A
C194   H228    1.084   .     S
C194   C763    1.393   .     S
C195   O244    1.287   .     A
C195   C201    1.458   .     S
C195   O246    1.272   .     A
C196   C197    1.416   .     A
C196   C198    1.398   .     A
C196   C761    1.393   1_554 S
C197   C200    1.417   .     A
C197   C217    1.429   .     A
C198   C199    1.391   .     A
C198   H224    1.085   .     S
C199   C211    1.417   .     A
C199   O239    1.383   .     S
C200   O238    1.384   .     S
C200   C211    1.414   .     A
C201   C265    1.346   .     S
C201   H288    1.088   .     S
C202   C327    1.346   1_455 S
C202   O363    1.384   1_455 S
C203   C212    1.392   .     A
C203   C210    1.415   .     A
C204   C207    1.451   .     S
C204   C394    1.331   .     S
C204   H415    1.088   .     S
C205   C206    1.435   .     S
C206   O247    1.279   .     A
C206   O241    1.279   .     A
C207   O248    1.270   .     A
C207   O242    1.271   .     A
C208   C211    1.463   .     S
C208   O235    1.275   .     A
C208   O233    1.279   .     A
C209   O234    1.279   .     A
C209   O236    1.287   .     A
C209   C210    1.474   .     S
C210   C213    1.410   .     A
C212   C215    1.397   .     A
C212   H229    1.084   .     S
C213   C214    1.415   .     A
C214   C216    1.423   .     A
C214   C215    1.413   .     A
C215   C786    1.392   .     S
C216   C784    1.426   .     S
C217   C218    1.419   .     A
C217   C783    1.426   1_554 S
C218   C219    1.400   .     A
C218   O240    1.383   .     S
C219   H220    1.084   .     S
C219   C782    1.392   1_554 S
H221   O238    0.987   .     S
H222   O239    0.989   .     S
H223   O240    0.992   .     S
H225   C327    1.088   1_455 S
H227   C394    1.086   .     S
H231   O237    0.992   .     S
O232   Zn252   1.931   .     S
O232   Zn250   1.949   .     S
O232   Zn249   1.961   .     S
O232   Zn251   1.935   .     S
O233   Zn250   1.929   .     S
O234   Zn252   1.941   .     S
O235   Zn251   1.936   .     S
O236   Zn249   1.926   .     S
O237   C265    1.384   .     S
O241   Zn249   1.929   .     S
O242   Zn252   1.931   .     S
O243   Zn250   1.931   .     S
O244   Zn251   1.943   .     S
O245   Zn252   1.940   .     S
O246   Zn249   1.930   .     S
O247   Zn250   1.935   .     S
O248   Zn251   1.929   .     S
Br253  C266    1.924   .     S
Br254  C276    1.943   .     S
C255   C265    1.440   .     S
C255   O306    1.270   .     A
C255   O308    1.267   .     A
C256   H293    1.078   .     S
C256   C257    1.386   .     A
C256   C279    1.410   .     A
C257   H291    1.084   .     S
C257   C826    1.393   .     S
C258   O307    1.287   .     A
C258   C264    1.458   .     S
C258   O309    1.272   .     A
C259   C260    1.416   .     A
C259   C261    1.398   .     A
C259   C824    1.393   1_554 S
C260   C263    1.417   .     A
C260   C280    1.429   .     A
C261   C262    1.391   .     A
C261   H287    1.085   .     S
C262   C274    1.417   .     A
C262   O302    1.383   .     S
C263   O301    1.384   .     S
C263   C274    1.414   .     A
C264   C328    1.346   .     S
C264   H351    1.088   .     S
C266   C275    1.392   .     A
C266   C273    1.415   .     A
C267   C270    1.451   .     S
C267   C457    1.331   .     S
C267   H478    1.088   .     S
C268   C269    1.435   .     S
C269   O310    1.279   .     A
C269   O304    1.279   .     A
C270   O311    1.270   .     A
C270   O305    1.271   .     A
C271   C274    1.463   .     S
C271   O298    1.275   .     A
C271   O296    1.279   .     A
C272   O297    1.279   .     A
C272   O299    1.287   .     A
C272   C273    1.474   .     S
C273   C276    1.410   .     A
C275   C278    1.397   .     A
C275   H292    1.084   .     S
C276   C277    1.415   .     A
C277   C279    1.423   .     A
C277   C278    1.413   .     A
C278   C849    1.392   .     S
C279   C847    1.426   .     S
C280   C281    1.419   .     A
C280   C846    1.426   1_554 S
C281   C282    1.400   .     A
C281   O303    1.383   .     S
C282   H283    1.084   .     S
C282   C845    1.392   1_554 S
H284   O301    0.987   .     S
H285   O302    0.989   .     S
H286   O303    0.992   .     S
H290   C457    1.086   .     S
H294   O300    0.992   .     S
O295   Zn315   1.931   .     S
O295   Zn313   1.949   .     S
O295   Zn312   1.961   .     S
O295   Zn314   1.935   .     S
O296   Zn313   1.929   .     S
O297   Zn315   1.941   .     S
O298   Zn314   1.936   .     S
O299   Zn312   1.926   .     S
O300   C328    1.384   .     S
O304   Zn312   1.929   .     S
O305   Zn315   1.931   .     S
O306   Zn313   1.931   .     S
O307   Zn314   1.943   .     S
O308   Zn315   1.940   .     S
O309   Zn312   1.930   .     S
O310   Zn313   1.935   .     S
O311   Zn314   1.929   .     S
Br316  C329    1.924   .     S
Br317  C339    1.943   .     S
C318   C328    1.440   .     S
C318   O369    1.270   .     A
C318   O371    1.267   .     A
C319   H356    1.078   .     S
C319   C320    1.386   .     A
C319   C342    1.410   .     A
C320   H354    1.084   .     S
C320   C889    1.393   .     S
C321   O370    1.287   .     A
C321   C327    1.458   .     S
C321   O372    1.272   .     A
C322   C323    1.416   .     A
C322   C324    1.398   .     A
C322   C887    1.393   1_554 S
C323   C326    1.417   .     A
C323   C343    1.429   .     A
C324   C325    1.391   .     A
C324   H350    1.085   .     S
C325   C337    1.417   .     A
C325   O365    1.383   .     S
C326   O364    1.384   .     S
C326   C337    1.414   .     A
C327   C202    1.346   1_655 S
C327   H225    1.088   1_655 S
C329   C338    1.392   .     A
C329   C336    1.415   .     A
C330   C333    1.451   .     S
C330   C520    1.331   .     S
C330   H541    1.088   .     S
C331   C332    1.435   .     S
C332   O373    1.279   .     A
C332   O367    1.279   .     A
C333   O374    1.270   .     A
C333   O368    1.271   .     A
C334   C337    1.463   .     S
C334   O361    1.275   .     A
C334   O359    1.279   .     A
C335   O360    1.279   .     A
C335   O362    1.287   .     A
C335   C336    1.474   .     S
C336   C339    1.410   .     A
C338   C341    1.397   .     A
C338   H355    1.084   .     S
C339   C340    1.415   .     A
C340   C342    1.423   .     A
C340   C341    1.413   .     A
C341   C912    1.392   .     S
C342   C910    1.426   .     S
C343   C344    1.419   .     A
C343   C909    1.426   1_554 S
C344   C345    1.400   .     A
C344   O366    1.383   .     S
C345   H346    1.084   .     S
C345   C908    1.392   1_554 S
H347   O364    0.987   .     S
H348   O365    0.989   .     S
H349   O366    0.992   .     S
H353   C520    1.086   .     S
H357   O363    0.992   .     S
O358   Zn378   1.931   .     S
O358   Zn376   1.949   .     S
O358   Zn375   1.961   .     S
O358   Zn377   1.935   .     S
O359   Zn376   1.929   .     S
O360   Zn378   1.941   .     S
O361   Zn377   1.936   .     S
O362   Zn375   1.926   .     S
O363   C202    1.384   1_655 S
O367   Zn375   1.929   .     S
O368   Zn378   1.931   .     S
O369   Zn376   1.931   .     S
O370   Zn377   1.943   .     S
O371   Zn378   1.940   .     S
O372   Zn375   1.930   .     S
O373   Zn376   1.935   .     S
O374   Zn377   1.929   .     S
Br379  C392    1.924   .     S
Br380  C402    1.943   .     S
C381   C391    1.440   .     S
C381   O432    1.270   .     A
C381   O434    1.267   .     A
C382   H419    1.078   .     S
C382   C383    1.386   .     A
C382   C405    1.410   .     A
C383   H417    1.084   .     S
C383   C952    1.393   .     S
C384   O433    1.287   .     A
C384   C390    1.458   .     S
C384   O435    1.272   .     A
C385   C386    1.416   .     A
C385   C387    1.398   .     A
C385   C950    1.393   1_554 S
C386   C389    1.417   .     A
C386   C406    1.429   .     A
C387   C388    1.391   .     A
C387   H413    1.085   .     S
C388   C400    1.417   .     A
C388   O428    1.383   .     S
C389   O427    1.384   .     S
C389   C400    1.414   .     A
C390   C454    1.346   .     S
C390   H477    1.088   .     S
C391   C516    1.346   1_455 S
C391   O552    1.384   1_455 S
C392   C401    1.392   .     A
C392   C399    1.415   .     A
C393   C396    1.451   .     S
C393   C16     1.331   1_565 S
C393   H37     1.088   1_565 S
C394   C395    1.435   .     S
C395   O436    1.279   .     A
C395   O430    1.279   .     A
C396   O437    1.270   .     A
C396   O431    1.271   .     A
C397   C400    1.463   .     S
C397   O424    1.275   .     A
C397   O422    1.279   .     A
C398   O423    1.279   .     A
C398   O425    1.287   .     A
C398   C399    1.474   .     S
C399   C402    1.410   .     A
C401   C404    1.397   .     A
C401   H418    1.084   .     S
C402   C403    1.415   .     A
C403   C405    1.423   .     A
C403   C404    1.413   .     A
C404   C975    1.392   .     S
C405   C973    1.426   .     S
C406   C407    1.419   .     A
C406   C972    1.426   1_554 S
C407   C408    1.400   .     A
C407   O429    1.383   .     S
C408   H409    1.084   .     S
C408   C971    1.392   1_554 S
H410   O427    0.987   .     S
H411   O428    0.989   .     S
H412   O429    0.992   .     S
H414   C516    1.088   1_455 S
H416   C16     1.086   1_565 S
H420   O426    0.992   .     S
O421   Zn441   1.931   .     S
O421   Zn439   1.949   .     S
O421   Zn438   1.961   .     S
O421   Zn440   1.935   .     S
O422   Zn439   1.929   .     S
O423   Zn441   1.941   .     S
O424   Zn440   1.936   .     S
O425   Zn438   1.926   .     S
O426   C454    1.384   .     S
O430   Zn438   1.929   .     S
O431   Zn441   1.931   .     S
O432   Zn439   1.931   .     S
O433   Zn440   1.943   .     S
O434   Zn441   1.940   .     S
O435   Zn438   1.930   .     S
O436   Zn439   1.935   .     S
O437   Zn440   1.929   .     S
Br442  C455    1.924   .     S
Br443  C465    1.943   .     S
C444   C454    1.440   .     S
C444   O495    1.270   .     A
C444   O497    1.267   .     A
C445   H482    1.078   .     S
C445   C446    1.386   .     A
C445   C468    1.410   .     A
C446   H480    1.084   .     S
C446   C1015   1.393   .     S
C447   O496    1.287   .     A
C447   C453    1.458   .     S
C447   O498    1.272   .     A
C448   C449    1.416   .     A
C448   C450    1.398   .     A
C448   C1013   1.393   1_554 S
C449   C452    1.417   .     A
C449   C469    1.429   .     A
C450   C451    1.391   .     A
C450   H476    1.085   .     S
C451   C463    1.417   .     A
C451   O491    1.383   .     S
C452   O490    1.384   .     S
C452   C463    1.414   .     A
C453   C517    1.346   .     S
C453   H540    1.088   .     S
C455   C464    1.392   .     A
C455   C462    1.415   .     A
C456   C459    1.451   .     S
C456   C79     1.331   1_565 S
C456   H100    1.088   1_565 S
C457   C458    1.435   .     S
C458   O499    1.279   .     A
C458   O493    1.279   .     A
C459   O500    1.270   .     A
C459   O494    1.271   .     A
C460   C463    1.463   .     S
C460   O487    1.275   .     A
C460   O485    1.279   .     A
C461   O486    1.279   .     A
C461   O488    1.287   .     A
C461   C462    1.474   .     S
C462   C465    1.410   .     A
C464   C467    1.397   .     A
C464   H481    1.084   .     S
C465   C466    1.415   .     A
C466   C468    1.423   .     A
C466   C467    1.413   .     A
C467   C1038   1.392   .     S
C468   C1036   1.426   .     S
C469   C470    1.419   .     A
C469   C1035   1.426   1_554 S
C470   C471    1.400   .     A
C470   O492    1.383   .     S
C471   H472    1.084   .     S
C471   C1034   1.392   1_554 S
H473   O490    0.987   .     S
H474   O491    0.989   .     S
H475   O492    0.992   .     S
H479   C79     1.086   1_565 S
H483   O489    0.992   .     S
O484   Zn504   1.931   .     S
O484   Zn502   1.949   .     S
O484   Zn501   1.961   .     S
O484   Zn503   1.935   .     S
O485   Zn502   1.929   .     S
O486   Zn504   1.941   .     S
O487   Zn503   1.936   .     S
O488   Zn501   1.926   .     S
O489   C517    1.384   .     S
O493   Zn501   1.929   .     S
O494   Zn504   1.931   .     S
O495   Zn502   1.931   .     S
O496   Zn503   1.943   .     S
O497   Zn504   1.940   .     S
O498   Zn501   1.930   .     S
O499   Zn502   1.935   .     S
O500   Zn503   1.929   .     S
Br505  C518    1.924   .     S
Br506  C528    1.943   .     S
C507   C517    1.440   .     S
C507   O558    1.270   .     A
C507   O560    1.267   .     A
C508   H545    1.078   .     S
C508   C509    1.386   .     A
C508   C531    1.410   .     A
C509   H543    1.084   .     S
C509   C1078   1.393   .     S
C510   O559    1.287   .     A
C510   C516    1.458   .     S
C510   O561    1.272   .     A
C511   C512    1.416   .     A
C511   C513    1.398   .     A
C511   C1076   1.393   1_554 S
C512   C515    1.417   .     A
C512   C532    1.429   .     A
C513   C514    1.391   .     A
C513   H539    1.085   .     S
C514   C526    1.417   .     A
C514   O554    1.383   .     S
C515   O553    1.384   .     S
C515   C526    1.414   .     A
C516   C391    1.346   1_655 S
C516   H414    1.088   1_655 S
C518   C527    1.392   .     A
C518   C525    1.415   .     A
C519   C522    1.451   .     S
C519   C142    1.331   1_565 S
C519   H163    1.088   1_565 S
C520   C521    1.435   .     S
C521   O562    1.279   .     A
C521   O556    1.279   .     A
C522   O563    1.270   .     A
C522   O557    1.271   .     A
C523   C526    1.463   .     S
C523   O550    1.275   .     A
C523   O548    1.279   .     A
C524   O549    1.279   .     A
C524   O551    1.287   .     A
C524   C525    1.474   .     S
C525   C528    1.410   .     A
C527   C530    1.397   .     A
C527   H544    1.084   .     S
C528   C529    1.415   .     A
C529   C531    1.423   .     A
C529   C530    1.413   .     A
C530   C1101   1.392   .     S
C531   C1099   1.426   .     S
C532   C533    1.419   .     A
C532   C1098   1.426   1_554 S
C533   C534    1.400   .     A
C533   O555    1.383   .     S
C534   H535    1.084   .     S
C534   C1097   1.392   1_554 S
H536   O553    0.987   .     S
H537   O554    0.989   .     S
H538   O555    0.992   .     S
H542   C142    1.086   1_565 S
H546   O552    0.992   .     S
O547   Zn567   1.931   .     S
O547   Zn565   1.949   .     S
O547   Zn564   1.961   .     S
O547   Zn566   1.935   .     S
O548   Zn565   1.929   .     S
O549   Zn567   1.941   .     S
O550   Zn566   1.936   .     S
O551   Zn564   1.926   .     S
O552   C391    1.384   1_655 S
O556   Zn564   1.929   .     S
O557   Zn567   1.931   .     S
O558   Zn565   1.931   .     S
O559   Zn566   1.943   .     S
O560   Zn567   1.940   .     S
O561   Zn564   1.930   .     S
O562   Zn565   1.935   .     S
O563   Zn566   1.929   .     S
Br568  C581    1.924   .     S
Br569  C591    1.943   .     S
C570   C580    1.440   .     S
C570   O621    1.270   .     A
C570   O623    1.267   .     A
C571   H608    1.078   .     S
C571   C572    1.386   .     A
C571   C594    1.410   .     A
C572   H606    1.084   .     S
C572   C7      1.393   1_556 S
C573   O622    1.287   .     A
C573   C579    1.458   .     S
C573   O624    1.272   .     A
C574   C575    1.416   .     A
C574   C576    1.398   .     A
C575   C578    1.417   .     A
C575   C595    1.429   .     A
C576   C577    1.391   .     A
C576   H602    1.085   .     S
C577   C589    1.417   .     A
C577   O617    1.383   .     S
C578   O616    1.384   .     S
C578   C589    1.414   .     A
C579   C643    1.346   .     S
C579   H666    1.088   .     S
C580   C705    1.346   1_455 S
C580   O741    1.384   1_455 S
C581   C590    1.392   .     A
C581   C588    1.415   .     A
C582   C585    1.451   .     S
C582   C772    1.331   .     S
C582   H793    1.088   .     S
C583   C584    1.435   .     S
C583   C960    1.331   1_545 S
C583   H983    1.086   1_545 S
C584   O625    1.279   .     A
C584   O619    1.279   .     A
C585   O626    1.270   .     A
C585   O620    1.271   .     A
C586   C589    1.463   .     S
C586   O613    1.275   .     A
C586   O611    1.279   .     A
C587   O612    1.279   .     A
C587   O614    1.287   .     A
C587   C588    1.474   .     S
C588   C591    1.410   .     A
C590   C593    1.397   .     A
C590   H607    1.084   .     S
C591   C592    1.415   .     A
C592   C594    1.423   .     A
C592   C593    1.413   .     A
C593   C30     1.392   1_556 S
C594   C28     1.426   1_556 S
C595   C596    1.419   .     A
C596   C597    1.400   .     A
C596   O618    1.383   .     S
C597   H598    1.084   .     S
H599   O616    0.987   .     S
H600   O617    0.989   .     S
H601   O618    0.992   .     S
H603   C705    1.088   1_455 S
H604   C960    1.088   1_545 S
H605   C772    1.086   .     S
H609   O615    0.992   .     S
O610   Zn630   1.931   .     S
O610   Zn628   1.949   .     S
O610   Zn627   1.961   .     S
O610   Zn629   1.935   .     S
O611   Zn628   1.929   .     S
O612   Zn630   1.941   .     S
O613   Zn629   1.936   .     S
O614   Zn627   1.926   .     S
O615   C643    1.384   .     S
O619   Zn627   1.929   .     S
O620   Zn630   1.931   .     S
O621   Zn628   1.931   .     S
O622   Zn629   1.943   .     S
O623   Zn630   1.940   .     S
O624   Zn627   1.930   .     S
O625   Zn628   1.935   .     S
O626   Zn629   1.929   .     S
Br631  C644    1.924   .     S
Br632  C654    1.943   .     S
C633   C643    1.440   .     S
C633   O684    1.270   .     A
C633   O686    1.267   .     A
C634   H671    1.078   .     S
C634   C635    1.386   .     A
C634   C657    1.410   .     A
C635   H669    1.084   .     S
C635   C70     1.393   1_556 S
C636   O685    1.287   .     A
C636   C642    1.458   .     S
C636   O687    1.272   .     A
C637   C638    1.416   .     A
C637   C639    1.398   .     A
C638   C641    1.417   .     A
C638   C658    1.429   .     A
C639   C640    1.391   .     A
C639   H665    1.085   .     S
C640   C652    1.417   .     A
C640   O680    1.383   .     S
C641   O679    1.384   .     S
C641   C652    1.414   .     A
C642   C706    1.346   .     S
C642   H729    1.088   .     S
C644   C653    1.392   .     A
C644   C651    1.415   .     A
C645   C648    1.451   .     S
C645   C835    1.331   .     S
C645   H856    1.088   .     S
C646   C647    1.435   .     S
C646   C1023   1.331   1_545 S
C646   H1046   1.086   1_545 S
C647   O688    1.279   .     A
C647   O682    1.279   .     A
C648   O689    1.270   .     A
C648   O683    1.271   .     A
C649   C652    1.463   .     S
C649   O676    1.275   .     A
C649   O674    1.279   .     A
C650   O675    1.279   .     A
C650   O677    1.287   .     A
C650   C651    1.474   .     S
C651   C654    1.410   .     A
C653   C656    1.397   .     A
C653   H670    1.084   .     S
C654   C655    1.415   .     A
C655   C657    1.423   .     A
C655   C656    1.413   .     A
C656   C93     1.392   1_556 S
C657   C91     1.426   1_556 S
C658   C659    1.419   .     A
C659   C660    1.400   .     A
C659   O681    1.383   .     S
C660   H661    1.084   .     S
H662   O679    0.987   .     S
H663   O680    0.989   .     S
H664   O681    0.992   .     S
H667   C1023   1.088   1_545 S
H668   C835    1.086   .     S
H672   O678    0.992   .     S
O673   Zn693   1.931   .     S
O673   Zn691   1.949   .     S
O673   Zn690   1.961   .     S
O673   Zn692   1.935   .     S
O674   Zn691   1.929   .     S
O675   Zn693   1.941   .     S
O676   Zn692   1.936   .     S
O677   Zn690   1.926   .     S
O678   C706    1.384   .     S
O682   Zn690   1.929   .     S
O683   Zn693   1.931   .     S
O684   Zn691   1.931   .     S
O685   Zn692   1.943   .     S
O686   Zn693   1.940   .     S
O687   Zn690   1.930   .     S
O688   Zn691   1.935   .     S
O689   Zn692   1.929   .     S
Br694  C707    1.924   .     S
Br695  C717    1.943   .     S
C696   C706    1.440   .     S
C696   O747    1.270   .     A
C696   O749    1.267   .     A
C697   H734    1.078   .     S
C697   C698    1.386   .     A
C697   C720    1.410   .     A
C698   H732    1.084   .     S
C698   C133    1.393   1_556 S
C699   O748    1.287   .     A
C699   C705    1.458   .     S
C699   O750    1.272   .     A
C700   C701    1.416   .     A
C700   C702    1.398   .     A
C701   C704    1.417   .     A
C701   C721    1.429   .     A
C702   C703    1.391   .     A
C702   H728    1.085   .     S
C703   C715    1.417   .     A
C703   O743    1.383   .     S
C704   O742    1.384   .     S
C704   C715    1.414   .     A
C705   C580    1.346   1_655 S
C705   H603    1.088   1_655 S
C707   C716    1.392   .     A
C707   C714    1.415   .     A
C708   C711    1.451   .     S
C708   C898    1.331   .     S
C708   H919    1.088   .     S
C709   C710    1.435   .     S
C709   C1086   1.331   1_545 S
C709   H1109   1.086   1_545 S
C710   O751    1.279   .     A
C710   O745    1.279   .     A
C711   O752    1.270   .     A
C711   O746    1.271   .     A
C712   C715    1.463   .     S
C712   O739    1.275   .     A
C712   O737    1.279   .     A
C713   O738    1.279   .     A
C713   O740    1.287   .     A
C713   C714    1.474   .     S
C714   C717    1.410   .     A
C716   C719    1.397   .     A
C716   H733    1.084   .     S
C717   C718    1.415   .     A
C718   C720    1.423   .     A
C718   C719    1.413   .     A
C719   C156    1.392   1_556 S
C720   C154    1.426   1_556 S
C721   C722    1.419   .     A
C722   C723    1.400   .     A
C722   O744    1.383   .     S
C723   H724    1.084   .     S
H725   O742    0.987   .     S
H726   O743    0.989   .     S
H727   O744    0.992   .     S
H730   C1086   1.088   1_545 S
H731   C898    1.086   .     S
H735   O741    0.992   .     S
O736   Zn756   1.931   .     S
O736   Zn754   1.949   .     S
O736   Zn753   1.961   .     S
O736   Zn755   1.935   .     S
O737   Zn754   1.929   .     S
O738   Zn756   1.941   .     S
O739   Zn755   1.936   .     S
O740   Zn753   1.926   .     S
O741   C580    1.384   1_655 S
O745   Zn753   1.929   .     S
O746   Zn756   1.931   .     S
O747   Zn754   1.931   .     S
O748   Zn755   1.943   .     S
O749   Zn756   1.940   .     S
O750   Zn753   1.930   .     S
O751   Zn754   1.935   .     S
O752   Zn755   1.929   .     S
Br757  C770    1.924   .     S
Br758  C780    1.943   .     S
C759   C769    1.440   .     S
C759   O810    1.270   .     A
C759   O812    1.267   .     A
C760   H797    1.078   .     S
C760   C761    1.386   .     A
C760   C783    1.410   .     A
C761   H795    1.084   .     S
C761   C196    1.393   1_556 S
C762   O811    1.287   .     A
C762   C768    1.458   .     S
C762   O813    1.272   .     A
C763   C764    1.416   .     A
C763   C765    1.398   .     A
C764   C767    1.417   .     A
C764   C784    1.429   .     A
C765   C766    1.391   .     A
C765   H791    1.085   .     S
C766   C778    1.417   .     A
C766   O806    1.383   .     S
C767   O805    1.384   .     S
C767   C778    1.414   .     A
C768   C832    1.346   .     S
C768   H855    1.088   .     S
C769   C894    1.346   1_455 S
C769   O930    1.384   1_455 S
C770   C779    1.392   .     A
C770   C777    1.415   .     A
C771   C774    1.451   .     S
C771   C961    1.331   .     S
C771   H982    1.088   .     S
C772   C773    1.435   .     S
C773   O814    1.279   .     A
C773   O808    1.279   .     A
C774   O815    1.270   .     A
C774   O809    1.271   .     A
C775   C778    1.463   .     S
C775   O802    1.275   .     A
C775   O800    1.279   .     A
C776   O801    1.279   .     A
C776   O803    1.287   .     A
C776   C777    1.474   .     S
C777   C780    1.410   .     A
C779   C782    1.397   .     A
C779   H796    1.084   .     S
C780   C781    1.415   .     A
C781   C783    1.423   .     A
C781   C782    1.413   .     A
C782   C219    1.392   1_556 S
C783   C217    1.426   1_556 S
C784   C785    1.419   .     A
C785   C786    1.400   .     A
C785   O807    1.383   .     S
C786   H787    1.084   .     S
H788   O805    0.987   .     S
H789   O806    0.989   .     S
H790   O807    0.992   .     S
H792   C894    1.088   1_455 S
H794   C961    1.086   .     S
H798   O804    0.992   .     S
O799   Zn819   1.931   .     S
O799   Zn817   1.949   .     S
O799   Zn816   1.961   .     S
O799   Zn818   1.935   .     S
O800   Zn817   1.929   .     S
O801   Zn819   1.941   .     S
O802   Zn818   1.936   .     S
O803   Zn816   1.926   .     S
O804   C832    1.384   .     S
O808   Zn816   1.929   .     S
O809   Zn819   1.931   .     S
O810   Zn817   1.931   .     S
O811   Zn818   1.943   .     S
O812   Zn819   1.940   .     S
O813   Zn816   1.930   .     S
O814   Zn817   1.935   .     S
O815   Zn818   1.929   .     S
Br820  C833    1.924   .     S
Br821  C843    1.943   .     S
C822   C832    1.440   .     S
C822   O873    1.270   .     A
C822   O875    1.267   .     A
C823   H860    1.078   .     S
C823   C824    1.386   .     A
C823   C846    1.410   .     A
C824   H858    1.084   .     S
C824   C259    1.393   1_556 S
C825   O874    1.287   .     A
C825   C831    1.458   .     S
C825   O876    1.272   .     A
C826   C827    1.416   .     A
C826   C828    1.398   .     A
C827   C830    1.417   .     A
C827   C847    1.429   .     A
C828   C829    1.391   .     A
C828   H854    1.085   .     S
C829   C841    1.417   .     A
C829   O869    1.383   .     S
C830   O868    1.384   .     S
C830   C841    1.414   .     A
C831   C895    1.346   .     S
C831   H918    1.088   .     S
C833   C842    1.392   .     A
C833   C840    1.415   .     A
C834   C837    1.451   .     S
C834   C1024   1.331   .     S
C834   H1045   1.088   .     S
C835   C836    1.435   .     S
C836   O877    1.279   .     A
C836   O871    1.279   .     A
C837   O878    1.270   .     A
C837   O872    1.271   .     A
C838   C841    1.463   .     S
C838   O865    1.275   .     A
C838   O863    1.279   .     A
C839   O864    1.279   .     A
C839   O866    1.287   .     A
C839   C840    1.474   .     S
C840   C843    1.410   .     A
C842   C845    1.397   .     A
C842   H859    1.084   .     S
C843   C844    1.415   .     A
C844   C846    1.423   .     A
C844   C845    1.413   .     A
C845   C282    1.392   1_556 S
C846   C280    1.426   1_556 S
C847   C848    1.419   .     A
C848   C849    1.400   .     A
C848   O870    1.383   .     S
C849   H850    1.084   .     S
H851   O868    0.987   .     S
H852   O869    0.989   .     S
H853   O870    0.992   .     S
H857   C1024   1.086   .     S
H861   O867    0.992   .     S
O862   Zn882   1.931   .     S
O862   Zn880   1.949   .     S
O862   Zn879   1.961   .     S
O862   Zn881   1.935   .     S
O863   Zn880   1.929   .     S
O864   Zn882   1.941   .     S
O865   Zn881   1.936   .     S
O866   Zn879   1.926   .     S
O867   C895    1.384   .     S
O871   Zn879   1.929   .     S
O872   Zn882   1.931   .     S
O873   Zn880   1.931   .     S
O874   Zn881   1.943   .     S
O875   Zn882   1.940   .     S
O876   Zn879   1.930   .     S
O877   Zn880   1.935   .     S
O878   Zn881   1.929   .     S
Br883  C896    1.924   .     S
Br884  C906    1.943   .     S
C885   C895    1.440   .     S
C885   O936    1.270   .     A
C885   O938    1.267   .     A
C886   H923    1.078   .     S
C886   C887    1.386   .     A
C886   C909    1.410   .     A
C887   H921    1.084   .     S
C887   C322    1.393   1_556 S
C888   O937    1.287   .     A
C888   C894    1.458   .     S
C888   O939    1.272   .     A
C889   C890    1.416   .     A
C889   C891    1.398   .     A
C890   C893    1.417   .     A
C890   C910    1.429   .     A
C891   C892    1.391   .     A
C891   H917    1.085   .     S
C892   C904    1.417   .     A
C892   O932    1.383   .     S
C893   O931    1.384   .     S
C893   C904    1.414   .     A
C894   C769    1.346   1_655 S
C894   H792    1.088   1_655 S
C896   C905    1.392   .     A
C896   C903    1.415   .     A
C897   C900    1.451   .     S
C897   C1087   1.331   .     S
C897   H1108   1.088   .     S
C898   C899    1.435   .     S
C899   O940    1.279   .     A
C899   O934    1.279   .     A
C900   O941    1.270   .     A
C900   O935    1.271   .     A
C901   C904    1.463   .     S
C901   O928    1.275   .     A
C901   O926    1.279   .     A
C902   O927    1.279   .     A
C902   O929    1.287   .     A
C902   C903    1.474   .     S
C903   C906    1.410   .     A
C905   C908    1.397   .     A
C905   H922    1.084   .     S
C906   C907    1.415   .     A
C907   C909    1.423   .     A
C907   C908    1.413   .     A
C908   C345    1.392   1_556 S
C909   C343    1.426   1_556 S
C910   C911    1.419   .     A
C911   C912    1.400   .     A
C911   O933    1.383   .     S
C912   H913    1.084   .     S
H914   O931    0.987   .     S
H915   O932    0.989   .     S
H916   O933    0.992   .     S
H920   C1087   1.086   .     S
H924   O930    0.992   .     S
O925   Zn945   1.931   .     S
O925   Zn943   1.949   .     S
O925   Zn942   1.961   .     S
O925   Zn944   1.935   .     S
O926   Zn943   1.929   .     S
O927   Zn945   1.941   .     S
O928   Zn944   1.936   .     S
O929   Zn942   1.926   .     S
O930   C769    1.384   1_655 S
O934   Zn942   1.929   .     S
O935   Zn945   1.931   .     S
O936   Zn943   1.931   .     S
O937   Zn944   1.943   .     S
O938   Zn945   1.940   .     S
O939   Zn942   1.930   .     S
O940   Zn943   1.935   .     S
O941   Zn944   1.929   .     S
Br946  C959    1.924   .     S
Br947  C969    1.943   .     S
C948   C958    1.440   .     S
C948   O999    1.270   .     A
C948   O1001   1.267   .     A
C949   H986    1.078   .     S
C949   C950    1.386   .     A
C949   C972    1.410   .     A
C950   H984    1.084   .     S
C950   C385    1.393   1_556 S
C951   O1000   1.287   .     A
C951   C957    1.458   .     S
C951   O1002   1.272   .     A
C952   C953    1.416   .     A
C952   C954    1.398   .     A
C953   C956    1.417   .     A
C953   C973    1.429   .     A
C954   C955    1.391   .     A
C954   H980    1.085   .     S
C955   C967    1.417   .     A
C955   O995    1.383   .     S
C956   O994    1.384   .     S
C956   C967    1.414   .     A
C957   C1021   1.346   .     S
C957   H1044   1.088   .     S
C958   C1083   1.346   1_455 S
C958   O1119   1.384   1_455 S
C959   C968    1.392   .     A
C959   C966    1.415   .     A
C960   C963    1.451   .     S
C960   C583    1.331   1_565 S
C960   H604    1.088   1_565 S
C961   C962    1.435   .     S
C962   O1003   1.279   .     A
C962   O997    1.279   .     A
C963   O1004   1.270   .     A
C963   O998    1.271   .     A
C964   C967    1.463   .     S
C964   O991    1.275   .     A
C964   O989    1.279   .     A
C965   O990    1.279   .     A
C965   O992    1.287   .     A
C965   C966    1.474   .     S
C966   C969    1.410   .     A
C968   C971    1.397   .     A
C968   H985    1.084   .     S
C969   C970    1.415   .     A
C970   C972    1.423   .     A
C970   C971    1.413   .     A
C971   C408    1.392   1_556 S
C972   C406    1.426   1_556 S
C973   C974    1.419   .     A
C974   C975    1.400   .     A
C974   O996    1.383   .     S
C975   H976    1.084   .     S
H977   O994    0.987   .     S
H978   O995    0.989   .     S
H979   O996    0.992   .     S
H981   C1083   1.088   1_455 S
H983   C583    1.086   1_565 S
H987   O993    0.992   .     S
O988   Zn1008  1.931   .     S
O988   Zn1006  1.949   .     S
O988   Zn1005  1.961   .     S
O988   Zn1007  1.935   .     S
O989   Zn1006  1.929   .     S
O990   Zn1008  1.941   .     S
O991   Zn1007  1.936   .     S
O992   Zn1005  1.926   .     S
O993   C1021   1.384   .     S
O997   Zn1005  1.929   .     S
O998   Zn1008  1.931   .     S
O999   Zn1006  1.931   .     S
O1000  Zn1007  1.943   .     S
O1001  Zn1008  1.940   .     S
O1002  Zn1005  1.930   .     S
O1003  Zn1006  1.935   .     S
O1004  Zn1007  1.929   .     S
Br1009 C1022   1.924   .     S
Br1010 C1032   1.943   .     S
C1011  C1021   1.440   .     S
C1011  O1062   1.270   .     A
C1011  O1064   1.267   .     A
C1012  H1049   1.078   .     S
C1012  C1013   1.386   .     A
C1012  C1035   1.410   .     A
C1013  H1047   1.084   .     S
C1013  C448    1.393   1_556 S
C1014  O1063   1.287   .     A
C1014  C1020   1.458   .     S
C1014  O1065   1.272   .     A
C1015  C1016   1.416   .     A
C1015  C1017   1.398   .     A
C1016  C1019   1.417   .     A
C1016  C1036   1.429   .     A
C1017  C1018   1.391   .     A
C1017  H1043   1.085   .     S
C1018  C1030   1.417   .     A
C1018  O1058   1.383   .     S
C1019  O1057   1.384   .     S
C1019  C1030   1.414   .     A
C1020  C1084   1.346   .     S
C1020  H1107   1.088   .     S
C1022  C1031   1.392   .     A
C1022  C1029   1.415   .     A
C1023  C1026   1.451   .     S
C1023  C646    1.331   1_565 S
C1023  H667    1.088   1_565 S
C1024  C1025   1.435   .     S
C1025  O1066   1.279   .     A
C1025  O1060   1.279   .     A
C1026  O1067   1.270   .     A
C1026  O1061   1.271   .     A
C1027  C1030   1.463   .     S
C1027  O1054   1.275   .     A
C1027  O1052   1.279   .     A
C1028  O1053   1.279   .     A
C1028  O1055   1.287   .     A
C1028  C1029   1.474   .     S
C1029  C1032   1.410   .     A
C1031  C1034   1.397   .     A
C1031  H1048   1.084   .     S
C1032  C1033   1.415   .     A
C1033  C1035   1.423   .     A
C1033  C1034   1.413   .     A
C1034  C471    1.392   1_556 S
C1035  C469    1.426   1_556 S
C1036  C1037   1.419   .     A
C1037  C1038   1.400   .     A
C1037  O1059   1.383   .     S
C1038  H1039   1.084   .     S
H1040  O1057   0.987   .     S
H1041  O1058   0.989   .     S
H1042  O1059   0.992   .     S
H1046  C646    1.086   1_565 S
H1050  O1056   0.992   .     S
O1051  Zn1071  1.931   .     S
O1051  Zn1069  1.949   .     S
O1051  Zn1068  1.961   .     S
O1051  Zn1070  1.935   .     S
O1052  Zn1069  1.929   .     S
O1053  Zn1071  1.941   .     S
O1054  Zn1070  1.936   .     S
O1055  Zn1068  1.926   .     S
O1056  C1084   1.384   .     S
O1060  Zn1068  1.929   .     S
O1061  Zn1071  1.931   .     S
O1062  Zn1069  1.931   .     S
O1063  Zn1070  1.943   .     S
O1064  Zn1071  1.940   .     S
O1065  Zn1068  1.930   .     S
O1066  Zn1069  1.935   .     S
O1067  Zn1070  1.929   .     S
Br1072 C1085   1.924   .     S
Br1073 C1095   1.943   .     S
C1074  C1084   1.440   .     S
C1074  O1125   1.270   .     A
C1074  O1127   1.267   .     A
C1075  H1112   1.078   .     S
C1075  C1076   1.386   .     A
C1075  C1098   1.410   .     A
C1076  H1110   1.084   .     S
C1076  C511    1.393   1_556 S
C1077  O1126   1.287   .     A
C1077  C1083   1.458   .     S
C1077  O1128   1.272   .     A
C1078  C1079   1.416   .     A
C1078  C1080   1.398   .     A
C1079  C1082   1.417   .     A
C1079  C1099   1.429   .     A
C1080  C1081   1.391   .     A
C1080  H1106   1.085   .     S
C1081  C1093   1.417   .     A
C1081  O1121   1.383   .     S
C1082  O1120   1.384   .     S
C1082  C1093   1.414   .     A
C1083  C958    1.346   1_655 S
C1083  H981    1.088   1_655 S
C1085  C1094   1.392   .     A
C1085  C1092   1.415   .     A
C1086  C1089   1.451   .     S
C1086  C709    1.331   1_565 S
C1086  H730    1.088   1_565 S
C1087  C1088   1.435   .     S
C1088  O1129   1.279   .     A
C1088  O1123   1.279   .     A
C1089  O1130   1.270   .     A
C1089  O1124   1.271   .     A
C1090  C1093   1.463   .     S
C1090  O1117   1.275   .     A
C1090  O1115   1.279   .     A
C1091  O1116   1.279   .     A
C1091  O1118   1.287   .     A
C1091  C1092   1.474   .     S
C1092  C1095   1.410   .     A
C1094  C1097   1.397   .     A
C1094  H1111   1.084   .     S
C1095  C1096   1.415   .     A
C1096  C1098   1.423   .     A
C1096  C1097   1.413   .     A
C1097  C534    1.392   1_556 S
C1098  C532    1.426   1_556 S
C1099  C1100   1.419   .     A
C1100  C1101   1.400   .     A
C1100  O1122   1.383   .     S
C1101  H1102   1.084   .     S
H1103  O1120   0.987   .     S
H1104  O1121   0.989   .     S
H1105  O1122   0.992   .     S
H1109  C709    1.086   1_565 S
H1113  O1119   0.992   .     S
O1114  Zn1134  1.931   .     S
O1114  Zn1132  1.949   .     S
O1114  Zn1131  1.961   .     S
O1114  Zn1133  1.935   .     S
O1115  Zn1132  1.929   .     S
O1116  Zn1134  1.941   .     S
O1117  Zn1133  1.936   .     S
O1118  Zn1131  1.926   .     S
O1119  C958    1.384   1_655 S
O1123  Zn1131  1.929   .     S
O1124  Zn1134  1.931   .     S
O1125  Zn1132  1.931   .     S
O1126  Zn1133  1.943   .     S
O1127  Zn1134  1.940   .     S
O1128  Zn1131  1.930   .     S
O1129  Zn1132  1.935   .     S
O1130  Zn1133  1.929   .     S
