data_str_m2_o1_o16_pcu_sym.62
_audit_creation_date              2020-01-03
_audit_creation_method            'Materials Studio'
_symmetry_space_group_name_H-M    'P1'
_symmetry_Int_Tables_number       1
_symmetry_cell_setting            triclinic
loop_
_symmetry_equiv_pos_as_xyz
  x,y,z
_cell_length_a                    28.7899
_cell_length_b                    32.5738
_cell_length_c                    26.9147
_cell_angle_alpha                 92.2683
_cell_angle_beta                  73.0509
_cell_angle_gamma                 90.3793
loop_
_atom_site_label
_atom_site_type_symbol
_atom_site_fract_x
_atom_site_fract_y
_atom_site_fract_z
_atom_site_U_iso_or_equiv
_atom_site_adp_type
_atom_site_occupancy
C1     C     0.16724   0.24594   0.24928   0.00000  Uiso   1.00
C2     C     0.12690   0.14907   0.40471   0.00000  Uiso   1.00
C3     C     0.21192   0.31312   0.24222   0.00000  Uiso   1.00
C4     C     0.14107   0.16064   0.34899   0.00000  Uiso   1.00
C5     C     0.21011   0.02220   0.24406   0.00000  Uiso   1.00
C6     C     0.16645   0.04297   0.25010   0.00000  Uiso   1.00
C7     C     0.12353   0.02102   0.25546   0.00000  Uiso   1.00
C8     C     0.12441   0.31183   0.25504   0.00000  Uiso   1.00
C9     C     0.16832   0.29069   0.24859   0.00000  Uiso   1.00
C10    C     0.29971   0.19182   0.28370   0.00000  Uiso   1.00
C11    C     0.01579   0.19200   0.28348   0.00000  Uiso   1.00
C12    C     0.14675   0.15329   0.48765   0.00000  Uiso   1.00
C13    C     0.03343   0.14043   0.21658   0.00000  Uiso   1.00
C14    C     0.31735   0.14088   0.21627   0.00000  Uiso   1.00
C15    C     0.16645   0.08750   0.25017   0.00000  Uiso   1.00
C16    C     0.19263   0.16876   0.15022   0.00000  Uiso   1.00
C17    C     0.26566   0.18087   0.00945   0.00000  Uiso   1.00
C18    C     0.20704   0.17145   0.09329   0.00000  Uiso   1.00
C19    C     0.07796   0.14033   0.43201   0.00000  Uiso   1.00
C20    C     0.06376   0.14051   0.48628   0.00000  Uiso   1.00
C21    C     0.09682   0.14937   0.01376   0.00000  Uiso   1.00
C22    C     0.06631   0.10936   0.17956   0.00000  Uiso   1.00
C23    C     0.16203   0.14872   0.43264   0.00000  Uiso   1.00
C24    C     0.04068   0.12914   0.40464   0.00000  Uiso   1.00
C25    C     0.18239   0.16147   0.01402   0.00000  Uiso   1.00
C26    C     0.23107   0.16838   0.48478   0.00000  Uiso   1.00
C27    C     0.24548   0.15915   0.43165   0.00000  Uiso   1.00
C28    C     0.21221   0.14370   0.40780   0.00000  Uiso   1.00
C29    C     0.17171   0.16189   0.06818   0.00000  Uiso   1.00
C30    C     0.25377   0.18358   0.06352   0.00000  Uiso   1.00
Cu31   Cu    0.11978   0.16666   0.25000   0.00000  Uiso   1.00
Cu32   Cu    0.21355   0.16667   0.25000   0.00000  Uiso   1.00
H33    H     0.24346   0.03891   0.24017   0.00000  Uiso   1.00
H34    H     0.02628   0.13500   0.00782   0.00000  Uiso   1.00
H35    H     0.10425   0.10867   0.17811   0.00000  Uiso   1.00
H36    H     0.05266   0.07790   0.18968   0.00000  Uiso   1.00
H37    H     0.06653   0.11504   0.13915   0.00000  Uiso   1.00
H38    H     0.00751   0.11613   0.43163   0.00000  Uiso   1.00
H39    H     0.03018   0.15693   0.38803   0.00000  Uiso   1.00
H40    H     0.05560   0.10540   0.37334   0.00000  Uiso   1.00
H41    H     0.08927   0.03661   0.26035   0.00000  Uiso   1.00
H42    H     0.09051   0.29558   0.25994   0.00000  Uiso   1.00
H43    H     0.27405   0.21205   0.31094   0.00000  Uiso   1.00
H44    H     0.02703   0.21245   0.31042   0.00000  Uiso   1.00
H45    H     0.28327   0.15912   0.40988   0.00000  Uiso   1.00
H46    H     0.30223   0.18818   0.48659   0.00000  Uiso   1.00
H47    H     0.13630   0.15321   0.09158   0.00000  Uiso   1.00
H48    H     0.08204   0.15236   0.05537   0.00000  Uiso   1.00
I49    I     0.30794   0.20874   0.09506   0.00000  Uiso   1.00
I50    I     0.29738   0.09950   0.16118   0.00000  Uiso   1.00
I51    I     0.23967   0.09484   0.35233   0.00000  Uiso   1.00
I52    I     0.28367   0.28897   0.22721   0.00000  Uiso   1.00
N53    N     0.04931   0.16666   0.24998   0.00000  Uiso   1.00
N54    N     0.28402   0.16669   0.25000   0.00000  Uiso   1.00
O55    O     0.12708   0.22678   0.25000   0.00000  Uiso   1.00
O56    O     0.20627   0.22679   0.25000   0.00000  Uiso   1.00
O57    O     0.10775   0.16665   0.32549   0.00000  Uiso   1.00
O58    O     0.18694   0.16666   0.32549   0.00000  Uiso   1.00
O59    O     0.12706   0.10654   0.25000   0.00000  Uiso   1.00
O60    O     0.20625   0.10655   0.25000   0.00000  Uiso   1.00
O61    O     0.14640   0.16667   0.17451   0.00000  Uiso   1.00
O62    O     0.22559   0.16668   0.17451   0.00000  Uiso   1.00
C63    C     0.50057   0.24594   0.24928   0.00000  Uiso   1.00
C64    C     0.46023   0.14907   0.40471   0.00000  Uiso   1.00
C65    C     0.54526   0.31312   0.24222   0.00000  Uiso   1.00
C66    C     0.47441   0.16064   0.34899   0.00000  Uiso   1.00
C67    C     0.54344   0.02220   0.24406   0.00000  Uiso   1.00
C68    C     0.49979   0.04297   0.25010   0.00000  Uiso   1.00
C69    C     0.45686   0.02102   0.25546   0.00000  Uiso   1.00
C70    C     0.45775   0.31183   0.25504   0.00000  Uiso   1.00
C71    C     0.50166   0.29069   0.24859   0.00000  Uiso   1.00
C72    C     0.63304   0.19182   0.28370   0.00000  Uiso   1.00
C73    C     0.34912   0.19200   0.28348   0.00000  Uiso   1.00
C74    C     0.48009   0.15329   0.48765   0.00000  Uiso   1.00
C75    C     0.36676   0.14043   0.21658   0.00000  Uiso   1.00
C76    C     0.65069   0.14088   0.21627   0.00000  Uiso   1.00
C77    C     0.49978   0.08750   0.25017   0.00000  Uiso   1.00
C78    C     0.52596   0.16876   0.15022   0.00000  Uiso   1.00
C79    C     0.59900   0.18087   0.00945   0.00000  Uiso   1.00
C80    C     0.54037   0.17145   0.09329   0.00000  Uiso   1.00
C81    C     0.41129   0.14033   0.43201   0.00000  Uiso   1.00
C82    C     0.39709   0.14051   0.48628   0.00000  Uiso   1.00
C83    C     0.43015   0.14937   0.01376   0.00000  Uiso   1.00
C84    C     0.39965   0.10936   0.17956   0.00000  Uiso   1.00
C85    C     0.49536   0.14872   0.43264   0.00000  Uiso   1.00
C86    C     0.37402   0.12914   0.40464   0.00000  Uiso   1.00
C87    C     0.51572   0.16147   0.01402   0.00000  Uiso   1.00
C88    C     0.56440   0.16838   0.48478   0.00000  Uiso   1.00
C89    C     0.57881   0.15915   0.43165   0.00000  Uiso   1.00
C90    C     0.54555   0.14370   0.40780   0.00000  Uiso   1.00
C91    C     0.50504   0.16189   0.06818   0.00000  Uiso   1.00
C92    C     0.58710   0.18358   0.06352   0.00000  Uiso   1.00
Cu93   Cu    0.45311   0.16666   0.25000   0.00000  Uiso   1.00
Cu94   Cu    0.54689   0.16667   0.25000   0.00000  Uiso   1.00
H95    H     0.57679   0.03891   0.24017   0.00000  Uiso   1.00
H96    H     0.35961   0.13500   0.00782   0.00000  Uiso   1.00
H97    H     0.43758   0.10867   0.17811   0.00000  Uiso   1.00
H98    H     0.38599   0.07790   0.18968   0.00000  Uiso   1.00
H99    H     0.39986   0.11504   0.13915   0.00000  Uiso   1.00
H100   H     0.34085   0.11613   0.43163   0.00000  Uiso   1.00
H101   H     0.36351   0.15693   0.38803   0.00000  Uiso   1.00
H102   H     0.38894   0.10540   0.37334   0.00000  Uiso   1.00
H103   H     0.42260   0.03661   0.26035   0.00000  Uiso   1.00
H104   H     0.42385   0.29558   0.25994   0.00000  Uiso   1.00
H105   H     0.60738   0.21205   0.31094   0.00000  Uiso   1.00
H106   H     0.36037   0.21245   0.31042   0.00000  Uiso   1.00
H107   H     0.61661   0.15912   0.40988   0.00000  Uiso   1.00
H108   H     0.63557   0.18818   0.48659   0.00000  Uiso   1.00
H109   H     0.46963   0.15321   0.09158   0.00000  Uiso   1.00
H110   H     0.41537   0.15236   0.05537   0.00000  Uiso   1.00
I111   I     0.64128   0.20874   0.09506   0.00000  Uiso   1.00
I112   I     0.63072   0.09950   0.16118   0.00000  Uiso   1.00
I113   I     0.57300   0.09484   0.35233   0.00000  Uiso   1.00
I114   I     0.61700   0.28897   0.22721   0.00000  Uiso   1.00
N115   N     0.38265   0.16666   0.24998   0.00000  Uiso   1.00
N116   N     0.61735   0.16669   0.25000   0.00000  Uiso   1.00
O117   O     0.46042   0.22678   0.25000   0.00000  Uiso   1.00
O118   O     0.53961   0.22679   0.25000   0.00000  Uiso   1.00
O119   O     0.44108   0.16665   0.32549   0.00000  Uiso   1.00
O120   O     0.52027   0.16666   0.32549   0.00000  Uiso   1.00
O121   O     0.46039   0.10654   0.25000   0.00000  Uiso   1.00
O122   O     0.53958   0.10655   0.25000   0.00000  Uiso   1.00
O123   O     0.47973   0.16667   0.17451   0.00000  Uiso   1.00
O124   O     0.55892   0.16668   0.17451   0.00000  Uiso   1.00
C125   C     0.83390   0.24594   0.24928   0.00000  Uiso   1.00
C126   C     0.79356   0.14907   0.40471   0.00000  Uiso   1.00
C127   C     0.87859   0.31312   0.24222   0.00000  Uiso   1.00
C128   C     0.80774   0.16064   0.34899   0.00000  Uiso   1.00
C129   C     0.87677   0.02220   0.24406   0.00000  Uiso   1.00
C130   C     0.83312   0.04297   0.25010   0.00000  Uiso   1.00
C131   C     0.79019   0.02102   0.25546   0.00000  Uiso   1.00
C132   C     0.79108   0.31183   0.25504   0.00000  Uiso   1.00
C133   C     0.83499   0.29069   0.24859   0.00000  Uiso   1.00
C134   C     0.96638   0.19182   0.28370   0.00000  Uiso   1.00
C135   C     0.68245   0.19200   0.28348   0.00000  Uiso   1.00
C136   C     0.81342   0.15329   0.48765   0.00000  Uiso   1.00
C137   C     0.70009   0.14043   0.21658   0.00000  Uiso   1.00
C138   C     0.98402   0.14088   0.21627   0.00000  Uiso   1.00
C139   C     0.83312   0.08750   0.25017   0.00000  Uiso   1.00
C140   C     0.85929   0.16876   0.15022   0.00000  Uiso   1.00
C141   C     0.93233   0.18087   0.00945   0.00000  Uiso   1.00
C142   C     0.87371   0.17145   0.09329   0.00000  Uiso   1.00
C143   C     0.74462   0.14033   0.43201   0.00000  Uiso   1.00
C144   C     0.73042   0.14051   0.48628   0.00000  Uiso   1.00
C145   C     0.76349   0.14937   0.01376   0.00000  Uiso   1.00
C146   C     0.73298   0.10936   0.17956   0.00000  Uiso   1.00
C147   C     0.82870   0.14872   0.43264   0.00000  Uiso   1.00
C148   C     0.70735   0.12914   0.40464   0.00000  Uiso   1.00
C149   C     0.84906   0.16147   0.01402   0.00000  Uiso   1.00
C150   C     0.89773   0.16838   0.48478   0.00000  Uiso   1.00
C151   C     0.91215   0.15915   0.43165   0.00000  Uiso   1.00
C152   C     0.87888   0.14370   0.40780   0.00000  Uiso   1.00
C153   C     0.83837   0.16189   0.06818   0.00000  Uiso   1.00
C154   C     0.92043   0.18358   0.06352   0.00000  Uiso   1.00
Cu155  Cu    0.78645   0.16666   0.25000   0.00000  Uiso   1.00
Cu156  Cu    0.88022   0.16667   0.25000   0.00000  Uiso   1.00
H157   H     0.91013   0.03891   0.24017   0.00000  Uiso   1.00
H158   H     0.69295   0.13500   0.00782   0.00000  Uiso   1.00
H159   H     0.77092   0.10867   0.17811   0.00000  Uiso   1.00
H160   H     0.71932   0.07790   0.18968   0.00000  Uiso   1.00
H161   H     0.73319   0.11504   0.13915   0.00000  Uiso   1.00
H162   H     0.67418   0.11613   0.43163   0.00000  Uiso   1.00
H163   H     0.69685   0.15693   0.38803   0.00000  Uiso   1.00
H164   H     0.72227   0.10540   0.37334   0.00000  Uiso   1.00
H165   H     0.75593   0.03661   0.26035   0.00000  Uiso   1.00
H166   H     0.75718   0.29558   0.25994   0.00000  Uiso   1.00
H167   H     0.94071   0.21205   0.31094   0.00000  Uiso   1.00
H168   H     0.69370   0.21245   0.31042   0.00000  Uiso   1.00
H169   H     0.94994   0.15912   0.40988   0.00000  Uiso   1.00
H170   H     0.96890   0.18818   0.48659   0.00000  Uiso   1.00
H171   H     0.80296   0.15321   0.09158   0.00000  Uiso   1.00
H172   H     0.74871   0.15236   0.05537   0.00000  Uiso   1.00
I173   I     0.97461   0.20874   0.09506   0.00000  Uiso   1.00
I174   I     0.96405   0.09950   0.16118   0.00000  Uiso   1.00
I175   I     0.90633   0.09484   0.35233   0.00000  Uiso   1.00
I176   I     0.95034   0.28897   0.22721   0.00000  Uiso   1.00
N177   N     0.71598   0.16666   0.24998   0.00000  Uiso   1.00
N178   N     0.95069   0.16669   0.25000   0.00000  Uiso   1.00
O179   O     0.79375   0.22678   0.25000   0.00000  Uiso   1.00
O180   O     0.87294   0.22679   0.25000   0.00000  Uiso   1.00
O181   O     0.77441   0.16665   0.32549   0.00000  Uiso   1.00
O182   O     0.85360   0.16666   0.32549   0.00000  Uiso   1.00
O183   O     0.79373   0.10654   0.25000   0.00000  Uiso   1.00
O184   O     0.87292   0.10655   0.25000   0.00000  Uiso   1.00
O185   O     0.81306   0.16667   0.17451   0.00000  Uiso   1.00
O186   O     0.89225   0.16668   0.17451   0.00000  Uiso   1.00
C187   C     0.16724   0.57927   0.24928   0.00000  Uiso   1.00
C188   C     0.12690   0.48240   0.40471   0.00000  Uiso   1.00
C189   C     0.21192   0.64646   0.24222   0.00000  Uiso   1.00
C190   C     0.14107   0.49397   0.34899   0.00000  Uiso   1.00
C191   C     0.21011   0.35553   0.24406   0.00000  Uiso   1.00
C192   C     0.16645   0.37630   0.25010   0.00000  Uiso   1.00
C193   C     0.12353   0.35435   0.25546   0.00000  Uiso   1.00
C194   C     0.12441   0.64516   0.25504   0.00000  Uiso   1.00
C195   C     0.16832   0.62402   0.24859   0.00000  Uiso   1.00
C196   C     0.29971   0.52515   0.28370   0.00000  Uiso   1.00
C197   C     0.01579   0.52533   0.28348   0.00000  Uiso   1.00
C198   C     0.14675   0.48662   0.48765   0.00000  Uiso   1.00
C199   C     0.03343   0.47376   0.21658   0.00000  Uiso   1.00
C200   C     0.31735   0.47421   0.21627   0.00000  Uiso   1.00
C201   C     0.16645   0.42083   0.25017   0.00000  Uiso   1.00
C202   C     0.19263   0.50209   0.15022   0.00000  Uiso   1.00
C203   C     0.26566   0.51421   0.00945   0.00000  Uiso   1.00
C204   C     0.20704   0.50478   0.09329   0.00000  Uiso   1.00
C205   C     0.07796   0.47367   0.43201   0.00000  Uiso   1.00
C206   C     0.06376   0.47384   0.48628   0.00000  Uiso   1.00
C207   C     0.09682   0.48271   0.01376   0.00000  Uiso   1.00
C208   C     0.06631   0.44270   0.17956   0.00000  Uiso   1.00
C209   C     0.16203   0.48205   0.43264   0.00000  Uiso   1.00
C210   C     0.04068   0.46247   0.40464   0.00000  Uiso   1.00
C211   C     0.18239   0.49480   0.01402   0.00000  Uiso   1.00
C212   C     0.23107   0.50171   0.48478   0.00000  Uiso   1.00
C213   C     0.24548   0.49248   0.43165   0.00000  Uiso   1.00
C214   C     0.21221   0.47703   0.40780   0.00000  Uiso   1.00
C215   C     0.17171   0.49522   0.06818   0.00000  Uiso   1.00
C216   C     0.25377   0.51691   0.06352   0.00000  Uiso   1.00
Cu217  Cu    0.11978   0.49999   0.25000   0.00000  Uiso   1.00
Cu218  Cu    0.21355   0.50001   0.25000   0.00000  Uiso   1.00
H219   H     0.24346   0.37224   0.24017   0.00000  Uiso   1.00
H220   H     0.02628   0.46833   0.00782   0.00000  Uiso   1.00
H221   H     0.10425   0.44201   0.17811   0.00000  Uiso   1.00
H222   H     0.05266   0.41123   0.18968   0.00000  Uiso   1.00
H223   H     0.06653   0.44837   0.13915   0.00000  Uiso   1.00
H224   H     0.00751   0.44947   0.43163   0.00000  Uiso   1.00
H225   H     0.03018   0.49027   0.38803   0.00000  Uiso   1.00
H226   H     0.05560   0.43873   0.37334   0.00000  Uiso   1.00
H227   H     0.08927   0.36994   0.26035   0.00000  Uiso   1.00
H228   H     0.09051   0.62892   0.25994   0.00000  Uiso   1.00
H229   H     0.27405   0.54538   0.31094   0.00000  Uiso   1.00
H230   H     0.02703   0.54578   0.31042   0.00000  Uiso   1.00
H231   H     0.28327   0.49246   0.40988   0.00000  Uiso   1.00
H232   H     0.30223   0.52151   0.48659   0.00000  Uiso   1.00
H233   H     0.13630   0.48655   0.09158   0.00000  Uiso   1.00
H234   H     0.08204   0.48569   0.05537   0.00000  Uiso   1.00
I235   I     0.30794   0.54207   0.09506   0.00000  Uiso   1.00
I236   I     0.29738   0.43283   0.16118   0.00000  Uiso   1.00
I237   I     0.23967   0.42817   0.35233   0.00000  Uiso   1.00
I238   I     0.28367   0.62230   0.22721   0.00000  Uiso   1.00
N239   N     0.04931   0.49999   0.24998   0.00000  Uiso   1.00
N240   N     0.28402   0.50002   0.25000   0.00000  Uiso   1.00
O241   O     0.12708   0.56011   0.25000   0.00000  Uiso   1.00
O242   O     0.20627   0.56012   0.25000   0.00000  Uiso   1.00
O243   O     0.10775   0.49998   0.32549   0.00000  Uiso   1.00
O244   O     0.18694   0.49999   0.32549   0.00000  Uiso   1.00
O245   O     0.12706   0.43988   0.25000   0.00000  Uiso   1.00
O246   O     0.20625   0.43989   0.25000   0.00000  Uiso   1.00
O247   O     0.14640   0.50001   0.17451   0.00000  Uiso   1.00
O248   O     0.22559   0.50002   0.17451   0.00000  Uiso   1.00
C249   C     0.50057   0.57927   0.24928   0.00000  Uiso   1.00
C250   C     0.46023   0.48240   0.40471   0.00000  Uiso   1.00
C251   C     0.54526   0.64646   0.24222   0.00000  Uiso   1.00
C252   C     0.47441   0.49397   0.34899   0.00000  Uiso   1.00
C253   C     0.54344   0.35553   0.24406   0.00000  Uiso   1.00
C254   C     0.49979   0.37630   0.25010   0.00000  Uiso   1.00
C255   C     0.45686   0.35435   0.25546   0.00000  Uiso   1.00
C256   C     0.45775   0.64516   0.25504   0.00000  Uiso   1.00
C257   C     0.50166   0.62402   0.24859   0.00000  Uiso   1.00
C258   C     0.63304   0.52515   0.28370   0.00000  Uiso   1.00
C259   C     0.34912   0.52533   0.28348   0.00000  Uiso   1.00
C260   C     0.48009   0.48662   0.48765   0.00000  Uiso   1.00
C261   C     0.36676   0.47376   0.21658   0.00000  Uiso   1.00
C262   C     0.65069   0.47421   0.21627   0.00000  Uiso   1.00
C263   C     0.49978   0.42083   0.25017   0.00000  Uiso   1.00
C264   C     0.52596   0.50209   0.15022   0.00000  Uiso   1.00
C265   C     0.59900   0.51421   0.00945   0.00000  Uiso   1.00
C266   C     0.54037   0.50478   0.09329   0.00000  Uiso   1.00
C267   C     0.41129   0.47367   0.43201   0.00000  Uiso   1.00
C268   C     0.39709   0.47384   0.48628   0.00000  Uiso   1.00
C269   C     0.43015   0.48271   0.01376   0.00000  Uiso   1.00
C270   C     0.39965   0.44270   0.17956   0.00000  Uiso   1.00
C271   C     0.49536   0.48205   0.43264   0.00000  Uiso   1.00
C272   C     0.37402   0.46247   0.40464   0.00000  Uiso   1.00
C273   C     0.51572   0.49480   0.01402   0.00000  Uiso   1.00
C274   C     0.56440   0.50171   0.48478   0.00000  Uiso   1.00
C275   C     0.57881   0.49248   0.43165   0.00000  Uiso   1.00
C276   C     0.54555   0.47703   0.40780   0.00000  Uiso   1.00
C277   C     0.50504   0.49522   0.06818   0.00000  Uiso   1.00
C278   C     0.58710   0.51691   0.06352   0.00000  Uiso   1.00
Cu279  Cu    0.45311   0.49999   0.25000   0.00000  Uiso   1.00
Cu280  Cu    0.54689   0.50001   0.25000   0.00000  Uiso   1.00
H281   H     0.57679   0.37224   0.24017   0.00000  Uiso   1.00
H282   H     0.35961   0.46833   0.00782   0.00000  Uiso   1.00
H283   H     0.43758   0.44201   0.17811   0.00000  Uiso   1.00
H284   H     0.38599   0.41123   0.18968   0.00000  Uiso   1.00
H285   H     0.39986   0.44837   0.13915   0.00000  Uiso   1.00
H286   H     0.34085   0.44947   0.43163   0.00000  Uiso   1.00
H287   H     0.36351   0.49027   0.38803   0.00000  Uiso   1.00
H288   H     0.38894   0.43873   0.37334   0.00000  Uiso   1.00
H289   H     0.42260   0.36994   0.26035   0.00000  Uiso   1.00
H290   H     0.42385   0.62892   0.25994   0.00000  Uiso   1.00
H291   H     0.60738   0.54538   0.31094   0.00000  Uiso   1.00
H292   H     0.36037   0.54578   0.31042   0.00000  Uiso   1.00
H293   H     0.61661   0.49246   0.40988   0.00000  Uiso   1.00
H294   H     0.63557   0.52151   0.48659   0.00000  Uiso   1.00
H295   H     0.46963   0.48655   0.09158   0.00000  Uiso   1.00
H296   H     0.41537   0.48569   0.05537   0.00000  Uiso   1.00
I297   I     0.64128   0.54207   0.09506   0.00000  Uiso   1.00
I298   I     0.63072   0.43283   0.16118   0.00000  Uiso   1.00
I299   I     0.57300   0.42817   0.35233   0.00000  Uiso   1.00
I300   I     0.61700   0.62230   0.22721   0.00000  Uiso   1.00
N301   N     0.38265   0.49999   0.24998   0.00000  Uiso   1.00
N302   N     0.61735   0.50002   0.25000   0.00000  Uiso   1.00
O303   O     0.46042   0.56011   0.25000   0.00000  Uiso   1.00
O304   O     0.53961   0.56012   0.25000   0.00000  Uiso   1.00
O305   O     0.44108   0.49998   0.32549   0.00000  Uiso   1.00
O306   O     0.52027   0.49999   0.32549   0.00000  Uiso   1.00
O307   O     0.46039   0.43988   0.25000   0.00000  Uiso   1.00
O308   O     0.53958   0.43989   0.25000   0.00000  Uiso   1.00
O309   O     0.47973   0.50001   0.17451   0.00000  Uiso   1.00
O310   O     0.55892   0.50002   0.17451   0.00000  Uiso   1.00
C311   C     0.83390   0.57927   0.24928   0.00000  Uiso   1.00
C312   C     0.79356   0.48240   0.40471   0.00000  Uiso   1.00
C313   C     0.87859   0.64646   0.24222   0.00000  Uiso   1.00
C314   C     0.80774   0.49397   0.34899   0.00000  Uiso   1.00
C315   C     0.87677   0.35553   0.24406   0.00000  Uiso   1.00
C316   C     0.83312   0.37630   0.25010   0.00000  Uiso   1.00
C317   C     0.79019   0.35435   0.25546   0.00000  Uiso   1.00
C318   C     0.79108   0.64516   0.25504   0.00000  Uiso   1.00
C319   C     0.83499   0.62402   0.24859   0.00000  Uiso   1.00
C320   C     0.96638   0.52515   0.28370   0.00000  Uiso   1.00
C321   C     0.68245   0.52533   0.28348   0.00000  Uiso   1.00
C322   C     0.81342   0.48662   0.48765   0.00000  Uiso   1.00
C323   C     0.70009   0.47376   0.21658   0.00000  Uiso   1.00
C324   C     0.98402   0.47421   0.21627   0.00000  Uiso   1.00
C325   C     0.83312   0.42083   0.25017   0.00000  Uiso   1.00
C326   C     0.85929   0.50209   0.15022   0.00000  Uiso   1.00
C327   C     0.93233   0.51421   0.00945   0.00000  Uiso   1.00
C328   C     0.87371   0.50478   0.09329   0.00000  Uiso   1.00
C329   C     0.74462   0.47367   0.43201   0.00000  Uiso   1.00
C330   C     0.73042   0.47384   0.48628   0.00000  Uiso   1.00
C331   C     0.76349   0.48271   0.01376   0.00000  Uiso   1.00
C332   C     0.73298   0.44270   0.17956   0.00000  Uiso   1.00
C333   C     0.82870   0.48205   0.43264   0.00000  Uiso   1.00
C334   C     0.70735   0.46247   0.40464   0.00000  Uiso   1.00
C335   C     0.84906   0.49480   0.01402   0.00000  Uiso   1.00
C336   C     0.89773   0.50171   0.48478   0.00000  Uiso   1.00
C337   C     0.91215   0.49248   0.43165   0.00000  Uiso   1.00
C338   C     0.87888   0.47703   0.40780   0.00000  Uiso   1.00
C339   C     0.83837   0.49522   0.06818   0.00000  Uiso   1.00
C340   C     0.92043   0.51691   0.06352   0.00000  Uiso   1.00
Cu341  Cu    0.78645   0.49999   0.25000   0.00000  Uiso   1.00
Cu342  Cu    0.88022   0.50001   0.25000   0.00000  Uiso   1.00
H343   H     0.91013   0.37224   0.24017   0.00000  Uiso   1.00
H344   H     0.69295   0.46833   0.00782   0.00000  Uiso   1.00
H345   H     0.77092   0.44201   0.17811   0.00000  Uiso   1.00
H346   H     0.71932   0.41123   0.18968   0.00000  Uiso   1.00
H347   H     0.73319   0.44837   0.13915   0.00000  Uiso   1.00
H348   H     0.67418   0.44947   0.43163   0.00000  Uiso   1.00
H349   H     0.69685   0.49027   0.38803   0.00000  Uiso   1.00
H350   H     0.72227   0.43873   0.37334   0.00000  Uiso   1.00
H351   H     0.75593   0.36994   0.26035   0.00000  Uiso   1.00
H352   H     0.75718   0.62892   0.25994   0.00000  Uiso   1.00
H353   H     0.94071   0.54538   0.31094   0.00000  Uiso   1.00
H354   H     0.69370   0.54578   0.31042   0.00000  Uiso   1.00
H355   H     0.94994   0.49246   0.40988   0.00000  Uiso   1.00
H356   H     0.96890   0.52151   0.48659   0.00000  Uiso   1.00
H357   H     0.80296   0.48655   0.09158   0.00000  Uiso   1.00
H358   H     0.74871   0.48569   0.05537   0.00000  Uiso   1.00
I359   I     0.97461   0.54207   0.09506   0.00000  Uiso   1.00
I360   I     0.96405   0.43283   0.16118   0.00000  Uiso   1.00
I361   I     0.90633   0.42817   0.35233   0.00000  Uiso   1.00
I362   I     0.95034   0.62230   0.22721   0.00000  Uiso   1.00
N363   N     0.71598   0.49999   0.24998   0.00000  Uiso   1.00
N364   N     0.95069   0.50002   0.25000   0.00000  Uiso   1.00
O365   O     0.79375   0.56011   0.25000   0.00000  Uiso   1.00
O366   O     0.87294   0.56012   0.25000   0.00000  Uiso   1.00
O367   O     0.77441   0.49998   0.32549   0.00000  Uiso   1.00
O368   O     0.85360   0.49999   0.32549   0.00000  Uiso   1.00
O369   O     0.79373   0.43988   0.25000   0.00000  Uiso   1.00
O370   O     0.87292   0.43989   0.25000   0.00000  Uiso   1.00
O371   O     0.81306   0.50001   0.17451   0.00000  Uiso   1.00
O372   O     0.89225   0.50002   0.17451   0.00000  Uiso   1.00
C373   C     0.16724   0.91260   0.24928   0.00000  Uiso   1.00
C374   C     0.12690   0.81573   0.40471   0.00000  Uiso   1.00
C375   C     0.21192   0.97979   0.24222   0.00000  Uiso   1.00
C376   C     0.14107   0.82730   0.34899   0.00000  Uiso   1.00
C377   C     0.21011   0.68886   0.24406   0.00000  Uiso   1.00
C378   C     0.16645   0.70964   0.25010   0.00000  Uiso   1.00
C379   C     0.12353   0.68768   0.25546   0.00000  Uiso   1.00
C380   C     0.12441   0.97850   0.25504   0.00000  Uiso   1.00
C381   C     0.16832   0.95735   0.24859   0.00000  Uiso   1.00
C382   C     0.29971   0.85849   0.28370   0.00000  Uiso   1.00
C383   C     0.01579   0.85867   0.28348   0.00000  Uiso   1.00
C384   C     0.14675   0.81995   0.48765   0.00000  Uiso   1.00
C385   C     0.03343   0.80709   0.21658   0.00000  Uiso   1.00
C386   C     0.31735   0.80754   0.21627   0.00000  Uiso   1.00
C387   C     0.16645   0.75416   0.25017   0.00000  Uiso   1.00
C388   C     0.19263   0.83542   0.15022   0.00000  Uiso   1.00
C389   C     0.26566   0.84754   0.00945   0.00000  Uiso   1.00
C390   C     0.20704   0.83812   0.09329   0.00000  Uiso   1.00
C391   C     0.07796   0.80700   0.43201   0.00000  Uiso   1.00
C392   C     0.06376   0.80717   0.48628   0.00000  Uiso   1.00
C393   C     0.09682   0.81604   0.01376   0.00000  Uiso   1.00
C394   C     0.06631   0.77603   0.17956   0.00000  Uiso   1.00
C395   C     0.16203   0.81538   0.43264   0.00000  Uiso   1.00
C396   C     0.04068   0.79581   0.40464   0.00000  Uiso   1.00
C397   C     0.18239   0.82813   0.01402   0.00000  Uiso   1.00
C398   C     0.23107   0.83504   0.48478   0.00000  Uiso   1.00
C399   C     0.24548   0.82582   0.43165   0.00000  Uiso   1.00
C400   C     0.21221   0.81037   0.40780   0.00000  Uiso   1.00
C401   C     0.17171   0.82855   0.06818   0.00000  Uiso   1.00
C402   C     0.25377   0.85024   0.06352   0.00000  Uiso   1.00
Cu403  Cu    0.11978   0.83333   0.25000   0.00000  Uiso   1.00
Cu404  Cu    0.21355   0.83334   0.25000   0.00000  Uiso   1.00
H405   H     0.24346   0.70558   0.24017   0.00000  Uiso   1.00
H406   H     0.02628   0.80167   0.00782   0.00000  Uiso   1.00
H407   H     0.10425   0.77534   0.17811   0.00000  Uiso   1.00
H408   H     0.05266   0.74457   0.18968   0.00000  Uiso   1.00
H409   H     0.06653   0.78171   0.13915   0.00000  Uiso   1.00
H410   H     0.00751   0.78280   0.43163   0.00000  Uiso   1.00
H411   H     0.03018   0.82360   0.38803   0.00000  Uiso   1.00
H412   H     0.05560   0.77207   0.37334   0.00000  Uiso   1.00
H413   H     0.08927   0.70327   0.26035   0.00000  Uiso   1.00
H414   H     0.09051   0.96225   0.25994   0.00000  Uiso   1.00
H415   H     0.27405   0.87872   0.31094   0.00000  Uiso   1.00
H416   H     0.02703   0.87912   0.31042   0.00000  Uiso   1.00
H417   H     0.28327   0.82579   0.40988   0.00000  Uiso   1.00
H418   H     0.30223   0.85485   0.48659   0.00000  Uiso   1.00
H419   H     0.13630   0.81988   0.09158   0.00000  Uiso   1.00
H420   H     0.08204   0.81903   0.05537   0.00000  Uiso   1.00
I421   I     0.30794   0.87541   0.09506   0.00000  Uiso   1.00
I422   I     0.29738   0.76616   0.16118   0.00000  Uiso   1.00
I423   I     0.23967   0.76150   0.35233   0.00000  Uiso   1.00
I424   I     0.28367   0.95563   0.22721   0.00000  Uiso   1.00
N425   N     0.04931   0.83332   0.24998   0.00000  Uiso   1.00
N426   N     0.28402   0.83335   0.25000   0.00000  Uiso   1.00
O427   O     0.12708   0.89345   0.25000   0.00000  Uiso   1.00
O428   O     0.20627   0.89346   0.25000   0.00000  Uiso   1.00
O429   O     0.10775   0.83332   0.32549   0.00000  Uiso   1.00
O430   O     0.18694   0.83333   0.32549   0.00000  Uiso   1.00
O431   O     0.12706   0.77321   0.25000   0.00000  Uiso   1.00
O432   O     0.20625   0.77322   0.25000   0.00000  Uiso   1.00
O433   O     0.14640   0.83334   0.17451   0.00000  Uiso   1.00
O434   O     0.22559   0.83335   0.17451   0.00000  Uiso   1.00
C435   C     0.50057   0.91260   0.24928   0.00000  Uiso   1.00
C436   C     0.46023   0.81573   0.40471   0.00000  Uiso   1.00
C437   C     0.54526   0.97979   0.24222   0.00000  Uiso   1.00
C438   C     0.47441   0.82730   0.34899   0.00000  Uiso   1.00
C439   C     0.54344   0.68886   0.24406   0.00000  Uiso   1.00
C440   C     0.49979   0.70964   0.25010   0.00000  Uiso   1.00
C441   C     0.45686   0.68768   0.25546   0.00000  Uiso   1.00
C442   C     0.45775   0.97850   0.25504   0.00000  Uiso   1.00
C443   C     0.50166   0.95735   0.24859   0.00000  Uiso   1.00
C444   C     0.63304   0.85849   0.28370   0.00000  Uiso   1.00
C445   C     0.34912   0.85867   0.28348   0.00000  Uiso   1.00
C446   C     0.48009   0.81995   0.48765   0.00000  Uiso   1.00
C447   C     0.36676   0.80709   0.21658   0.00000  Uiso   1.00
C448   C     0.65069   0.80754   0.21627   0.00000  Uiso   1.00
C449   C     0.49978   0.75416   0.25017   0.00000  Uiso   1.00
C450   C     0.52596   0.83542   0.15022   0.00000  Uiso   1.00
C451   C     0.59900   0.84754   0.00945   0.00000  Uiso   1.00
C452   C     0.54037   0.83812   0.09329   0.00000  Uiso   1.00
C453   C     0.41129   0.80700   0.43201   0.00000  Uiso   1.00
C454   C     0.39709   0.80717   0.48628   0.00000  Uiso   1.00
C455   C     0.43015   0.81604   0.01376   0.00000  Uiso   1.00
C456   C     0.39965   0.77603   0.17956   0.00000  Uiso   1.00
C457   C     0.49536   0.81538   0.43264   0.00000  Uiso   1.00
C458   C     0.37402   0.79581   0.40464   0.00000  Uiso   1.00
C459   C     0.51572   0.82813   0.01402   0.00000  Uiso   1.00
C460   C     0.56440   0.83504   0.48478   0.00000  Uiso   1.00
C461   C     0.57881   0.82582   0.43165   0.00000  Uiso   1.00
C462   C     0.54555   0.81037   0.40780   0.00000  Uiso   1.00
C463   C     0.50504   0.82855   0.06818   0.00000  Uiso   1.00
C464   C     0.58710   0.85024   0.06352   0.00000  Uiso   1.00
Cu465  Cu    0.45311   0.83333   0.25000   0.00000  Uiso   1.00
Cu466  Cu    0.54689   0.83334   0.25000   0.00000  Uiso   1.00
H467   H     0.57679   0.70558   0.24017   0.00000  Uiso   1.00
H468   H     0.35961   0.80167   0.00782   0.00000  Uiso   1.00
H469   H     0.43758   0.77534   0.17811   0.00000  Uiso   1.00
H470   H     0.38599   0.74457   0.18968   0.00000  Uiso   1.00
H471   H     0.39986   0.78171   0.13915   0.00000  Uiso   1.00
H472   H     0.34085   0.78280   0.43163   0.00000  Uiso   1.00
H473   H     0.36351   0.82360   0.38803   0.00000  Uiso   1.00
H474   H     0.38894   0.77207   0.37334   0.00000  Uiso   1.00
H475   H     0.42260   0.70327   0.26035   0.00000  Uiso   1.00
H476   H     0.42385   0.96225   0.25994   0.00000  Uiso   1.00
H477   H     0.60738   0.87872   0.31094   0.00000  Uiso   1.00
H478   H     0.36037   0.87912   0.31042   0.00000  Uiso   1.00
H479   H     0.61661   0.82579   0.40988   0.00000  Uiso   1.00
H480   H     0.63557   0.85485   0.48659   0.00000  Uiso   1.00
H481   H     0.46963   0.81988   0.09158   0.00000  Uiso   1.00
H482   H     0.41537   0.81903   0.05537   0.00000  Uiso   1.00
I483   I     0.64128   0.87541   0.09506   0.00000  Uiso   1.00
I484   I     0.63072   0.76616   0.16118   0.00000  Uiso   1.00
I485   I     0.57300   0.76150   0.35233   0.00000  Uiso   1.00
I486   I     0.61700   0.95563   0.22721   0.00000  Uiso   1.00
N487   N     0.38265   0.83332   0.24998   0.00000  Uiso   1.00
N488   N     0.61735   0.83335   0.25000   0.00000  Uiso   1.00
O489   O     0.46042   0.89345   0.25000   0.00000  Uiso   1.00
O490   O     0.53961   0.89346   0.25000   0.00000  Uiso   1.00
O491   O     0.44108   0.83332   0.32549   0.00000  Uiso   1.00
O492   O     0.52027   0.83333   0.32549   0.00000  Uiso   1.00
O493   O     0.46039   0.77321   0.25000   0.00000  Uiso   1.00
O494   O     0.53958   0.77322   0.25000   0.00000  Uiso   1.00
O495   O     0.47973   0.83334   0.17451   0.00000  Uiso   1.00
O496   O     0.55892   0.83335   0.17451   0.00000  Uiso   1.00
C497   C     0.83390   0.91260   0.24928   0.00000  Uiso   1.00
C498   C     0.79356   0.81573   0.40471   0.00000  Uiso   1.00
C499   C     0.87859   0.97979   0.24222   0.00000  Uiso   1.00
C500   C     0.80774   0.82730   0.34899   0.00000  Uiso   1.00
C501   C     0.87677   0.68886   0.24406   0.00000  Uiso   1.00
C502   C     0.83312   0.70964   0.25010   0.00000  Uiso   1.00
C503   C     0.79019   0.68768   0.25546   0.00000  Uiso   1.00
C504   C     0.79108   0.97850   0.25504   0.00000  Uiso   1.00
C505   C     0.83499   0.95735   0.24859   0.00000  Uiso   1.00
C506   C     0.96638   0.85849   0.28370   0.00000  Uiso   1.00
C507   C     0.68245   0.85867   0.28348   0.00000  Uiso   1.00
C508   C     0.81342   0.81995   0.48765   0.00000  Uiso   1.00
C509   C     0.70009   0.80709   0.21658   0.00000  Uiso   1.00
C510   C     0.98402   0.80754   0.21627   0.00000  Uiso   1.00
C511   C     0.83312   0.75416   0.25017   0.00000  Uiso   1.00
C512   C     0.85929   0.83542   0.15022   0.00000  Uiso   1.00
C513   C     0.93233   0.84754   0.00945   0.00000  Uiso   1.00
C514   C     0.87371   0.83812   0.09329   0.00000  Uiso   1.00
C515   C     0.74462   0.80700   0.43201   0.00000  Uiso   1.00
C516   C     0.73042   0.80717   0.48628   0.00000  Uiso   1.00
C517   C     0.76349   0.81604   0.01376   0.00000  Uiso   1.00
C518   C     0.73298   0.77603   0.17956   0.00000  Uiso   1.00
C519   C     0.82870   0.81538   0.43264   0.00000  Uiso   1.00
C520   C     0.70735   0.79581   0.40464   0.00000  Uiso   1.00
C521   C     0.84906   0.82813   0.01402   0.00000  Uiso   1.00
C522   C     0.89773   0.83504   0.48478   0.00000  Uiso   1.00
C523   C     0.91215   0.82582   0.43165   0.00000  Uiso   1.00
C524   C     0.87888   0.81037   0.40780   0.00000  Uiso   1.00
C525   C     0.83837   0.82855   0.06818   0.00000  Uiso   1.00
C526   C     0.92043   0.85024   0.06352   0.00000  Uiso   1.00
Cu527  Cu    0.78645   0.83333   0.25000   0.00000  Uiso   1.00
Cu528  Cu    0.88022   0.83334   0.25000   0.00000  Uiso   1.00
H529   H     0.91013   0.70558   0.24017   0.00000  Uiso   1.00
H530   H     0.69295   0.80167   0.00782   0.00000  Uiso   1.00
H531   H     0.77092   0.77534   0.17811   0.00000  Uiso   1.00
H532   H     0.71932   0.74457   0.18968   0.00000  Uiso   1.00
H533   H     0.73319   0.78171   0.13915   0.00000  Uiso   1.00
H534   H     0.67418   0.78280   0.43163   0.00000  Uiso   1.00
H535   H     0.69685   0.82360   0.38803   0.00000  Uiso   1.00
H536   H     0.72227   0.77207   0.37334   0.00000  Uiso   1.00
H537   H     0.75593   0.70327   0.26035   0.00000  Uiso   1.00
H538   H     0.75718   0.96225   0.25994   0.00000  Uiso   1.00
H539   H     0.94071   0.87872   0.31094   0.00000  Uiso   1.00
H540   H     0.69370   0.87912   0.31042   0.00000  Uiso   1.00
H541   H     0.94994   0.82579   0.40988   0.00000  Uiso   1.00
H542   H     0.96890   0.85485   0.48659   0.00000  Uiso   1.00
H543   H     0.80296   0.81988   0.09158   0.00000  Uiso   1.00
H544   H     0.74871   0.81903   0.05537   0.00000  Uiso   1.00
I545   I     0.97461   0.87541   0.09506   0.00000  Uiso   1.00
I546   I     0.96405   0.76616   0.16118   0.00000  Uiso   1.00
I547   I     0.90633   0.76150   0.35233   0.00000  Uiso   1.00
I548   I     0.95034   0.95563   0.22721   0.00000  Uiso   1.00
N549   N     0.71598   0.83332   0.24998   0.00000  Uiso   1.00
N550   N     0.95069   0.83335   0.25000   0.00000  Uiso   1.00
O551   O     0.79375   0.89345   0.25000   0.00000  Uiso   1.00
O552   O     0.87294   0.89346   0.25000   0.00000  Uiso   1.00
O553   O     0.77441   0.83332   0.32549   0.00000  Uiso   1.00
O554   O     0.85360   0.83333   0.32549   0.00000  Uiso   1.00
O555   O     0.79373   0.77321   0.25000   0.00000  Uiso   1.00
O556   O     0.87292   0.77322   0.25000   0.00000  Uiso   1.00
O557   O     0.81306   0.83334   0.17451   0.00000  Uiso   1.00
O558   O     0.89225   0.83335   0.17451   0.00000  Uiso   1.00
C559   C     0.16724   0.24594   0.74928   0.00000  Uiso   1.00
C560   C     0.12690   0.14907   0.90471   0.00000  Uiso   1.00
C561   C     0.21192   0.31312   0.74222   0.00000  Uiso   1.00
C562   C     0.14107   0.16064   0.84899   0.00000  Uiso   1.00
C563   C     0.21011   0.02220   0.74406   0.00000  Uiso   1.00
C564   C     0.16645   0.04297   0.75010   0.00000  Uiso   1.00
C565   C     0.12353   0.02102   0.75546   0.00000  Uiso   1.00
C566   C     0.12441   0.31183   0.75504   0.00000  Uiso   1.00
C567   C     0.16832   0.29069   0.74859   0.00000  Uiso   1.00
C568   C     0.29971   0.19182   0.78370   0.00000  Uiso   1.00
C569   C     0.01579   0.19200   0.78348   0.00000  Uiso   1.00
C570   C     0.14675   0.15329   0.98765   0.00000  Uiso   1.00
C571   C     0.03343   0.14043   0.71658   0.00000  Uiso   1.00
C572   C     0.31735   0.14088   0.71627   0.00000  Uiso   1.00
C573   C     0.16645   0.08750   0.75017   0.00000  Uiso   1.00
C574   C     0.19263   0.16876   0.65022   0.00000  Uiso   1.00
C575   C     0.26566   0.18087   0.50945   0.00000  Uiso   1.00
C576   C     0.20704   0.17145   0.59329   0.00000  Uiso   1.00
C577   C     0.07796   0.14033   0.93201   0.00000  Uiso   1.00
C578   C     0.06376   0.14051   0.98628   0.00000  Uiso   1.00
C579   C     0.09682   0.14937   0.51376   0.00000  Uiso   1.00
C580   C     0.06631   0.10936   0.67956   0.00000  Uiso   1.00
C581   C     0.16203   0.14872   0.93264   0.00000  Uiso   1.00
C582   C     0.04068   0.12914   0.90464   0.00000  Uiso   1.00
C583   C     0.18239   0.16147   0.51402   0.00000  Uiso   1.00
C584   C     0.23107   0.16838   0.98478   0.00000  Uiso   1.00
C585   C     0.24548   0.15915   0.93165   0.00000  Uiso   1.00
C586   C     0.21221   0.14370   0.90780   0.00000  Uiso   1.00
C587   C     0.17171   0.16189   0.56818   0.00000  Uiso   1.00
C588   C     0.25377   0.18358   0.56352   0.00000  Uiso   1.00
Cu589  Cu    0.11978   0.16666   0.75000   0.00000  Uiso   1.00
Cu590  Cu    0.21355   0.16667   0.75000   0.00000  Uiso   1.00
H591   H     0.24346   0.03891   0.74017   0.00000  Uiso   1.00
H592   H     0.02628   0.13500   0.50782   0.00000  Uiso   1.00
H593   H     0.10425   0.10867   0.67811   0.00000  Uiso   1.00
H594   H     0.05266   0.07790   0.68968   0.00000  Uiso   1.00
H595   H     0.06653   0.11504   0.63915   0.00000  Uiso   1.00
H596   H     0.00751   0.11613   0.93163   0.00000  Uiso   1.00
H597   H     0.03018   0.15693   0.88803   0.00000  Uiso   1.00
H598   H     0.05560   0.10540   0.87334   0.00000  Uiso   1.00
H599   H     0.08927   0.03661   0.76035   0.00000  Uiso   1.00
H600   H     0.09051   0.29558   0.75994   0.00000  Uiso   1.00
H601   H     0.27405   0.21205   0.81094   0.00000  Uiso   1.00
H602   H     0.02703   0.21245   0.81042   0.00000  Uiso   1.00
H603   H     0.28327   0.15912   0.90988   0.00000  Uiso   1.00
H604   H     0.30223   0.18818   0.98659   0.00000  Uiso   1.00
H605   H     0.13630   0.15321   0.59158   0.00000  Uiso   1.00
H606   H     0.08204   0.15236   0.55537   0.00000  Uiso   1.00
I607   I     0.30794   0.20874   0.59506   0.00000  Uiso   1.00
I608   I     0.29738   0.09950   0.66118   0.00000  Uiso   1.00
I609   I     0.23967   0.09484   0.85233   0.00000  Uiso   1.00
I610   I     0.28367   0.28897   0.72721   0.00000  Uiso   1.00
N611   N     0.04931   0.16666   0.74998   0.00000  Uiso   1.00
N612   N     0.28402   0.16669   0.75000   0.00000  Uiso   1.00
O613   O     0.12708   0.22678   0.75000   0.00000  Uiso   1.00
O614   O     0.20627   0.22679   0.75000   0.00000  Uiso   1.00
O615   O     0.10775   0.16665   0.82549   0.00000  Uiso   1.00
O616   O     0.18694   0.16666   0.82549   0.00000  Uiso   1.00
O617   O     0.12706   0.10654   0.75000   0.00000  Uiso   1.00
O618   O     0.20625   0.10655   0.75000   0.00000  Uiso   1.00
O619   O     0.14640   0.16667   0.67451   0.00000  Uiso   1.00
O620   O     0.22559   0.16668   0.67451   0.00000  Uiso   1.00
C621   C     0.50057   0.24594   0.74928   0.00000  Uiso   1.00
C622   C     0.46023   0.14907   0.90471   0.00000  Uiso   1.00
C623   C     0.54526   0.31312   0.74222   0.00000  Uiso   1.00
C624   C     0.47441   0.16064   0.84899   0.00000  Uiso   1.00
C625   C     0.54344   0.02220   0.74406   0.00000  Uiso   1.00
C626   C     0.49979   0.04297   0.75010   0.00000  Uiso   1.00
C627   C     0.45686   0.02102   0.75546   0.00000  Uiso   1.00
C628   C     0.45775   0.31183   0.75504   0.00000  Uiso   1.00
C629   C     0.50166   0.29069   0.74859   0.00000  Uiso   1.00
C630   C     0.63304   0.19182   0.78370   0.00000  Uiso   1.00
C631   C     0.34912   0.19200   0.78348   0.00000  Uiso   1.00
C632   C     0.48009   0.15329   0.98765   0.00000  Uiso   1.00
C633   C     0.36676   0.14043   0.71658   0.00000  Uiso   1.00
C634   C     0.65069   0.14088   0.71627   0.00000  Uiso   1.00
C635   C     0.49978   0.08750   0.75017   0.00000  Uiso   1.00
C636   C     0.52596   0.16876   0.65022   0.00000  Uiso   1.00
C637   C     0.59900   0.18087   0.50945   0.00000  Uiso   1.00
C638   C     0.54037   0.17145   0.59329   0.00000  Uiso   1.00
C639   C     0.41129   0.14033   0.93201   0.00000  Uiso   1.00
C640   C     0.39709   0.14051   0.98628   0.00000  Uiso   1.00
C641   C     0.43015   0.14937   0.51376   0.00000  Uiso   1.00
C642   C     0.39965   0.10936   0.67956   0.00000  Uiso   1.00
C643   C     0.49536   0.14872   0.93264   0.00000  Uiso   1.00
C644   C     0.37402   0.12914   0.90464   0.00000  Uiso   1.00
C645   C     0.51572   0.16147   0.51402   0.00000  Uiso   1.00
C646   C     0.56440   0.16838   0.98478   0.00000  Uiso   1.00
C647   C     0.57881   0.15915   0.93165   0.00000  Uiso   1.00
C648   C     0.54555   0.14370   0.90780   0.00000  Uiso   1.00
C649   C     0.50504   0.16189   0.56818   0.00000  Uiso   1.00
C650   C     0.58710   0.18358   0.56352   0.00000  Uiso   1.00
Cu651  Cu    0.45311   0.16666   0.75000   0.00000  Uiso   1.00
Cu652  Cu    0.54689   0.16667   0.75000   0.00000  Uiso   1.00
H653   H     0.57679   0.03891   0.74017   0.00000  Uiso   1.00
H654   H     0.35961   0.13500   0.50782   0.00000  Uiso   1.00
H655   H     0.43758   0.10867   0.67811   0.00000  Uiso   1.00
H656   H     0.38599   0.07790   0.68968   0.00000  Uiso   1.00
H657   H     0.39986   0.11504   0.63915   0.00000  Uiso   1.00
H658   H     0.34085   0.11613   0.93163   0.00000  Uiso   1.00
H659   H     0.36351   0.15693   0.88803   0.00000  Uiso   1.00
H660   H     0.38894   0.10540   0.87334   0.00000  Uiso   1.00
H661   H     0.42260   0.03661   0.76035   0.00000  Uiso   1.00
H662   H     0.42385   0.29558   0.75994   0.00000  Uiso   1.00
H663   H     0.60738   0.21205   0.81094   0.00000  Uiso   1.00
H664   H     0.36037   0.21245   0.81042   0.00000  Uiso   1.00
H665   H     0.61661   0.15912   0.90988   0.00000  Uiso   1.00
H666   H     0.63557   0.18818   0.98659   0.00000  Uiso   1.00
H667   H     0.46963   0.15321   0.59158   0.00000  Uiso   1.00
H668   H     0.41537   0.15236   0.55537   0.00000  Uiso   1.00
I669   I     0.64128   0.20874   0.59506   0.00000  Uiso   1.00
I670   I     0.63072   0.09950   0.66118   0.00000  Uiso   1.00
I671   I     0.57300   0.09484   0.85233   0.00000  Uiso   1.00
I672   I     0.61700   0.28897   0.72721   0.00000  Uiso   1.00
N673   N     0.38265   0.16666   0.74998   0.00000  Uiso   1.00
N674   N     0.61735   0.16669   0.75000   0.00000  Uiso   1.00
O675   O     0.46042   0.22678   0.75000   0.00000  Uiso   1.00
O676   O     0.53961   0.22679   0.75000   0.00000  Uiso   1.00
O677   O     0.44108   0.16665   0.82549   0.00000  Uiso   1.00
O678   O     0.52027   0.16666   0.82549   0.00000  Uiso   1.00
O679   O     0.46039   0.10654   0.75000   0.00000  Uiso   1.00
O680   O     0.53958   0.10655   0.75000   0.00000  Uiso   1.00
O681   O     0.47973   0.16667   0.67451   0.00000  Uiso   1.00
O682   O     0.55892   0.16668   0.67451   0.00000  Uiso   1.00
C683   C     0.83390   0.24594   0.74928   0.00000  Uiso   1.00
C684   C     0.79356   0.14907   0.90471   0.00000  Uiso   1.00
C685   C     0.87859   0.31312   0.74222   0.00000  Uiso   1.00
C686   C     0.80774   0.16064   0.84899   0.00000  Uiso   1.00
C687   C     0.87677   0.02220   0.74406   0.00000  Uiso   1.00
C688   C     0.83312   0.04297   0.75010   0.00000  Uiso   1.00
C689   C     0.79019   0.02102   0.75546   0.00000  Uiso   1.00
C690   C     0.79108   0.31183   0.75504   0.00000  Uiso   1.00
C691   C     0.83499   0.29069   0.74859   0.00000  Uiso   1.00
C692   C     0.96638   0.19182   0.78370   0.00000  Uiso   1.00
C693   C     0.68245   0.19200   0.78348   0.00000  Uiso   1.00
C694   C     0.81342   0.15329   0.98765   0.00000  Uiso   1.00
C695   C     0.70009   0.14043   0.71658   0.00000  Uiso   1.00
C696   C     0.98402   0.14088   0.71627   0.00000  Uiso   1.00
C697   C     0.83312   0.08750   0.75017   0.00000  Uiso   1.00
C698   C     0.85929   0.16876   0.65022   0.00000  Uiso   1.00
C699   C     0.93233   0.18087   0.50945   0.00000  Uiso   1.00
C700   C     0.87371   0.17145   0.59329   0.00000  Uiso   1.00
C701   C     0.74462   0.14033   0.93201   0.00000  Uiso   1.00
C702   C     0.73042   0.14051   0.98628   0.00000  Uiso   1.00
C703   C     0.76349   0.14937   0.51376   0.00000  Uiso   1.00
C704   C     0.73298   0.10936   0.67956   0.00000  Uiso   1.00
C705   C     0.82870   0.14872   0.93264   0.00000  Uiso   1.00
C706   C     0.70735   0.12914   0.90464   0.00000  Uiso   1.00
C707   C     0.84906   0.16147   0.51402   0.00000  Uiso   1.00
C708   C     0.89773   0.16838   0.98478   0.00000  Uiso   1.00
C709   C     0.91215   0.15915   0.93165   0.00000  Uiso   1.00
C710   C     0.87888   0.14370   0.90780   0.00000  Uiso   1.00
C711   C     0.83837   0.16189   0.56818   0.00000  Uiso   1.00
C712   C     0.92043   0.18358   0.56352   0.00000  Uiso   1.00
Cu713  Cu    0.78645   0.16666   0.75000   0.00000  Uiso   1.00
Cu714  Cu    0.88022   0.16667   0.75000   0.00000  Uiso   1.00
H715   H     0.91013   0.03891   0.74017   0.00000  Uiso   1.00
H716   H     0.69295   0.13500   0.50782   0.00000  Uiso   1.00
H717   H     0.77092   0.10867   0.67811   0.00000  Uiso   1.00
H718   H     0.71932   0.07790   0.68968   0.00000  Uiso   1.00
H719   H     0.73319   0.11504   0.63915   0.00000  Uiso   1.00
H720   H     0.67418   0.11613   0.93163   0.00000  Uiso   1.00
H721   H     0.69685   0.15693   0.88803   0.00000  Uiso   1.00
H722   H     0.72227   0.10540   0.87334   0.00000  Uiso   1.00
H723   H     0.75593   0.03661   0.76035   0.00000  Uiso   1.00
H724   H     0.75718   0.29558   0.75994   0.00000  Uiso   1.00
H725   H     0.94071   0.21205   0.81094   0.00000  Uiso   1.00
H726   H     0.69370   0.21245   0.81042   0.00000  Uiso   1.00
H727   H     0.94994   0.15912   0.90988   0.00000  Uiso   1.00
H728   H     0.96890   0.18818   0.98659   0.00000  Uiso   1.00
H729   H     0.80296   0.15321   0.59158   0.00000  Uiso   1.00
H730   H     0.74871   0.15236   0.55537   0.00000  Uiso   1.00
I731   I     0.97461   0.20874   0.59506   0.00000  Uiso   1.00
I732   I     0.96405   0.09950   0.66118   0.00000  Uiso   1.00
I733   I     0.90633   0.09484   0.85233   0.00000  Uiso   1.00
I734   I     0.95034   0.28897   0.72721   0.00000  Uiso   1.00
N735   N     0.71598   0.16666   0.74998   0.00000  Uiso   1.00
N736   N     0.95069   0.16669   0.75000   0.00000  Uiso   1.00
O737   O     0.79375   0.22678   0.75000   0.00000  Uiso   1.00
O738   O     0.87294   0.22679   0.75000   0.00000  Uiso   1.00
O739   O     0.77441   0.16665   0.82549   0.00000  Uiso   1.00
O740   O     0.85360   0.16666   0.82549   0.00000  Uiso   1.00
O741   O     0.79373   0.10654   0.75000   0.00000  Uiso   1.00
O742   O     0.87292   0.10655   0.75000   0.00000  Uiso   1.00
O743   O     0.81306   0.16667   0.67451   0.00000  Uiso   1.00
O744   O     0.89225   0.16668   0.67451   0.00000  Uiso   1.00
C745   C     0.16724   0.57927   0.74928   0.00000  Uiso   1.00
C746   C     0.12690   0.48240   0.90471   0.00000  Uiso   1.00
C747   C     0.21192   0.64646   0.74222   0.00000  Uiso   1.00
C748   C     0.14107   0.49397   0.84899   0.00000  Uiso   1.00
C749   C     0.21011   0.35553   0.74406   0.00000  Uiso   1.00
C750   C     0.16645   0.37630   0.75010   0.00000  Uiso   1.00
C751   C     0.12353   0.35435   0.75546   0.00000  Uiso   1.00
C752   C     0.12441   0.64516   0.75504   0.00000  Uiso   1.00
C753   C     0.16832   0.62402   0.74859   0.00000  Uiso   1.00
C754   C     0.29971   0.52515   0.78370   0.00000  Uiso   1.00
C755   C     0.01579   0.52533   0.78348   0.00000  Uiso   1.00
C756   C     0.14675   0.48662   0.98765   0.00000  Uiso   1.00
C757   C     0.03343   0.47376   0.71658   0.00000  Uiso   1.00
C758   C     0.31735   0.47421   0.71627   0.00000  Uiso   1.00
C759   C     0.16645   0.42083   0.75017   0.00000  Uiso   1.00
C760   C     0.19263   0.50209   0.65022   0.00000  Uiso   1.00
C761   C     0.26566   0.51421   0.50945   0.00000  Uiso   1.00
C762   C     0.20704   0.50478   0.59329   0.00000  Uiso   1.00
C763   C     0.07796   0.47367   0.93201   0.00000  Uiso   1.00
C764   C     0.06376   0.47384   0.98628   0.00000  Uiso   1.00
C765   C     0.09682   0.48271   0.51376   0.00000  Uiso   1.00
C766   C     0.06631   0.44270   0.67956   0.00000  Uiso   1.00
C767   C     0.16203   0.48205   0.93264   0.00000  Uiso   1.00
C768   C     0.04068   0.46247   0.90464   0.00000  Uiso   1.00
C769   C     0.18239   0.49480   0.51402   0.00000  Uiso   1.00
C770   C     0.23107   0.50171   0.98478   0.00000  Uiso   1.00
C771   C     0.24548   0.49248   0.93165   0.00000  Uiso   1.00
C772   C     0.21221   0.47703   0.90780   0.00000  Uiso   1.00
C773   C     0.17171   0.49522   0.56818   0.00000  Uiso   1.00
C774   C     0.25377   0.51691   0.56352   0.00000  Uiso   1.00
Cu775  Cu    0.11978   0.49999   0.75000   0.00000  Uiso   1.00
Cu776  Cu    0.21355   0.50001   0.75000   0.00000  Uiso   1.00
H777   H     0.24346   0.37224   0.74017   0.00000  Uiso   1.00
H778   H     0.02628   0.46833   0.50782   0.00000  Uiso   1.00
H779   H     0.10425   0.44201   0.67811   0.00000  Uiso   1.00
H780   H     0.05266   0.41123   0.68968   0.00000  Uiso   1.00
H781   H     0.06653   0.44837   0.63915   0.00000  Uiso   1.00
H782   H     0.00751   0.44947   0.93163   0.00000  Uiso   1.00
H783   H     0.03018   0.49027   0.88803   0.00000  Uiso   1.00
H784   H     0.05560   0.43873   0.87334   0.00000  Uiso   1.00
H785   H     0.08927   0.36994   0.76035   0.00000  Uiso   1.00
H786   H     0.09051   0.62892   0.75994   0.00000  Uiso   1.00
H787   H     0.27405   0.54538   0.81094   0.00000  Uiso   1.00
H788   H     0.02703   0.54578   0.81042   0.00000  Uiso   1.00
H789   H     0.28327   0.49246   0.90988   0.00000  Uiso   1.00
H790   H     0.30223   0.52151   0.98659   0.00000  Uiso   1.00
H791   H     0.13630   0.48655   0.59158   0.00000  Uiso   1.00
H792   H     0.08204   0.48569   0.55537   0.00000  Uiso   1.00
I793   I     0.30794   0.54207   0.59506   0.00000  Uiso   1.00
I794   I     0.29738   0.43283   0.66118   0.00000  Uiso   1.00
I795   I     0.23967   0.42817   0.85233   0.00000  Uiso   1.00
I796   I     0.28367   0.62230   0.72721   0.00000  Uiso   1.00
N797   N     0.04931   0.49999   0.74998   0.00000  Uiso   1.00
N798   N     0.28402   0.50002   0.75000   0.00000  Uiso   1.00
O799   O     0.12708   0.56011   0.75000   0.00000  Uiso   1.00
O800   O     0.20627   0.56012   0.75000   0.00000  Uiso   1.00
O801   O     0.10775   0.49998   0.82549   0.00000  Uiso   1.00
O802   O     0.18694   0.49999   0.82549   0.00000  Uiso   1.00
O803   O     0.12706   0.43988   0.75000   0.00000  Uiso   1.00
O804   O     0.20625   0.43989   0.75000   0.00000  Uiso   1.00
O805   O     0.14640   0.50001   0.67451   0.00000  Uiso   1.00
O806   O     0.22559   0.50002   0.67451   0.00000  Uiso   1.00
C807   C     0.50057   0.57927   0.74928   0.00000  Uiso   1.00
C808   C     0.46023   0.48240   0.90471   0.00000  Uiso   1.00
C809   C     0.54526   0.64646   0.74222   0.00000  Uiso   1.00
C810   C     0.47441   0.49397   0.84899   0.00000  Uiso   1.00
C811   C     0.54344   0.35553   0.74406   0.00000  Uiso   1.00
C812   C     0.49979   0.37630   0.75010   0.00000  Uiso   1.00
C813   C     0.45686   0.35435   0.75546   0.00000  Uiso   1.00
C814   C     0.45775   0.64516   0.75504   0.00000  Uiso   1.00
C815   C     0.50166   0.62402   0.74859   0.00000  Uiso   1.00
C816   C     0.63304   0.52515   0.78370   0.00000  Uiso   1.00
C817   C     0.34912   0.52533   0.78348   0.00000  Uiso   1.00
C818   C     0.48009   0.48662   0.98765   0.00000  Uiso   1.00
C819   C     0.36676   0.47376   0.71658   0.00000  Uiso   1.00
C820   C     0.65069   0.47421   0.71627   0.00000  Uiso   1.00
C821   C     0.49978   0.42083   0.75017   0.00000  Uiso   1.00
C822   C     0.52596   0.50209   0.65022   0.00000  Uiso   1.00
C823   C     0.59900   0.51421   0.50945   0.00000  Uiso   1.00
C824   C     0.54037   0.50478   0.59329   0.00000  Uiso   1.00
C825   C     0.41129   0.47367   0.93201   0.00000  Uiso   1.00
C826   C     0.39709   0.47384   0.98628   0.00000  Uiso   1.00
C827   C     0.43015   0.48271   0.51376   0.00000  Uiso   1.00
C828   C     0.39965   0.44270   0.67956   0.00000  Uiso   1.00
C829   C     0.49536   0.48205   0.93264   0.00000  Uiso   1.00
C830   C     0.37402   0.46247   0.90464   0.00000  Uiso   1.00
C831   C     0.51572   0.49480   0.51402   0.00000  Uiso   1.00
C832   C     0.56440   0.50171   0.98478   0.00000  Uiso   1.00
C833   C     0.57881   0.49248   0.93165   0.00000  Uiso   1.00
C834   C     0.54555   0.47703   0.90780   0.00000  Uiso   1.00
C835   C     0.50504   0.49522   0.56818   0.00000  Uiso   1.00
C836   C     0.58710   0.51691   0.56352   0.00000  Uiso   1.00
Cu837  Cu    0.45311   0.49999   0.75000   0.00000  Uiso   1.00
Cu838  Cu    0.54689   0.50001   0.75000   0.00000  Uiso   1.00
H839   H     0.57679   0.37224   0.74017   0.00000  Uiso   1.00
H840   H     0.35961   0.46833   0.50782   0.00000  Uiso   1.00
H841   H     0.43758   0.44201   0.67811   0.00000  Uiso   1.00
H842   H     0.38599   0.41123   0.68968   0.00000  Uiso   1.00
H843   H     0.39986   0.44837   0.63915   0.00000  Uiso   1.00
H844   H     0.34085   0.44947   0.93163   0.00000  Uiso   1.00
H845   H     0.36351   0.49027   0.88803   0.00000  Uiso   1.00
H846   H     0.38894   0.43873   0.87334   0.00000  Uiso   1.00
H847   H     0.42260   0.36994   0.76035   0.00000  Uiso   1.00
H848   H     0.42385   0.62892   0.75994   0.00000  Uiso   1.00
H849   H     0.60738   0.54538   0.81094   0.00000  Uiso   1.00
H850   H     0.36037   0.54578   0.81042   0.00000  Uiso   1.00
H851   H     0.61661   0.49246   0.90988   0.00000  Uiso   1.00
H852   H     0.63557   0.52151   0.98659   0.00000  Uiso   1.00
H853   H     0.46963   0.48655   0.59158   0.00000  Uiso   1.00
H854   H     0.41537   0.48569   0.55537   0.00000  Uiso   1.00
I855   I     0.64128   0.54207   0.59506   0.00000  Uiso   1.00
I856   I     0.63072   0.43283   0.66118   0.00000  Uiso   1.00
I857   I     0.57300   0.42817   0.85233   0.00000  Uiso   1.00
I858   I     0.61700   0.62230   0.72721   0.00000  Uiso   1.00
N859   N     0.38265   0.49999   0.74998   0.00000  Uiso   1.00
N860   N     0.61735   0.50002   0.75000   0.00000  Uiso   1.00
O861   O     0.46042   0.56011   0.75000   0.00000  Uiso   1.00
O862   O     0.53961   0.56012   0.75000   0.00000  Uiso   1.00
O863   O     0.44108   0.49998   0.82549   0.00000  Uiso   1.00
O864   O     0.52027   0.49999   0.82549   0.00000  Uiso   1.00
O865   O     0.46039   0.43988   0.75000   0.00000  Uiso   1.00
O866   O     0.53958   0.43989   0.75000   0.00000  Uiso   1.00
O867   O     0.47973   0.50001   0.67451   0.00000  Uiso   1.00
O868   O     0.55892   0.50002   0.67451   0.00000  Uiso   1.00
C869   C     0.83390   0.57927   0.74928   0.00000  Uiso   1.00
C870   C     0.79356   0.48240   0.90471   0.00000  Uiso   1.00
C871   C     0.87859   0.64646   0.74222   0.00000  Uiso   1.00
C872   C     0.80774   0.49397   0.84899   0.00000  Uiso   1.00
C873   C     0.87677   0.35553   0.74406   0.00000  Uiso   1.00
C874   C     0.83312   0.37630   0.75010   0.00000  Uiso   1.00
C875   C     0.79019   0.35435   0.75546   0.00000  Uiso   1.00
C876   C     0.79108   0.64516   0.75504   0.00000  Uiso   1.00
C877   C     0.83499   0.62402   0.74859   0.00000  Uiso   1.00
C878   C     0.96638   0.52515   0.78370   0.00000  Uiso   1.00
C879   C     0.68245   0.52533   0.78348   0.00000  Uiso   1.00
C880   C     0.81342   0.48662   0.98765   0.00000  Uiso   1.00
C881   C     0.70009   0.47376   0.71658   0.00000  Uiso   1.00
C882   C     0.98402   0.47421   0.71627   0.00000  Uiso   1.00
C883   C     0.83312   0.42083   0.75017   0.00000  Uiso   1.00
C884   C     0.85929   0.50209   0.65022   0.00000  Uiso   1.00
C885   C     0.93233   0.51421   0.50945   0.00000  Uiso   1.00
C886   C     0.87371   0.50478   0.59329   0.00000  Uiso   1.00
C887   C     0.74462   0.47367   0.93201   0.00000  Uiso   1.00
C888   C     0.73042   0.47384   0.98628   0.00000  Uiso   1.00
C889   C     0.76349   0.48271   0.51376   0.00000  Uiso   1.00
C890   C     0.73298   0.44270   0.67956   0.00000  Uiso   1.00
C891   C     0.82870   0.48205   0.93264   0.00000  Uiso   1.00
C892   C     0.70735   0.46247   0.90464   0.00000  Uiso   1.00
C893   C     0.84906   0.49480   0.51402   0.00000  Uiso   1.00
C894   C     0.89773   0.50171   0.98478   0.00000  Uiso   1.00
C895   C     0.91215   0.49248   0.93165   0.00000  Uiso   1.00
C896   C     0.87888   0.47703   0.90780   0.00000  Uiso   1.00
C897   C     0.83837   0.49522   0.56818   0.00000  Uiso   1.00
C898   C     0.92043   0.51691   0.56352   0.00000  Uiso   1.00
Cu899  Cu    0.78645   0.49999   0.75000   0.00000  Uiso   1.00
Cu900  Cu    0.88022   0.50001   0.75000   0.00000  Uiso   1.00
H901   H     0.91013   0.37224   0.74017   0.00000  Uiso   1.00
H902   H     0.69295   0.46833   0.50782   0.00000  Uiso   1.00
H903   H     0.77092   0.44201   0.67811   0.00000  Uiso   1.00
H904   H     0.71932   0.41123   0.68968   0.00000  Uiso   1.00
H905   H     0.73319   0.44837   0.63915   0.00000  Uiso   1.00
H906   H     0.67418   0.44947   0.93163   0.00000  Uiso   1.00
H907   H     0.69685   0.49027   0.88803   0.00000  Uiso   1.00
H908   H     0.72227   0.43873   0.87334   0.00000  Uiso   1.00
H909   H     0.75593   0.36994   0.76035   0.00000  Uiso   1.00
H910   H     0.75718   0.62892   0.75994   0.00000  Uiso   1.00
H911   H     0.94071   0.54538   0.81094   0.00000  Uiso   1.00
H912   H     0.69370   0.54578   0.81042   0.00000  Uiso   1.00
H913   H     0.94994   0.49246   0.90988   0.00000  Uiso   1.00
H914   H     0.96890   0.52151   0.98659   0.00000  Uiso   1.00
H915   H     0.80296   0.48655   0.59158   0.00000  Uiso   1.00
H916   H     0.74871   0.48569   0.55537   0.00000  Uiso   1.00
I917   I     0.97461   0.54207   0.59506   0.00000  Uiso   1.00
I918   I     0.96405   0.43283   0.66118   0.00000  Uiso   1.00
I919   I     0.90633   0.42817   0.85233   0.00000  Uiso   1.00
I920   I     0.95034   0.62230   0.72721   0.00000  Uiso   1.00
N921   N     0.71598   0.49999   0.74998   0.00000  Uiso   1.00
N922   N     0.95069   0.50002   0.75000   0.00000  Uiso   1.00
O923   O     0.79375   0.56011   0.75000   0.00000  Uiso   1.00
O924   O     0.87294   0.56012   0.75000   0.00000  Uiso   1.00
O925   O     0.77441   0.49998   0.82549   0.00000  Uiso   1.00
O926   O     0.85360   0.49999   0.82549   0.00000  Uiso   1.00
O927   O     0.79373   0.43988   0.75000   0.00000  Uiso   1.00
O928   O     0.87292   0.43989   0.75000   0.00000  Uiso   1.00
O929   O     0.81306   0.50001   0.67451   0.00000  Uiso   1.00
O930   O     0.89225   0.50002   0.67451   0.00000  Uiso   1.00
C931   C     0.16724   0.91260   0.74928   0.00000  Uiso   1.00
C932   C     0.12690   0.81573   0.90471   0.00000  Uiso   1.00
C933   C     0.21192   0.97979   0.74222   0.00000  Uiso   1.00
C934   C     0.14107   0.82730   0.84899   0.00000  Uiso   1.00
C935   C     0.21011   0.68886   0.74406   0.00000  Uiso   1.00
C936   C     0.16645   0.70964   0.75010   0.00000  Uiso   1.00
C937   C     0.12353   0.68768   0.75546   0.00000  Uiso   1.00
C938   C     0.12441   0.97850   0.75504   0.00000  Uiso   1.00
C939   C     0.16832   0.95735   0.74859   0.00000  Uiso   1.00
C940   C     0.29971   0.85849   0.78370   0.00000  Uiso   1.00
C941   C     0.01579   0.85867   0.78348   0.00000  Uiso   1.00
C942   C     0.14675   0.81995   0.98765   0.00000  Uiso   1.00
C943   C     0.03343   0.80709   0.71658   0.00000  Uiso   1.00
C944   C     0.31735   0.80754   0.71627   0.00000  Uiso   1.00
C945   C     0.16645   0.75416   0.75017   0.00000  Uiso   1.00
C946   C     0.19263   0.83542   0.65022   0.00000  Uiso   1.00
C947   C     0.26566   0.84754   0.50945   0.00000  Uiso   1.00
C948   C     0.20704   0.83812   0.59329   0.00000  Uiso   1.00
C949   C     0.07796   0.80700   0.93201   0.00000  Uiso   1.00
C950   C     0.06376   0.80717   0.98628   0.00000  Uiso   1.00
C951   C     0.09682   0.81604   0.51376   0.00000  Uiso   1.00
C952   C     0.06631   0.77603   0.67956   0.00000  Uiso   1.00
C953   C     0.16203   0.81538   0.93264   0.00000  Uiso   1.00
C954   C     0.04068   0.79581   0.90464   0.00000  Uiso   1.00
C955   C     0.18239   0.82813   0.51402   0.00000  Uiso   1.00
C956   C     0.23107   0.83504   0.98478   0.00000  Uiso   1.00
C957   C     0.24548   0.82582   0.93165   0.00000  Uiso   1.00
C958   C     0.21221   0.81037   0.90780   0.00000  Uiso   1.00
C959   C     0.17171   0.82855   0.56818   0.00000  Uiso   1.00
C960   C     0.25377   0.85024   0.56352   0.00000  Uiso   1.00
Cu961  Cu    0.11978   0.83333   0.75000   0.00000  Uiso   1.00
Cu962  Cu    0.21355   0.83334   0.75000   0.00000  Uiso   1.00
H963   H     0.24346   0.70558   0.74017   0.00000  Uiso   1.00
H964   H     0.02628   0.80167   0.50782   0.00000  Uiso   1.00
H965   H     0.10425   0.77534   0.67811   0.00000  Uiso   1.00
H966   H     0.05266   0.74457   0.68968   0.00000  Uiso   1.00
H967   H     0.06653   0.78171   0.63915   0.00000  Uiso   1.00
H968   H     0.00751   0.78280   0.93163   0.00000  Uiso   1.00
H969   H     0.03018   0.82360   0.88803   0.00000  Uiso   1.00
H970   H     0.05560   0.77207   0.87334   0.00000  Uiso   1.00
H971   H     0.08927   0.70327   0.76035   0.00000  Uiso   1.00
H972   H     0.09051   0.96225   0.75994   0.00000  Uiso   1.00
H973   H     0.27405   0.87872   0.81094   0.00000  Uiso   1.00
H974   H     0.02703   0.87912   0.81042   0.00000  Uiso   1.00
H975   H     0.28327   0.82579   0.90988   0.00000  Uiso   1.00
H976   H     0.30223   0.85485   0.98659   0.00000  Uiso   1.00
H977   H     0.13630   0.81988   0.59158   0.00000  Uiso   1.00
H978   H     0.08204   0.81903   0.55537   0.00000  Uiso   1.00
I979   I     0.30794   0.87541   0.59506   0.00000  Uiso   1.00
I980   I     0.29738   0.76616   0.66118   0.00000  Uiso   1.00
I981   I     0.23967   0.76150   0.85233   0.00000  Uiso   1.00
I982   I     0.28367   0.95563   0.72721   0.00000  Uiso   1.00
N983   N     0.04931   0.83332   0.74998   0.00000  Uiso   1.00
N984   N     0.28402   0.83335   0.75000   0.00000  Uiso   1.00
O985   O     0.12708   0.89345   0.75000   0.00000  Uiso   1.00
O986   O     0.20627   0.89346   0.75000   0.00000  Uiso   1.00
O987   O     0.10775   0.83332   0.82549   0.00000  Uiso   1.00
O988   O     0.18694   0.83333   0.82549   0.00000  Uiso   1.00
O989   O     0.12706   0.77321   0.75000   0.00000  Uiso   1.00
O990   O     0.20625   0.77322   0.75000   0.00000  Uiso   1.00
O991   O     0.14640   0.83334   0.67451   0.00000  Uiso   1.00
O992   O     0.22559   0.83335   0.67451   0.00000  Uiso   1.00
C993   C     0.50057   0.91260   0.74928   0.00000  Uiso   1.00
C994   C     0.46023   0.81573   0.90471   0.00000  Uiso   1.00
C995   C     0.54526   0.97979   0.74222   0.00000  Uiso   1.00
C996   C     0.47441   0.82730   0.84899   0.00000  Uiso   1.00
C997   C     0.54344   0.68886   0.74406   0.00000  Uiso   1.00
C998   C     0.49979   0.70964   0.75010   0.00000  Uiso   1.00
C999   C     0.45686   0.68768   0.75546   0.00000  Uiso   1.00
C1000  C     0.45775   0.97850   0.75504   0.00000  Uiso   1.00
C1001  C     0.50166   0.95735   0.74859   0.00000  Uiso   1.00
C1002  C     0.63304   0.85849   0.78370   0.00000  Uiso   1.00
C1003  C     0.34912   0.85867   0.78348   0.00000  Uiso   1.00
C1004  C     0.48009   0.81995   0.98765   0.00000  Uiso   1.00
C1005  C     0.36676   0.80709   0.71658   0.00000  Uiso   1.00
C1006  C     0.65069   0.80754   0.71627   0.00000  Uiso   1.00
C1007  C     0.49978   0.75416   0.75017   0.00000  Uiso   1.00
C1008  C     0.52596   0.83542   0.65022   0.00000  Uiso   1.00
C1009  C     0.59900   0.84754   0.50945   0.00000  Uiso   1.00
C1010  C     0.54037   0.83812   0.59329   0.00000  Uiso   1.00
C1011  C     0.41129   0.80700   0.93201   0.00000  Uiso   1.00
C1012  C     0.39709   0.80717   0.98628   0.00000  Uiso   1.00
C1013  C     0.43015   0.81604   0.51376   0.00000  Uiso   1.00
C1014  C     0.39965   0.77603   0.67956   0.00000  Uiso   1.00
C1015  C     0.49536   0.81538   0.93264   0.00000  Uiso   1.00
C1016  C     0.37402   0.79581   0.90464   0.00000  Uiso   1.00
C1017  C     0.51572   0.82813   0.51402   0.00000  Uiso   1.00
C1018  C     0.56440   0.83504   0.98478   0.00000  Uiso   1.00
C1019  C     0.57881   0.82582   0.93165   0.00000  Uiso   1.00
C1020  C     0.54555   0.81037   0.90780   0.00000  Uiso   1.00
C1021  C     0.50504   0.82855   0.56818   0.00000  Uiso   1.00
C1022  C     0.58710   0.85024   0.56352   0.00000  Uiso   1.00
Cu1023 Cu    0.45311   0.83333   0.75000   0.00000  Uiso   1.00
Cu1024 Cu    0.54689   0.83334   0.75000   0.00000  Uiso   1.00
H1025  H     0.57679   0.70558   0.74017   0.00000  Uiso   1.00
H1026  H     0.35961   0.80167   0.50782   0.00000  Uiso   1.00
H1027  H     0.43758   0.77534   0.67811   0.00000  Uiso   1.00
H1028  H     0.38599   0.74457   0.68968   0.00000  Uiso   1.00
H1029  H     0.39986   0.78171   0.63915   0.00000  Uiso   1.00
H1030  H     0.34085   0.78280   0.93163   0.00000  Uiso   1.00
H1031  H     0.36351   0.82360   0.88803   0.00000  Uiso   1.00
H1032  H     0.38894   0.77207   0.87334   0.00000  Uiso   1.00
H1033  H     0.42260   0.70327   0.76035   0.00000  Uiso   1.00
H1034  H     0.42385   0.96225   0.75994   0.00000  Uiso   1.00
H1035  H     0.60738   0.87872   0.81094   0.00000  Uiso   1.00
H1036  H     0.36037   0.87912   0.81042   0.00000  Uiso   1.00
H1037  H     0.61661   0.82579   0.90988   0.00000  Uiso   1.00
H1038  H     0.63557   0.85485   0.98659   0.00000  Uiso   1.00
H1039  H     0.46963   0.81988   0.59158   0.00000  Uiso   1.00
H1040  H     0.41537   0.81903   0.55537   0.00000  Uiso   1.00
I1041  I     0.64128   0.87541   0.59506   0.00000  Uiso   1.00
I1042  I     0.63072   0.76616   0.66118   0.00000  Uiso   1.00
I1043  I     0.57300   0.76150   0.85233   0.00000  Uiso   1.00
I1044  I     0.61700   0.95563   0.72721   0.00000  Uiso   1.00
N1045  N     0.38265   0.83332   0.74998   0.00000  Uiso   1.00
N1046  N     0.61735   0.83335   0.75000   0.00000  Uiso   1.00
O1047  O     0.46042   0.89345   0.75000   0.00000  Uiso   1.00
O1048  O     0.53961   0.89346   0.75000   0.00000  Uiso   1.00
O1049  O     0.44108   0.83332   0.82549   0.00000  Uiso   1.00
O1050  O     0.52027   0.83333   0.82549   0.00000  Uiso   1.00
O1051  O     0.46039   0.77321   0.75000   0.00000  Uiso   1.00
O1052  O     0.53958   0.77322   0.75000   0.00000  Uiso   1.00
O1053  O     0.47973   0.83334   0.67451   0.00000  Uiso   1.00
O1054  O     0.55892   0.83335   0.67451   0.00000  Uiso   1.00
C1055  C     0.83390   0.91260   0.74928   0.00000  Uiso   1.00
C1056  C     0.79356   0.81573   0.90471   0.00000  Uiso   1.00
C1057  C     0.87859   0.97979   0.74222   0.00000  Uiso   1.00
C1058  C     0.80774   0.82730   0.84899   0.00000  Uiso   1.00
C1059  C     0.87677   0.68886   0.74406   0.00000  Uiso   1.00
C1060  C     0.83312   0.70964   0.75010   0.00000  Uiso   1.00
C1061  C     0.79019   0.68768   0.75546   0.00000  Uiso   1.00
C1062  C     0.79108   0.97850   0.75504   0.00000  Uiso   1.00
C1063  C     0.83499   0.95735   0.74859   0.00000  Uiso   1.00
C1064  C     0.96638   0.85849   0.78370   0.00000  Uiso   1.00
C1065  C     0.68245   0.85867   0.78348   0.00000  Uiso   1.00
C1066  C     0.81342   0.81995   0.98765   0.00000  Uiso   1.00
C1067  C     0.70009   0.80709   0.71658   0.00000  Uiso   1.00
C1068  C     0.98402   0.80754   0.71627   0.00000  Uiso   1.00
C1069  C     0.83312   0.75416   0.75017   0.00000  Uiso   1.00
C1070  C     0.85929   0.83542   0.65022   0.00000  Uiso   1.00
C1071  C     0.93233   0.84754   0.50945   0.00000  Uiso   1.00
C1072  C     0.87371   0.83812   0.59329   0.00000  Uiso   1.00
C1073  C     0.74462   0.80700   0.93201   0.00000  Uiso   1.00
C1074  C     0.73042   0.80717   0.98628   0.00000  Uiso   1.00
C1075  C     0.76349   0.81604   0.51376   0.00000  Uiso   1.00
C1076  C     0.73298   0.77603   0.67956   0.00000  Uiso   1.00
C1077  C     0.82870   0.81538   0.93264   0.00000  Uiso   1.00
C1078  C     0.70735   0.79581   0.90464   0.00000  Uiso   1.00
C1079  C     0.84906   0.82813   0.51402   0.00000  Uiso   1.00
C1080  C     0.89773   0.83504   0.98478   0.00000  Uiso   1.00
C1081  C     0.91215   0.82582   0.93165   0.00000  Uiso   1.00
C1082  C     0.87888   0.81037   0.90780   0.00000  Uiso   1.00
C1083  C     0.83837   0.82855   0.56818   0.00000  Uiso   1.00
C1084  C     0.92043   0.85024   0.56352   0.00000  Uiso   1.00
Cu1085 Cu    0.78645   0.83333   0.75000   0.00000  Uiso   1.00
Cu1086 Cu    0.88022   0.83334   0.75000   0.00000  Uiso   1.00
H1087  H     0.91013   0.70558   0.74017   0.00000  Uiso   1.00
H1088  H     0.69295   0.80167   0.50782   0.00000  Uiso   1.00
H1089  H     0.77092   0.77534   0.67811   0.00000  Uiso   1.00
H1090  H     0.71932   0.74457   0.68968   0.00000  Uiso   1.00
H1091  H     0.73319   0.78171   0.63915   0.00000  Uiso   1.00
H1092  H     0.67418   0.78280   0.93163   0.00000  Uiso   1.00
H1093  H     0.69685   0.82360   0.88803   0.00000  Uiso   1.00
H1094  H     0.72227   0.77207   0.87334   0.00000  Uiso   1.00
H1095  H     0.75593   0.70327   0.76035   0.00000  Uiso   1.00
H1096  H     0.75718   0.96225   0.75994   0.00000  Uiso   1.00
H1097  H     0.94071   0.87872   0.81094   0.00000  Uiso   1.00
H1098  H     0.69370   0.87912   0.81042   0.00000  Uiso   1.00
H1099  H     0.94994   0.82579   0.90988   0.00000  Uiso   1.00
H1100  H     0.96890   0.85485   0.98659   0.00000  Uiso   1.00
H1101  H     0.80296   0.81988   0.59158   0.00000  Uiso   1.00
H1102  H     0.74871   0.81903   0.55537   0.00000  Uiso   1.00
I1103  I     0.97461   0.87541   0.59506   0.00000  Uiso   1.00
I1104  I     0.96405   0.76616   0.66118   0.00000  Uiso   1.00
I1105  I     0.90633   0.76150   0.85233   0.00000  Uiso   1.00
I1106  I     0.95034   0.95563   0.72721   0.00000  Uiso   1.00
N1107  N     0.71598   0.83332   0.74998   0.00000  Uiso   1.00
N1108  N     0.95069   0.83335   0.75000   0.00000  Uiso   1.00
O1109  O     0.79375   0.89345   0.75000   0.00000  Uiso   1.00
O1110  O     0.87294   0.89346   0.75000   0.00000  Uiso   1.00
O1111  O     0.77441   0.83332   0.82549   0.00000  Uiso   1.00
O1112  O     0.85360   0.83333   0.82549   0.00000  Uiso   1.00
O1113  O     0.79373   0.77321   0.75000   0.00000  Uiso   1.00
O1114  O     0.87292   0.77322   0.75000   0.00000  Uiso   1.00
O1115  O     0.81306   0.83334   0.67451   0.00000  Uiso   1.00
O1116  O     0.89225   0.83335   0.67451   0.00000  Uiso   1.00
loop_
_geom_bond_atom_site_label_1
_geom_bond_atom_site_label_2
_geom_bond_distance
_geom_bond_site_symmetry_2
_ccdc_geom_bond_type
C1     O55     1.306   .     A
C1     O56     1.294   .     A
C1     C9      1.459   .     S
C2     C4      1.498   .     S
C2     C23     1.426   .     A
C2     C19     1.419   .     A
C3     I52     2.135   .     S
C3     C9      1.418   .     A
C3     C191    1.381   .     S
C4     O57     1.313   .     A
C4     O58     1.304   .     A
C5     C6      1.395   .     A
C5     H33     1.081   .     S
C5     C375    1.381   1_545 S
C6     C7      1.397   .     A
C6     C15     1.450   .     S
C7     H41     1.083   .     S
C7     C380    1.385   1_545 S
C8     H42     1.083   .     S
C8     C9      1.406   .     A
C8     C193    1.385   .     S
C10    H43     1.082   .     S
C10    N54     1.368   .     A
C10    C73     1.421   .     S
C11    N53     1.368   .     A
C11    H44     1.082   .     S
C11    C134    1.421   1_455 S
C12    C23     1.418   .     A
C12    C579    1.411   .     S
C12    C583    1.426   .     S
C13    C22     1.515   .     S
C13    N53     1.386   .     A
C13    C138    1.425   1_455 S
C14    I50     2.162   .     S
C14    N54     1.376   .     A
C14    C75     1.425   .     S
C15    O60     1.298   .     A
C15    O59     1.298   .     A
C16    O61     1.303   .     A
C16    O62     1.303   .     A
C16    C18     1.472   .     S
C17    C30     1.394   .     A
C17    C584    1.399   1_554 S
C17    H604    1.084   1_554 S
C18    C29     1.403   .     A
C18    C30     1.413   .     A
C19    C20     1.397   .     A
C19    C24     1.504   .     S
C20    C579    1.388   .     S
C20    H592    1.083   .     S
C21    H48     1.076   .     S
C21    C570    1.411   1_554 S
C21    C578    1.388   1_554 S
C22    H36     1.111   .     S
C22    H35     1.082   .     S
C22    H37     1.109   .     S
C23    C28     1.411   .     A
C24    H38     1.111   .     S
C24    H39     1.107   .     S
C24    H40     1.111   .     S
C25    C29     1.399   .     A
C25    C570    1.426   1_554 S
C25    C584    1.414   1_554 S
C26    C27     1.389   .     A
C26    C583    1.414   .     S
C26    C575    1.399   .     S
C27    H45     1.075   .     S
C27    C28     1.382   .     A
C28    I51     2.128   .     S
C29    H47     1.073   .     S
C30    I49     2.127   .     S
Cu31   O61     1.951   .     S
Cu31   O57     1.959   .     S
Cu31   N53     2.029   .     S
Cu31   O55     1.968   .     S
Cu31   O59     1.971   .     S
Cu31   Cu32    2.700   .     S
Cu32   O58     1.951   .     S
Cu32   O62     1.959   .     S
Cu32   N54     2.029   .     S
Cu32   O60     1.968   .     S
Cu32   O56     1.971   .     S
H34    C578    1.083   1_554 S
H46    C575    1.084   .     S
C63    O117    1.306   .     A
C63    O118    1.294   .     A
C63    C71     1.459   .     S
C64    C66     1.498   .     S
C64    C85     1.426   .     A
C64    C81     1.419   .     A
C65    I114    2.135   .     S
C65    C71     1.418   .     A
C65    C253    1.381   .     S
C66    O119    1.313   .     A
C66    O120    1.304   .     A
C67    C68     1.395   .     A
C67    H95     1.081   .     S
C67    C437    1.381   1_545 S
C68    C69     1.397   .     A
C68    C77     1.450   .     S
C69    H103    1.083   .     S
C69    C442    1.385   1_545 S
C70    H104    1.083   .     S
C70    C71     1.406   .     A
C70    C255    1.385   .     S
C72    H105    1.082   .     S
C72    N116    1.368   .     A
C72    C135    1.421   .     S
C73    N115    1.368   .     A
C73    H106    1.082   .     S
C74    C85     1.418   .     A
C74    C641    1.411   .     S
C74    C645    1.426   .     S
C75    C84     1.515   .     S
C75    N115    1.386   .     A
C76    I112    2.162   .     S
C76    N116    1.376   .     A
C76    C137    1.425   .     S
C77    O122    1.298   .     A
C77    O121    1.298   .     A
C78    O123    1.303   .     A
C78    O124    1.303   .     A
C78    C80     1.472   .     S
C79    C92     1.394   .     A
C79    C646    1.399   1_554 S
C79    H666    1.084   1_554 S
C80    C91     1.403   .     A
C80    C92     1.413   .     A
C81    C82     1.397   .     A
C81    C86     1.504   .     S
C82    C641    1.388   .     S
C82    H654    1.083   .     S
C83    H110    1.076   .     S
C83    C632    1.411   1_554 S
C83    C640    1.388   1_554 S
C84    H98     1.111   .     S
C84    H97     1.082   .     S
C84    H99     1.109   .     S
C85    C90     1.411   .     A
C86    H100    1.111   .     S
C86    H101    1.107   .     S
C86    H102    1.111   .     S
C87    C91     1.399   .     A
C87    C632    1.426   1_554 S
C87    C646    1.414   1_554 S
C88    C89     1.389   .     A
C88    C645    1.414   .     S
C88    C637    1.399   .     S
C89    H107    1.075   .     S
C89    C90     1.382   .     A
C90    I113    2.128   .     S
C91    H109    1.073   .     S
C92    I111    2.127   .     S
Cu93   O123    1.951   .     S
Cu93   O119    1.959   .     S
Cu93   N115    2.029   .     S
Cu93   O117    1.968   .     S
Cu93   O121    1.971   .     S
Cu93   Cu94    2.700   .     S
Cu94   O120    1.951   .     S
Cu94   O124    1.959   .     S
Cu94   N116    2.029   .     S
Cu94   O122    1.968   .     S
Cu94   O118    1.971   .     S
H96    C640    1.083   1_554 S
H108   C637    1.084   .     S
C125   O179    1.306   .     A
C125   O180    1.294   .     A
C125   C133    1.459   .     S
C126   C128    1.498   .     S
C126   C147    1.426   .     A
C126   C143    1.419   .     A
C127   I176    2.135   .     S
C127   C133    1.418   .     A
C127   C315    1.381   .     S
C128   O181    1.313   .     A
C128   O182    1.304   .     A
C129   C130    1.395   .     A
C129   H157    1.081   .     S
C129   C499    1.381   1_545 S
C130   C131    1.397   .     A
C130   C139    1.450   .     S
C131   H165    1.083   .     S
C131   C504    1.385   1_545 S
C132   H166    1.083   .     S
C132   C133    1.406   .     A
C132   C317    1.385   .     S
C134   H167    1.082   .     S
C134   N178    1.368   .     A
C134   C11     1.421   1_655 S
C135   N177    1.368   .     A
C135   H168    1.082   .     S
C136   C147    1.418   .     A
C136   C703    1.411   .     S
C136   C707    1.426   .     S
C137   C146    1.515   .     S
C137   N177    1.386   .     A
C138   I174    2.162   .     S
C138   N178    1.376   .     A
C138   C13     1.425   1_655 S
C139   O184    1.298   .     A
C139   O183    1.298   .     A
C140   O185    1.303   .     A
C140   O186    1.303   .     A
C140   C142    1.472   .     S
C141   C154    1.394   .     A
C141   C708    1.399   1_554 S
C141   H728    1.084   1_554 S
C142   C153    1.403   .     A
C142   C154    1.413   .     A
C143   C144    1.397   .     A
C143   C148    1.504   .     S
C144   C703    1.388   .     S
C144   H716    1.083   .     S
C145   H172    1.076   .     S
C145   C694    1.411   1_554 S
C145   C702    1.388   1_554 S
C146   H160    1.111   .     S
C146   H159    1.082   .     S
C146   H161    1.109   .     S
C147   C152    1.411   .     A
C148   H162    1.111   .     S
C148   H163    1.107   .     S
C148   H164    1.111   .     S
C149   C153    1.399   .     A
C149   C694    1.426   1_554 S
C149   C708    1.414   1_554 S
C150   C151    1.389   .     A
C150   C707    1.414   .     S
C150   C699    1.399   .     S
C151   H169    1.075   .     S
C151   C152    1.382   .     A
C152   I175    2.128   .     S
C153   H171    1.073   .     S
C154   I173    2.127   .     S
Cu155  O185    1.951   .     S
Cu155  O181    1.959   .     S
Cu155  N177    2.029   .     S
Cu155  O179    1.968   .     S
Cu155  O183    1.971   .     S
Cu155  Cu156   2.700   .     S
Cu156  O182    1.951   .     S
Cu156  O186    1.959   .     S
Cu156  N178    2.029   .     S
Cu156  O184    1.968   .     S
Cu156  O180    1.971   .     S
H158   C702    1.083   1_554 S
H170   C699    1.084   .     S
C187   O241    1.306   .     A
C187   O242    1.294   .     A
C187   C195    1.459   .     S
C188   C190    1.498   .     S
C188   C209    1.426   .     A
C188   C205    1.419   .     A
C189   I238    2.135   .     S
C189   C195    1.418   .     A
C189   C377    1.381   .     S
C190   O243    1.313   .     A
C190   O244    1.304   .     A
C191   C192    1.395   .     A
C191   H219    1.081   .     S
C192   C193    1.397   .     A
C192   C201    1.450   .     S
C193   H227    1.083   .     S
C194   H228    1.083   .     S
C194   C195    1.406   .     A
C194   C379    1.385   .     S
C196   H229    1.082   .     S
C196   N240    1.368   .     A
C196   C259    1.421   .     S
C197   N239    1.368   .     A
C197   H230    1.082   .     S
C197   C320    1.421   1_455 S
C198   C209    1.418   .     A
C198   C765    1.411   .     S
C198   C769    1.426   .     S
C199   C208    1.515   .     S
C199   N239    1.386   .     A
C199   C324    1.425   1_455 S
C200   I236    2.162   .     S
C200   N240    1.376   .     A
C200   C261    1.425   .     S
C201   O246    1.298   .     A
C201   O245    1.298   .     A
C202   O247    1.303   .     A
C202   O248    1.303   .     A
C202   C204    1.472   .     S
C203   C216    1.394   .     A
C203   C770    1.399   1_554 S
C203   H790    1.084   1_554 S
C204   C215    1.403   .     A
C204   C216    1.413   .     A
C205   C206    1.397   .     A
C205   C210    1.504   .     S
C206   C765    1.388   .     S
C206   H778    1.083   .     S
C207   H234    1.076   .     S
C207   C756    1.411   1_554 S
C207   C764    1.388   1_554 S
C208   H222    1.111   .     S
C208   H221    1.082   .     S
C208   H223    1.109   .     S
C209   C214    1.411   .     A
C210   H224    1.111   .     S
C210   H225    1.107   .     S
C210   H226    1.111   .     S
C211   C215    1.399   .     A
C211   C756    1.426   1_554 S
C211   C770    1.414   1_554 S
C212   C213    1.389   .     A
C212   C769    1.414   .     S
C212   C761    1.399   .     S
C213   H231    1.075   .     S
C213   C214    1.382   .     A
C214   I237    2.128   .     S
C215   H233    1.073   .     S
C216   I235    2.127   .     S
Cu217  O247    1.951   .     S
Cu217  O243    1.959   .     S
Cu217  N239    2.029   .     S
Cu217  O241    1.968   .     S
Cu217  O245    1.971   .     S
Cu217  Cu218   2.700   .     S
Cu218  O244    1.951   .     S
Cu218  O248    1.959   .     S
Cu218  N240    2.029   .     S
Cu218  O246    1.968   .     S
Cu218  O242    1.971   .     S
H220   C764    1.083   1_554 S
H232   C761    1.084   .     S
C249   O303    1.306   .     A
C249   O304    1.294   .     A
C249   C257    1.459   .     S
C250   C252    1.498   .     S
C250   C271    1.426   .     A
C250   C267    1.419   .     A
C251   I300    2.135   .     S
C251   C257    1.418   .     A
C251   C439    1.381   .     S
C252   O305    1.313   .     A
C252   O306    1.304   .     A
C253   C254    1.395   .     A
C253   H281    1.081   .     S
C254   C255    1.397   .     A
C254   C263    1.450   .     S
C255   H289    1.083   .     S
C256   H290    1.083   .     S
C256   C257    1.406   .     A
C256   C441    1.385   .     S
C258   H291    1.082   .     S
C258   N302    1.368   .     A
C258   C321    1.421   .     S
C259   N301    1.368   .     A
C259   H292    1.082   .     S
C260   C271    1.418   .     A
C260   C827    1.411   .     S
C260   C831    1.426   .     S
C261   C270    1.515   .     S
C261   N301    1.386   .     A
C262   I298    2.162   .     S
C262   N302    1.376   .     A
C262   C323    1.425   .     S
C263   O308    1.298   .     A
C263   O307    1.298   .     A
C264   O309    1.303   .     A
C264   O310    1.303   .     A
C264   C266    1.472   .     S
C265   C278    1.394   .     A
C265   C832    1.399   1_554 S
C265   H852    1.084   1_554 S
C266   C277    1.403   .     A
C266   C278    1.413   .     A
C267   C268    1.397   .     A
C267   C272    1.504   .     S
C268   C827    1.388   .     S
C268   H840    1.083   .     S
C269   H296    1.076   .     S
C269   C818    1.411   1_554 S
C269   C826    1.388   1_554 S
C270   H284    1.111   .     S
C270   H283    1.082   .     S
C270   H285    1.109   .     S
C271   C276    1.411   .     A
C272   H286    1.111   .     S
C272   H287    1.107   .     S
C272   H288    1.111   .     S
C273   C277    1.399   .     A
C273   C818    1.426   1_554 S
C273   C832    1.414   1_554 S
C274   C275    1.389   .     A
C274   C831    1.414   .     S
C274   C823    1.399   .     S
C275   H293    1.075   .     S
C275   C276    1.382   .     A
C276   I299    2.128   .     S
C277   H295    1.073   .     S
C278   I297    2.127   .     S
Cu279  O309    1.951   .     S
Cu279  O305    1.959   .     S
Cu279  N301    2.029   .     S
Cu279  O303    1.968   .     S
Cu279  O307    1.971   .     S
Cu279  Cu280   2.700   .     S
Cu280  O306    1.951   .     S
Cu280  O310    1.959   .     S
Cu280  N302    2.029   .     S
Cu280  O308    1.968   .     S
Cu280  O304    1.971   .     S
H282   C826    1.083   1_554 S
H294   C823    1.084   .     S
C311   O365    1.306   .     A
C311   O366    1.294   .     A
C311   C319    1.459   .     S
C312   C314    1.498   .     S
C312   C333    1.426   .     A
C312   C329    1.419   .     A
C313   I362    2.135   .     S
C313   C319    1.418   .     A
C313   C501    1.381   .     S
C314   O367    1.313   .     A
C314   O368    1.304   .     A
C315   C316    1.395   .     A
C315   H343    1.081   .     S
C316   C317    1.397   .     A
C316   C325    1.450   .     S
C317   H351    1.083   .     S
C318   H352    1.083   .     S
C318   C319    1.406   .     A
C318   C503    1.385   .     S
C320   H353    1.082   .     S
C320   N364    1.368   .     A
C320   C197    1.421   1_655 S
C321   N363    1.368   .     A
C321   H354    1.082   .     S
C322   C333    1.418   .     A
C322   C889    1.411   .     S
C322   C893    1.426   .     S
C323   C332    1.515   .     S
C323   N363    1.386   .     A
C324   I360    2.162   .     S
C324   N364    1.376   .     A
C324   C199    1.425   1_655 S
C325   O370    1.298   .     A
C325   O369    1.298   .     A
C326   O371    1.303   .     A
C326   O372    1.303   .     A
C326   C328    1.472   .     S
C327   C340    1.394   .     A
C327   C894    1.399   1_554 S
C327   H914    1.084   1_554 S
C328   C339    1.403   .     A
C328   C340    1.413   .     A
C329   C330    1.397   .     A
C329   C334    1.504   .     S
C330   C889    1.388   .     S
C330   H902    1.083   .     S
C331   H358    1.076   .     S
C331   C880    1.411   1_554 S
C331   C888    1.388   1_554 S
C332   H346    1.111   .     S
C332   H345    1.082   .     S
C332   H347    1.109   .     S
C333   C338    1.411   .     A
C334   H348    1.111   .     S
C334   H349    1.107   .     S
C334   H350    1.111   .     S
C335   C339    1.399   .     A
C335   C880    1.426   1_554 S
C335   C894    1.414   1_554 S
C336   C337    1.389   .     A
C336   C893    1.414   .     S
C336   C885    1.399   .     S
C337   H355    1.075   .     S
C337   C338    1.382   .     A
C338   I361    2.128   .     S
C339   H357    1.073   .     S
C340   I359    2.127   .     S
Cu341  O371    1.951   .     S
Cu341  O367    1.959   .     S
Cu341  N363    2.029   .     S
Cu341  O365    1.968   .     S
Cu341  O369    1.971   .     S
Cu341  Cu342   2.700   .     S
Cu342  O368    1.951   .     S
Cu342  O372    1.959   .     S
Cu342  N364    2.029   .     S
Cu342  O370    1.968   .     S
Cu342  O366    1.971   .     S
H344   C888    1.083   1_554 S
H356   C885    1.084   .     S
C373   O427    1.306   .     A
C373   O428    1.294   .     A
C373   C381    1.459   .     S
C374   C376    1.498   .     S
C374   C395    1.426   .     A
C374   C391    1.419   .     A
C375   I424    2.135   .     S
C375   C381    1.418   .     A
C375   C5      1.381   1_565 S
C376   O429    1.313   .     A
C376   O430    1.304   .     A
C377   C378    1.395   .     A
C377   H405    1.081   .     S
C378   C379    1.397   .     A
C378   C387    1.450   .     S
C379   H413    1.083   .     S
C380   H414    1.083   .     S
C380   C381    1.406   .     A
C380   C7      1.385   1_565 S
C382   H415    1.082   .     S
C382   N426    1.368   .     A
C382   C445    1.421   .     S
C383   N425    1.368   .     A
C383   H416    1.082   .     S
C383   C506    1.421   1_455 S
C384   C395    1.418   .     A
C384   C951    1.411   .     S
C384   C955    1.426   .     S
C385   C394    1.515   .     S
C385   N425    1.386   .     A
C385   C510    1.425   1_455 S
C386   I422    2.162   .     S
C386   N426    1.376   .     A
C386   C447    1.425   .     S
C387   O432    1.298   .     A
C387   O431    1.298   .     A
C388   O433    1.303   .     A
C388   O434    1.303   .     A
C388   C390    1.472   .     S
C389   C402    1.394   .     A
C389   C956    1.399   1_554 S
C389   H976    1.084   1_554 S
C390   C401    1.403   .     A
C390   C402    1.413   .     A
C391   C392    1.397   .     A
C391   C396    1.504   .     S
C392   C951    1.388   .     S
C392   H964    1.083   .     S
C393   H420    1.076   .     S
C393   C942    1.411   1_554 S
C393   C950    1.388   1_554 S
C394   H408    1.111   .     S
C394   H407    1.082   .     S
C394   H409    1.109   .     S
C395   C400    1.411   .     A
C396   H410    1.111   .     S
C396   H411    1.107   .     S
C396   H412    1.111   .     S
C397   C401    1.399   .     A
C397   C942    1.426   1_554 S
C397   C956    1.414   1_554 S
C398   C399    1.389   .     A
C398   C955    1.414   .     S
C398   C947    1.399   .     S
C399   H417    1.075   .     S
C399   C400    1.382   .     A
C400   I423    2.128   .     S
C401   H419    1.073   .     S
C402   I421    2.127   .     S
Cu403  O433    1.951   .     S
Cu403  O429    1.959   .     S
Cu403  N425    2.029   .     S
Cu403  O427    1.968   .     S
Cu403  O431    1.971   .     S
Cu403  Cu404   2.700   .     S
Cu404  O430    1.951   .     S
Cu404  O434    1.959   .     S
Cu404  N426    2.029   .     S
Cu404  O432    1.968   .     S
Cu404  O428    1.971   .     S
H406   C950    1.083   1_554 S
H418   C947    1.084   .     S
C435   O489    1.306   .     A
C435   O490    1.294   .     A
C435   C443    1.459   .     S
C436   C438    1.498   .     S
C436   C457    1.426   .     A
C436   C453    1.419   .     A
C437   I486    2.135   .     S
C437   C443    1.418   .     A
C437   C67     1.381   1_565 S
C438   O491    1.313   .     A
C438   O492    1.304   .     A
C439   C440    1.395   .     A
C439   H467    1.081   .     S
C440   C441    1.397   .     A
C440   C449    1.450   .     S
C441   H475    1.083   .     S
C442   H476    1.083   .     S
C442   C443    1.406   .     A
C442   C69     1.385   1_565 S
C444   H477    1.082   .     S
C444   N488    1.368   .     A
C444   C507    1.421   .     S
C445   N487    1.368   .     A
C445   H478    1.082   .     S
C446   C457    1.418   .     A
C446   C1013   1.411   .     S
C446   C1017   1.426   .     S
C447   C456    1.515   .     S
C447   N487    1.386   .     A
C448   I484    2.162   .     S
C448   N488    1.376   .     A
C448   C509    1.425   .     S
C449   O494    1.298   .     A
C449   O493    1.298   .     A
C450   O495    1.303   .     A
C450   O496    1.303   .     A
C450   C452    1.472   .     S
C451   C464    1.394   .     A
C451   C1018   1.399   1_554 S
C451   H1038   1.084   1_554 S
C452   C463    1.403   .     A
C452   C464    1.413   .     A
C453   C454    1.397   .     A
C453   C458    1.504   .     S
C454   C1013   1.388   .     S
C454   H1026   1.083   .     S
C455   H482    1.076   .     S
C455   C1004   1.411   1_554 S
C455   C1012   1.388   1_554 S
C456   H470    1.111   .     S
C456   H469    1.082   .     S
C456   H471    1.109   .     S
C457   C462    1.411   .     A
C458   H472    1.111   .     S
C458   H473    1.107   .     S
C458   H474    1.111   .     S
C459   C463    1.399   .     A
C459   C1004   1.426   1_554 S
C459   C1018   1.414   1_554 S
C460   C461    1.389   .     A
C460   C1017   1.414   .     S
C460   C1009   1.399   .     S
C461   H479    1.075   .     S
C461   C462    1.382   .     A
C462   I485    2.128   .     S
C463   H481    1.073   .     S
C464   I483    2.127   .     S
Cu465  O495    1.951   .     S
Cu465  O491    1.959   .     S
Cu465  N487    2.029   .     S
Cu465  O489    1.968   .     S
Cu465  O493    1.971   .     S
Cu465  Cu466   2.700   .     S
Cu466  O492    1.951   .     S
Cu466  O496    1.959   .     S
Cu466  N488    2.029   .     S
Cu466  O494    1.968   .     S
Cu466  O490    1.971   .     S
H468   C1012   1.083   1_554 S
H480   C1009   1.084   .     S
C497   O551    1.306   .     A
C497   O552    1.294   .     A
C497   C505    1.459   .     S
C498   C500    1.498   .     S
C498   C519    1.426   .     A
C498   C515    1.419   .     A
C499   I548    2.135   .     S
C499   C505    1.418   .     A
C499   C129    1.381   1_565 S
C500   O553    1.313   .     A
C500   O554    1.304   .     A
C501   C502    1.395   .     A
C501   H529    1.081   .     S
C502   C503    1.397   .     A
C502   C511    1.450   .     S
C503   H537    1.083   .     S
C504   H538    1.083   .     S
C504   C505    1.406   .     A
C504   C131    1.385   1_565 S
C506   H539    1.082   .     S
C506   N550    1.368   .     A
C506   C383    1.421   1_655 S
C507   N549    1.368   .     A
C507   H540    1.082   .     S
C508   C519    1.418   .     A
C508   C1075   1.411   .     S
C508   C1079   1.426   .     S
C509   C518    1.515   .     S
C509   N549    1.386   .     A
C510   I546    2.162   .     S
C510   N550    1.376   .     A
C510   C385    1.425   1_655 S
C511   O556    1.298   .     A
C511   O555    1.298   .     A
C512   O557    1.303   .     A
C512   O558    1.303   .     A
C512   C514    1.472   .     S
C513   C526    1.394   .     A
C513   C1080   1.399   1_554 S
C513   H1100   1.084   1_554 S
C514   C525    1.403   .     A
C514   C526    1.413   .     A
C515   C516    1.397   .     A
C515   C520    1.504   .     S
C516   C1075   1.388   .     S
C516   H1088   1.083   .     S
C517   H544    1.076   .     S
C517   C1066   1.411   1_554 S
C517   C1074   1.388   1_554 S
C518   H532    1.111   .     S
C518   H531    1.082   .     S
C518   H533    1.109   .     S
C519   C524    1.411   .     A
C520   H534    1.111   .     S
C520   H535    1.107   .     S
C520   H536    1.111   .     S
C521   C525    1.399   .     A
C521   C1066   1.426   1_554 S
C521   C1080   1.414   1_554 S
C522   C523    1.389   .     A
C522   C1079   1.414   .     S
C522   C1071   1.399   .     S
C523   H541    1.075   .     S
C523   C524    1.382   .     A
C524   I547    2.128   .     S
C525   H543    1.073   .     S
C526   I545    2.127   .     S
Cu527  O557    1.951   .     S
Cu527  O553    1.959   .     S
Cu527  N549    2.029   .     S
Cu527  O551    1.968   .     S
Cu527  O555    1.971   .     S
Cu527  Cu528   2.700   .     S
Cu528  O554    1.951   .     S
Cu528  O558    1.959   .     S
Cu528  N550    2.029   .     S
Cu528  O556    1.968   .     S
Cu528  O552    1.971   .     S
H530   C1074   1.083   1_554 S
H542   C1071   1.084   .     S
C559   O613    1.306   .     A
C559   O614    1.294   .     A
C559   C567    1.459   .     S
C560   C562    1.498   .     S
C560   C581    1.426   .     A
C560   C577    1.419   .     A
C561   I610    2.135   .     S
C561   C567    1.418   .     A
C561   C749    1.381   .     S
C562   O615    1.313   .     A
C562   O616    1.304   .     A
C563   C564    1.395   .     A
C563   H591    1.081   .     S
C563   C933    1.381   1_545 S
C564   C565    1.397   .     A
C564   C573    1.450   .     S
C565   H599    1.083   .     S
C565   C938    1.385   1_545 S
C566   H600    1.083   .     S
C566   C567    1.406   .     A
C566   C751    1.385   .     S
C568   H601    1.082   .     S
C568   N612    1.368   .     A
C568   C631    1.421   .     S
C569   N611    1.368   .     A
C569   H602    1.082   .     S
C569   C692    1.421   1_455 S
C570   C581    1.418   .     A
C570   C21     1.411   1_556 S
C570   C25     1.426   1_556 S
C571   C580    1.515   .     S
C571   N611    1.386   .     A
C571   C696    1.425   1_455 S
C572   I608    2.162   .     S
C572   N612    1.376   .     A
C572   C633    1.425   .     S
C573   O618    1.298   .     A
C573   O617    1.298   .     A
C574   O619    1.303   .     A
C574   O620    1.303   .     A
C574   C576    1.472   .     S
C575   C588    1.394   .     A
C576   C587    1.403   .     A
C576   C588    1.413   .     A
C577   C578    1.397   .     A
C577   C582    1.504   .     S
C578   C21     1.388   1_556 S
C578   H34     1.083   1_556 S
C579   H606    1.076   .     S
C580   H594    1.111   .     S
C580   H593    1.082   .     S
C580   H595    1.109   .     S
C581   C586    1.411   .     A
C582   H596    1.111   .     S
C582   H597    1.107   .     S
C582   H598    1.111   .     S
C583   C587    1.399   .     A
C584   C585    1.389   .     A
C584   C25     1.414   1_556 S
C584   C17     1.399   1_556 S
C585   H603    1.075   .     S
C585   C586    1.382   .     A
C586   I609    2.128   .     S
C587   H605    1.073   .     S
C588   I607    2.127   .     S
Cu589  O619    1.951   .     S
Cu589  O615    1.959   .     S
Cu589  N611    2.029   .     S
Cu589  O613    1.968   .     S
Cu589  O617    1.971   .     S
Cu589  Cu590   2.700   .     S
Cu590  O616    1.951   .     S
Cu590  O620    1.959   .     S
Cu590  N612    2.029   .     S
Cu590  O618    1.968   .     S
Cu590  O614    1.971   .     S
H604   C17     1.084   1_556 S
C621   O675    1.306   .     A
C621   O676    1.294   .     A
C621   C629    1.459   .     S
C622   C624    1.498   .     S
C622   C643    1.426   .     A
C622   C639    1.419   .     A
C623   I672    2.135   .     S
C623   C629    1.418   .     A
C623   C811    1.381   .     S
C624   O677    1.313   .     A
C624   O678    1.304   .     A
C625   C626    1.395   .     A
C625   H653    1.081   .     S
C625   C995    1.381   1_545 S
C626   C627    1.397   .     A
C626   C635    1.450   .     S
C627   H661    1.083   .     S
C627   C1000   1.385   1_545 S
C628   H662    1.083   .     S
C628   C629    1.406   .     A
C628   C813    1.385   .     S
C630   H663    1.082   .     S
C630   N674    1.368   .     A
C630   C693    1.421   .     S
C631   N673    1.368   .     A
C631   H664    1.082   .     S
C632   C643    1.418   .     A
C632   C83     1.411   1_556 S
C632   C87     1.426   1_556 S
C633   C642    1.515   .     S
C633   N673    1.386   .     A
C634   I670    2.162   .     S
C634   N674    1.376   .     A
C634   C695    1.425   .     S
C635   O680    1.298   .     A
C635   O679    1.298   .     A
C636   O681    1.303   .     A
C636   O682    1.303   .     A
C636   C638    1.472   .     S
C637   C650    1.394   .     A
C638   C649    1.403   .     A
C638   C650    1.413   .     A
C639   C640    1.397   .     A
C639   C644    1.504   .     S
C640   C83     1.388   1_556 S
C640   H96     1.083   1_556 S
C641   H668    1.076   .     S
C642   H656    1.111   .     S
C642   H655    1.082   .     S
C642   H657    1.109   .     S
C643   C648    1.411   .     A
C644   H658    1.111   .     S
C644   H659    1.107   .     S
C644   H660    1.111   .     S
C645   C649    1.399   .     A
C646   C647    1.389   .     A
C646   C87     1.414   1_556 S
C646   C79     1.399   1_556 S
C647   H665    1.075   .     S
C647   C648    1.382   .     A
C648   I671    2.128   .     S
C649   H667    1.073   .     S
C650   I669    2.127   .     S
Cu651  O681    1.951   .     S
Cu651  O677    1.959   .     S
Cu651  N673    2.029   .     S
Cu651  O675    1.968   .     S
Cu651  O679    1.971   .     S
Cu651  Cu652   2.700   .     S
Cu652  O678    1.951   .     S
Cu652  O682    1.959   .     S
Cu652  N674    2.029   .     S
Cu652  O680    1.968   .     S
Cu652  O676    1.971   .     S
H666   C79     1.084   1_556 S
C683   O737    1.306   .     A
C683   O738    1.294   .     A
C683   C691    1.459   .     S
C684   C686    1.498   .     S
C684   C705    1.426   .     A
C684   C701    1.419   .     A
C685   I734    2.135   .     S
C685   C691    1.418   .     A
C685   C873    1.381   .     S
C686   O739    1.313   .     A
C686   O740    1.304   .     A
C687   C688    1.395   .     A
C687   H715    1.081   .     S
C687   C1057   1.381   1_545 S
C688   C689    1.397   .     A
C688   C697    1.450   .     S
C689   H723    1.083   .     S
C689   C1062   1.385   1_545 S
C690   H724    1.083   .     S
C690   C691    1.406   .     A
C690   C875    1.385   .     S
C692   H725    1.082   .     S
C692   N736    1.368   .     A
C692   C569    1.421   1_655 S
C693   N735    1.368   .     A
C693   H726    1.082   .     S
C694   C705    1.418   .     A
C694   C145    1.411   1_556 S
C694   C149    1.426   1_556 S
C695   C704    1.515   .     S
C695   N735    1.386   .     A
C696   I732    2.162   .     S
C696   N736    1.376   .     A
C696   C571    1.425   1_655 S
C697   O742    1.298   .     A
C697   O741    1.298   .     A
C698   O743    1.303   .     A
C698   O744    1.303   .     A
C698   C700    1.472   .     S
C699   C712    1.394   .     A
C700   C711    1.403   .     A
C700   C712    1.413   .     A
C701   C702    1.397   .     A
C701   C706    1.504   .     S
C702   C145    1.388   1_556 S
C702   H158    1.083   1_556 S
C703   H730    1.076   .     S
C704   H718    1.111   .     S
C704   H717    1.082   .     S
C704   H719    1.109   .     S
C705   C710    1.411   .     A
C706   H720    1.111   .     S
C706   H721    1.107   .     S
C706   H722    1.111   .     S
C707   C711    1.399   .     A
C708   C709    1.389   .     A
C708   C149    1.414   1_556 S
C708   C141    1.399   1_556 S
C709   H727    1.075   .     S
C709   C710    1.382   .     A
C710   I733    2.128   .     S
C711   H729    1.073   .     S
C712   I731    2.127   .     S
Cu713  O743    1.951   .     S
Cu713  O739    1.959   .     S
Cu713  N735    2.029   .     S
Cu713  O737    1.968   .     S
Cu713  O741    1.971   .     S
Cu713  Cu714   2.700   .     S
Cu714  O740    1.951   .     S
Cu714  O744    1.959   .     S
Cu714  N736    2.029   .     S
Cu714  O742    1.968   .     S
Cu714  O738    1.971   .     S
H728   C141    1.084   1_556 S
C745   O799    1.306   .     A
C745   O800    1.294   .     A
C745   C753    1.459   .     S
C746   C748    1.498   .     S
C746   C767    1.426   .     A
C746   C763    1.419   .     A
C747   I796    2.135   .     S
C747   C753    1.418   .     A
C747   C935    1.381   .     S
C748   O801    1.313   .     A
C748   O802    1.304   .     A
C749   C750    1.395   .     A
C749   H777    1.081   .     S
C750   C751    1.397   .     A
C750   C759    1.450   .     S
C751   H785    1.083   .     S
C752   H786    1.083   .     S
C752   C753    1.406   .     A
C752   C937    1.385   .     S
C754   H787    1.082   .     S
C754   N798    1.368   .     A
C754   C817    1.421   .     S
C755   N797    1.368   .     A
C755   H788    1.082   .     S
C755   C878    1.421   1_455 S
C756   C767    1.418   .     A
C756   C207    1.411   1_556 S
C756   C211    1.426   1_556 S
C757   C766    1.515   .     S
C757   N797    1.386   .     A
C757   C882    1.425   1_455 S
C758   I794    2.162   .     S
C758   N798    1.376   .     A
C758   C819    1.425   .     S
C759   O804    1.298   .     A
C759   O803    1.298   .     A
C760   O805    1.303   .     A
C760   O806    1.303   .     A
C760   C762    1.472   .     S
C761   C774    1.394   .     A
C762   C773    1.403   .     A
C762   C774    1.413   .     A
C763   C764    1.397   .     A
C763   C768    1.504   .     S
C764   C207    1.388   1_556 S
C764   H220    1.083   1_556 S
C765   H792    1.076   .     S
C766   H780    1.111   .     S
C766   H779    1.082   .     S
C766   H781    1.109   .     S
C767   C772    1.411   .     A
C768   H782    1.111   .     S
C768   H783    1.107   .     S
C768   H784    1.111   .     S
C769   C773    1.399   .     A
C770   C771    1.389   .     A
C770   C211    1.414   1_556 S
C770   C203    1.399   1_556 S
C771   H789    1.075   .     S
C771   C772    1.382   .     A
C772   I795    2.128   .     S
C773   H791    1.073   .     S
C774   I793    2.127   .     S
Cu775  O805    1.951   .     S
Cu775  O801    1.959   .     S
Cu775  N797    2.029   .     S
Cu775  O799    1.968   .     S
Cu775  O803    1.971   .     S
Cu775  Cu776   2.700   .     S
Cu776  O802    1.951   .     S
Cu776  O806    1.959   .     S
Cu776  N798    2.029   .     S
Cu776  O804    1.968   .     S
Cu776  O800    1.971   .     S
H790   C203    1.084   1_556 S
C807   O861    1.306   .     A
C807   O862    1.294   .     A
C807   C815    1.459   .     S
C808   C810    1.498   .     S
C808   C829    1.426   .     A
C808   C825    1.419   .     A
C809   I858    2.135   .     S
C809   C815    1.418   .     A
C809   C997    1.381   .     S
C810   O863    1.313   .     A
C810   O864    1.304   .     A
C811   C812    1.395   .     A
C811   H839    1.081   .     S
C812   C813    1.397   .     A
C812   C821    1.450   .     S
C813   H847    1.083   .     S
C814   H848    1.083   .     S
C814   C815    1.406   .     A
C814   C999    1.385   .     S
C816   H849    1.082   .     S
C816   N860    1.368   .     A
C816   C879    1.421   .     S
C817   N859    1.368   .     A
C817   H850    1.082   .     S
C818   C829    1.418   .     A
C818   C269    1.411   1_556 S
C818   C273    1.426   1_556 S
C819   C828    1.515   .     S
C819   N859    1.386   .     A
C820   I856    2.162   .     S
C820   N860    1.376   .     A
C820   C881    1.425   .     S
C821   O866    1.298   .     A
C821   O865    1.298   .     A
C822   O867    1.303   .     A
C822   O868    1.303   .     A
C822   C824    1.472   .     S
C823   C836    1.394   .     A
C824   C835    1.403   .     A
C824   C836    1.413   .     A
C825   C826    1.397   .     A
C825   C830    1.504   .     S
C826   C269    1.388   1_556 S
C826   H282    1.083   1_556 S
C827   H854    1.076   .     S
C828   H842    1.111   .     S
C828   H841    1.082   .     S
C828   H843    1.109   .     S
C829   C834    1.411   .     A
C830   H844    1.111   .     S
C830   H845    1.107   .     S
C830   H846    1.111   .     S
C831   C835    1.399   .     A
C832   C833    1.389   .     A
C832   C273    1.414   1_556 S
C832   C265    1.399   1_556 S
C833   H851    1.075   .     S
C833   C834    1.382   .     A
C834   I857    2.128   .     S
C835   H853    1.073   .     S
C836   I855    2.127   .     S
Cu837  O867    1.951   .     S
Cu837  O863    1.959   .     S
Cu837  N859    2.029   .     S
Cu837  O861    1.968   .     S
Cu837  O865    1.971   .     S
Cu837  Cu838   2.700   .     S
Cu838  O864    1.951   .     S
Cu838  O868    1.959   .     S
Cu838  N860    2.029   .     S
Cu838  O866    1.968   .     S
Cu838  O862    1.971   .     S
H852   C265    1.084   1_556 S
C869   O923    1.306   .     A
C869   O924    1.294   .     A
C869   C877    1.459   .     S
C870   C872    1.498   .     S
C870   C891    1.426   .     A
C870   C887    1.419   .     A
C871   I920    2.135   .     S
C871   C877    1.418   .     A
C871   C1059   1.381   .     S
C872   O925    1.313   .     A
C872   O926    1.304   .     A
C873   C874    1.395   .     A
C873   H901    1.081   .     S
C874   C875    1.397   .     A
C874   C883    1.450   .     S
C875   H909    1.083   .     S
C876   H910    1.083   .     S
C876   C877    1.406   .     A
C876   C1061   1.385   .     S
C878   H911    1.082   .     S
C878   N922    1.368   .     A
C878   C755    1.421   1_655 S
C879   N921    1.368   .     A
C879   H912    1.082   .     S
C880   C891    1.418   .     A
C880   C331    1.411   1_556 S
C880   C335    1.426   1_556 S
C881   C890    1.515   .     S
C881   N921    1.386   .     A
C882   I918    2.162   .     S
C882   N922    1.376   .     A
C882   C757    1.425   1_655 S
C883   O928    1.298   .     A
C883   O927    1.298   .     A
C884   O929    1.303   .     A
C884   O930    1.303   .     A
C884   C886    1.472   .     S
C885   C898    1.394   .     A
C886   C897    1.403   .     A
C886   C898    1.413   .     A
C887   C888    1.397   .     A
C887   C892    1.504   .     S
C888   C331    1.388   1_556 S
C888   H344    1.083   1_556 S
C889   H916    1.076   .     S
C890   H904    1.111   .     S
C890   H903    1.082   .     S
C890   H905    1.109   .     S
C891   C896    1.411   .     A
C892   H906    1.111   .     S
C892   H907    1.107   .     S
C892   H908    1.111   .     S
C893   C897    1.399   .     A
C894   C895    1.389   .     A
C894   C335    1.414   1_556 S
C894   C327    1.399   1_556 S
C895   H913    1.075   .     S
C895   C896    1.382   .     A
C896   I919    2.128   .     S
C897   H915    1.073   .     S
C898   I917    2.127   .     S
Cu899  O929    1.951   .     S
Cu899  O925    1.959   .     S
Cu899  N921    2.029   .     S
Cu899  O923    1.968   .     S
Cu899  O927    1.971   .     S
Cu899  Cu900   2.700   .     S
Cu900  O926    1.951   .     S
Cu900  O930    1.959   .     S
Cu900  N922    2.029   .     S
Cu900  O928    1.968   .     S
Cu900  O924    1.971   .     S
H914   C327    1.084   1_556 S
C931   O985    1.306   .     A
C931   O986    1.294   .     A
C931   C939    1.459   .     S
C932   C934    1.498   .     S
C932   C953    1.426   .     A
C932   C949    1.419   .     A
C933   I982    2.135   .     S
C933   C939    1.418   .     A
C933   C563    1.381   1_565 S
C934   O987    1.313   .     A
C934   O988    1.304   .     A
C935   C936    1.395   .     A
C935   H963    1.081   .     S
C936   C937    1.397   .     A
C936   C945    1.450   .     S
C937   H971    1.083   .     S
C938   H972    1.083   .     S
C938   C939    1.406   .     A
C938   C565    1.385   1_565 S
C940   H973    1.082   .     S
C940   N984    1.368   .     A
C940   C1003   1.421   .     S
C941   N983    1.368   .     A
C941   H974    1.082   .     S
C941   C1064   1.421   1_455 S
C942   C953    1.418   .     A
C942   C393    1.411   1_556 S
C942   C397    1.426   1_556 S
C943   C952    1.515   .     S
C943   N983    1.386   .     A
C943   C1068   1.425   1_455 S
C944   I980    2.162   .     S
C944   N984    1.376   .     A
C944   C1005   1.425   .     S
C945   O990    1.298   .     A
C945   O989    1.298   .     A
C946   O991    1.303   .     A
C946   O992    1.303   .     A
C946   C948    1.472   .     S
C947   C960    1.394   .     A
C948   C959    1.403   .     A
C948   C960    1.413   .     A
C949   C950    1.397   .     A
C949   C954    1.504   .     S
C950   C393    1.388   1_556 S
C950   H406    1.083   1_556 S
C951   H978    1.076   .     S
C952   H966    1.111   .     S
C952   H965    1.082   .     S
C952   H967    1.109   .     S
C953   C958    1.411   .     A
C954   H968    1.111   .     S
C954   H969    1.107   .     S
C954   H970    1.111   .     S
C955   C959    1.399   .     A
C956   C957    1.389   .     A
C956   C397    1.414   1_556 S
C956   C389    1.399   1_556 S
C957   H975    1.075   .     S
C957   C958    1.382   .     A
C958   I981    2.128   .     S
C959   H977    1.073   .     S
C960   I979    2.127   .     S
Cu961  O991    1.951   .     S
Cu961  O987    1.959   .     S
Cu961  N983    2.029   .     S
Cu961  O985    1.968   .     S
Cu961  O989    1.971   .     S
Cu961  Cu962   2.700   .     S
Cu962  O988    1.951   .     S
Cu962  O992    1.959   .     S
Cu962  N984    2.029   .     S
Cu962  O990    1.968   .     S
Cu962  O986    1.971   .     S
H976   C389    1.084   1_556 S
C993   O1047   1.306   .     A
C993   O1048   1.294   .     A
C993   C1001   1.459   .     S
C994   C996    1.498   .     S
C994   C1015   1.426   .     A
C994   C1011   1.419   .     A
C995   I1044   2.135   .     S
C995   C1001   1.418   .     A
C995   C625    1.381   1_565 S
C996   O1049   1.313   .     A
C996   O1050   1.304   .     A
C997   C998    1.395   .     A
C997   H1025   1.081   .     S
C998   C999    1.397   .     A
C998   C1007   1.450   .     S
C999   H1033   1.083   .     S
C1000  H1034   1.083   .     S
C1000  C1001   1.406   .     A
C1000  C627    1.385   1_565 S
C1002  H1035   1.082   .     S
C1002  N1046   1.368   .     A
C1002  C1065   1.421   .     S
C1003  N1045   1.368   .     A
C1003  H1036   1.082   .     S
C1004  C1015   1.418   .     A
C1004  C455    1.411   1_556 S
C1004  C459    1.426   1_556 S
C1005  C1014   1.515   .     S
C1005  N1045   1.386   .     A
C1006  I1042   2.162   .     S
C1006  N1046   1.376   .     A
C1006  C1067   1.425   .     S
C1007  O1052   1.298   .     A
C1007  O1051   1.298   .     A
C1008  O1053   1.303   .     A
C1008  O1054   1.303   .     A
C1008  C1010   1.472   .     S
C1009  C1022   1.394   .     A
C1010  C1021   1.403   .     A
C1010  C1022   1.413   .     A
C1011  C1012   1.397   .     A
C1011  C1016   1.504   .     S
C1012  C455    1.388   1_556 S
C1012  H468    1.083   1_556 S
C1013  H1040   1.076   .     S
C1014  H1028   1.111   .     S
C1014  H1027   1.082   .     S
C1014  H1029   1.109   .     S
C1015  C1020   1.411   .     A
C1016  H1030   1.111   .     S
C1016  H1031   1.107   .     S
C1016  H1032   1.111   .     S
C1017  C1021   1.399   .     A
C1018  C1019   1.389   .     A
C1018  C459    1.414   1_556 S
C1018  C451    1.399   1_556 S
C1019  H1037   1.075   .     S
C1019  C1020   1.382   .     A
C1020  I1043   2.128   .     S
C1021  H1039   1.073   .     S
C1022  I1041   2.127   .     S
Cu1023 O1053   1.951   .     S
Cu1023 O1049   1.959   .     S
Cu1023 N1045   2.029   .     S
Cu1023 O1047   1.968   .     S
Cu1023 O1051   1.971   .     S
Cu1023 Cu1024  2.700   .     S
Cu1024 O1050   1.951   .     S
Cu1024 O1054   1.959   .     S
Cu1024 N1046   2.029   .     S
Cu1024 O1052   1.968   .     S
Cu1024 O1048   1.971   .     S
H1038  C451    1.084   1_556 S
C1055  O1109   1.306   .     A
C1055  O1110   1.294   .     A
C1055  C1063   1.459   .     S
C1056  C1058   1.498   .     S
C1056  C1077   1.426   .     A
C1056  C1073   1.419   .     A
C1057  I1106   2.135   .     S
C1057  C1063   1.418   .     A
C1057  C687    1.381   1_565 S
C1058  O1111   1.313   .     A
C1058  O1112   1.304   .     A
C1059  C1060   1.395   .     A
C1059  H1087   1.081   .     S
C1060  C1061   1.397   .     A
C1060  C1069   1.450   .     S
C1061  H1095   1.083   .     S
C1062  H1096   1.083   .     S
C1062  C1063   1.406   .     A
C1062  C689    1.385   1_565 S
C1064  H1097   1.082   .     S
C1064  N1108   1.368   .     A
C1064  C941    1.421   1_655 S
C1065  N1107   1.368   .     A
C1065  H1098   1.082   .     S
C1066  C1077   1.418   .     A
C1066  C517    1.411   1_556 S
C1066  C521    1.426   1_556 S
C1067  C1076   1.515   .     S
C1067  N1107   1.386   .     A
C1068  I1104   2.162   .     S
C1068  N1108   1.376   .     A
C1068  C943    1.425   1_655 S
C1069  O1114   1.298   .     A
C1069  O1113   1.298   .     A
C1070  O1115   1.303   .     A
C1070  O1116   1.303   .     A
C1070  C1072   1.472   .     S
C1071  C1084   1.394   .     A
C1072  C1083   1.403   .     A
C1072  C1084   1.413   .     A
C1073  C1074   1.397   .     A
C1073  C1078   1.504   .     S
C1074  C517    1.388   1_556 S
C1074  H530    1.083   1_556 S
C1075  H1102   1.076   .     S
C1076  H1090   1.111   .     S
C1076  H1089   1.082   .     S
C1076  H1091   1.109   .     S
C1077  C1082   1.411   .     A
C1078  H1092   1.111   .     S
C1078  H1093   1.107   .     S
C1078  H1094   1.111   .     S
C1079  C1083   1.399   .     A
C1080  C1081   1.389   .     A
C1080  C521    1.414   1_556 S
C1080  C513    1.399   1_556 S
C1081  H1099   1.075   .     S
C1081  C1082   1.382   .     A
C1082  I1105   2.128   .     S
C1083  H1101   1.073   .     S
C1084  I1103   2.127   .     S
Cu1085 O1115   1.951   .     S
Cu1085 O1111   1.959   .     S
Cu1085 N1107   2.029   .     S
Cu1085 O1109   1.968   .     S
Cu1085 O1113   1.971   .     S
Cu1085 Cu1086  2.700   .     S
Cu1086 O1112   1.951   .     S
Cu1086 O1116   1.959   .     S
Cu1086 N1108   2.029   .     S
Cu1086 O1114   1.968   .     S
Cu1086 O1110   1.971   .     S
H1100  C513    1.084   1_556 S
