data_str_m3_o2_o10_pcu_sym.9
_audit_creation_date              2020-01-03
_audit_creation_method            'Materials Studio'
_symmetry_space_group_name_H-M    'P1'
_symmetry_Int_Tables_number       1
_symmetry_cell_setting            triclinic
loop_
_symmetry_equiv_pos_as_xyz
  x,y,z
_cell_length_a                    25.7778
_cell_length_b                    30.0028
_cell_length_c                    28.3300
_cell_angle_alpha                 90.8281
_cell_angle_beta                  98.6636
_cell_angle_gamma                 89.9312
loop_
_atom_site_label
_atom_site_type_symbol
_atom_site_fract_x
_atom_site_fract_y
_atom_site_fract_z
_atom_site_U_iso_or_equiv
_atom_site_adp_type
_atom_site_occupancy
C1     C     0.16575   0.16380   0.24943   0.00000  Uiso   1.00
C2     C     0.14377   0.21488   0.44371   0.00000  Uiso   1.00
C3     C     0.16658   0.25001   0.02668   0.00000  Uiso   1.00
C4     C     0.16655   0.25005   0.47331   0.00000  Uiso   1.00
C5     C     0.06699   0.25001   0.23752   0.00000  Uiso   1.00
C6     C     0.26634   0.25005   0.26247   0.00000  Uiso   1.00
C7     C     0.01198   0.25005   0.23078   0.00000  Uiso   1.00
C8     C     0.32136   0.25012   0.26921   0.00000  Uiso   1.00
C9     C     0.19274   0.04819   0.29039   0.00000  Uiso   1.00
C10    C     0.19561   0.45173   0.21907   0.00000  Uiso   1.00
C11    C     0.19048   0.09408   0.28952   0.00000  Uiso   1.00
C12    C     0.16574   0.33615   0.25031   0.00000  Uiso   1.00
C13    C     0.19330   0.40583   0.21906   0.00000  Uiso   1.00
C14    C     0.16616   0.11565   0.24847   0.00000  Uiso   1.00
C15    C     0.16612   0.38420   0.25140   0.00000  Uiso   1.00
C16    C     0.14327   0.09079   0.20768   0.00000  Uiso   1.00
C17    C     0.14041   0.40887   0.28406   0.00000  Uiso   1.00
C18    C     0.14657   0.04460   0.20903   0.00000  Uiso   1.00
C19    C     0.14373   0.45507   0.28394   0.00000  Uiso   1.00
C20    C     0.17106   0.02377   0.25010   0.00000  Uiso   1.00
C21    C     0.17107   0.47603   0.25163   0.00000  Uiso   1.00
C22    C     0.11379   0.11202   0.16355   0.00000  Uiso   1.00
C23    C     0.12569   0.22990   0.04673   0.00000  Uiso   1.00
C24    C     0.10786   0.38732   0.31754   0.00000  Uiso   1.00
C25    C     0.18933   0.28523   0.45103   0.00000  Uiso   1.00
C26    C     0.12660   0.23013   0.09649   0.00000  Uiso   1.00
C27    C     0.18912   0.28447   0.40136   0.00000  Uiso   1.00
C28    C     0.20671   0.26983   0.10801   0.00000  Uiso   1.00
C29    C     0.14408   0.21561   0.39414   0.00000  Uiso   1.00
C30    C     0.20753   0.27007   0.05850   0.00000  Uiso   1.00
H31    H     0.32467   0.24998   0.19433   0.00000  Uiso   1.00
H32    H     0.20663   0.31359   0.47159   0.00000  Uiso   1.00
H33    H     0.09501   0.21450   0.11134   0.00000  Uiso   1.00
H34    H     0.20687   0.31164   0.38482   0.00000  Uiso   1.00
H35    H     0.23834   0.28549   0.13193   0.00000  Uiso   1.00
H36    H     0.12632   0.18843   0.37193   0.00000  Uiso   1.00
H37    H     0.24052   0.28538   0.04549   0.00000  Uiso   1.00
H38    H     0.12642   0.18654   0.45865   0.00000  Uiso   1.00
H39    H     0.08370   0.13538   0.17360   0.00000  Uiso   1.00
H40    H     0.14146   0.13004   0.14413   0.00000  Uiso   1.00
H41    H     0.09314   0.08677   0.13844   0.00000  Uiso   1.00
H42    H     0.00867   0.25020   0.30566   0.00000  Uiso   1.00
H43    H     0.13365   0.36935   0.34594   0.00000  Uiso   1.00
H44    H     0.08534   0.41238   0.33539   0.00000  Uiso   1.00
H45    H     0.07915   0.36380   0.29739   0.00000  Uiso   1.00
H46    H     0.21138   0.03166   0.32227   0.00000  Uiso   1.00
H47    H     0.21646   0.46836   0.19385   0.00000  Uiso   1.00
H48    H     0.20817   0.11275   0.32087   0.00000  Uiso   1.00
H49    H     0.21314   0.38717   0.19403   0.00000  Uiso   1.00
H50    H     0.12910   0.02458   0.17858   0.00000  Uiso   1.00
H51    H     0.12409   0.47497   0.30818   0.00000  Uiso   1.00
H52    H     0.09267   0.21458   0.02424   0.00000  Uiso   1.00
N53    N     0.16667   0.24999   0.12623   0.00000  Uiso   1.00
N54    N     0.16667   0.25001   0.37376   0.00000  Uiso   1.00
O55    O     0.16667   0.18453   0.28974   0.00000  Uiso   1.00
O56    O     0.16666   0.31546   0.21026   0.00000  Uiso   1.00
O57    O     0.16667   0.18453   0.21026   0.00000  Uiso   1.00
O58    O     0.16666   0.31547   0.28974   0.00000  Uiso   1.00
O59    O     0.09058   0.25000   0.28044   0.00000  Uiso   1.00
O60    O     0.24275   0.25000   0.21955   0.00000  Uiso   1.00
O61    O     0.09058   0.24999   0.20096   0.00000  Uiso   1.00
O62    O     0.24275   0.25000   0.29903   0.00000  Uiso   1.00
Zn63   Zn    0.16667   0.25000   0.30307   0.00000  Uiso   1.00
Zn64   Zn    0.16667   0.24999   0.19693   0.00000  Uiso   1.00
C65    C     0.49908   0.16380   0.24943   0.00000  Uiso   1.00
C66    C     0.47711   0.21488   0.44371   0.00000  Uiso   1.00
C67    C     0.49991   0.25001   0.02668   0.00000  Uiso   1.00
C68    C     0.49988   0.25005   0.47331   0.00000  Uiso   1.00
C69    C     0.40033   0.25001   0.23752   0.00000  Uiso   1.00
C70    C     0.59967   0.25005   0.26247   0.00000  Uiso   1.00
C71    C     0.34531   0.25005   0.23078   0.00000  Uiso   1.00
C72    C     0.65469   0.25012   0.26921   0.00000  Uiso   1.00
C73    C     0.52607   0.04819   0.29039   0.00000  Uiso   1.00
C74    C     0.52894   0.45173   0.21907   0.00000  Uiso   1.00
C75    C     0.52382   0.09408   0.28952   0.00000  Uiso   1.00
C76    C     0.49907   0.33615   0.25031   0.00000  Uiso   1.00
C77    C     0.52663   0.40583   0.21906   0.00000  Uiso   1.00
C78    C     0.49949   0.11565   0.24847   0.00000  Uiso   1.00
C79    C     0.49946   0.38420   0.25140   0.00000  Uiso   1.00
C80    C     0.47661   0.09079   0.20768   0.00000  Uiso   1.00
C81    C     0.47374   0.40887   0.28406   0.00000  Uiso   1.00
C82    C     0.47990   0.04460   0.20903   0.00000  Uiso   1.00
C83    C     0.47706   0.45507   0.28394   0.00000  Uiso   1.00
C84    C     0.50439   0.02377   0.25010   0.00000  Uiso   1.00
C85    C     0.50440   0.47603   0.25163   0.00000  Uiso   1.00
C86    C     0.44712   0.11202   0.16355   0.00000  Uiso   1.00
C87    C     0.45902   0.22990   0.04673   0.00000  Uiso   1.00
C88    C     0.44119   0.38732   0.31754   0.00000  Uiso   1.00
C89    C     0.52266   0.28523   0.45103   0.00000  Uiso   1.00
C90    C     0.45993   0.23013   0.09649   0.00000  Uiso   1.00
C91    C     0.52246   0.28447   0.40136   0.00000  Uiso   1.00
C92    C     0.54004   0.26983   0.10801   0.00000  Uiso   1.00
C93    C     0.47742   0.21561   0.39414   0.00000  Uiso   1.00
C94    C     0.54087   0.27007   0.05850   0.00000  Uiso   1.00
H95    H     0.65801   0.24998   0.19433   0.00000  Uiso   1.00
H96    H     0.53996   0.31359   0.47159   0.00000  Uiso   1.00
H97    H     0.42834   0.21450   0.11134   0.00000  Uiso   1.00
H98    H     0.54020   0.31164   0.38482   0.00000  Uiso   1.00
H99    H     0.57167   0.28549   0.13193   0.00000  Uiso   1.00
H100   H     0.45965   0.18843   0.37193   0.00000  Uiso   1.00
H101   H     0.57386   0.28538   0.04549   0.00000  Uiso   1.00
H102   H     0.45976   0.18654   0.45865   0.00000  Uiso   1.00
H103   H     0.41703   0.13538   0.17360   0.00000  Uiso   1.00
H104   H     0.47479   0.13004   0.14413   0.00000  Uiso   1.00
H105   H     0.42648   0.08677   0.13844   0.00000  Uiso   1.00
H106   H     0.34201   0.25020   0.30566   0.00000  Uiso   1.00
H107   H     0.46698   0.36935   0.34594   0.00000  Uiso   1.00
H108   H     0.41867   0.41238   0.33539   0.00000  Uiso   1.00
H109   H     0.41249   0.36380   0.29739   0.00000  Uiso   1.00
H110   H     0.54471   0.03166   0.32227   0.00000  Uiso   1.00
H111   H     0.54979   0.46836   0.19385   0.00000  Uiso   1.00
H112   H     0.54150   0.11275   0.32087   0.00000  Uiso   1.00
H113   H     0.54647   0.38717   0.19403   0.00000  Uiso   1.00
H114   H     0.46243   0.02458   0.17858   0.00000  Uiso   1.00
H115   H     0.45742   0.47497   0.30818   0.00000  Uiso   1.00
H116   H     0.42601   0.21458   0.02424   0.00000  Uiso   1.00
N117   N     0.50000   0.24999   0.12623   0.00000  Uiso   1.00
N118   N     0.50000   0.25001   0.37376   0.00000  Uiso   1.00
O119   O     0.50000   0.18453   0.28974   0.00000  Uiso   1.00
O120   O     0.50000   0.31546   0.21026   0.00000  Uiso   1.00
O121   O     0.50000   0.18453   0.21026   0.00000  Uiso   1.00
O122   O     0.50000   0.31547   0.28974   0.00000  Uiso   1.00
O123   O     0.42392   0.25000   0.28044   0.00000  Uiso   1.00
O124   O     0.57608   0.25000   0.21955   0.00000  Uiso   1.00
O125   O     0.42392   0.24999   0.20096   0.00000  Uiso   1.00
O126   O     0.57608   0.25000   0.29903   0.00000  Uiso   1.00
Zn127  Zn    0.50000   0.25000   0.30307   0.00000  Uiso   1.00
Zn128  Zn    0.50000   0.24999   0.19693   0.00000  Uiso   1.00
C129   C     0.83241   0.16380   0.24943   0.00000  Uiso   1.00
C130   C     0.81044   0.21488   0.44371   0.00000  Uiso   1.00
C131   C     0.83325   0.25001   0.02668   0.00000  Uiso   1.00
C132   C     0.83321   0.25005   0.47331   0.00000  Uiso   1.00
C133   C     0.73366   0.25001   0.23752   0.00000  Uiso   1.00
C134   C     0.93301   0.25005   0.26247   0.00000  Uiso   1.00
C135   C     0.67864   0.25005   0.23078   0.00000  Uiso   1.00
C136   C     0.98803   0.25012   0.26921   0.00000  Uiso   1.00
C137   C     0.85940   0.04819   0.29039   0.00000  Uiso   1.00
C138   C     0.86227   0.45173   0.21907   0.00000  Uiso   1.00
C139   C     0.85715   0.09408   0.28952   0.00000  Uiso   1.00
C140   C     0.83240   0.33615   0.25031   0.00000  Uiso   1.00
C141   C     0.85997   0.40583   0.21906   0.00000  Uiso   1.00
C142   C     0.83283   0.11565   0.24847   0.00000  Uiso   1.00
C143   C     0.83279   0.38420   0.25140   0.00000  Uiso   1.00
C144   C     0.80994   0.09079   0.20768   0.00000  Uiso   1.00
C145   C     0.80708   0.40887   0.28406   0.00000  Uiso   1.00
C146   C     0.81324   0.04460   0.20903   0.00000  Uiso   1.00
C147   C     0.81040   0.45507   0.28394   0.00000  Uiso   1.00
C148   C     0.83773   0.02377   0.25010   0.00000  Uiso   1.00
C149   C     0.83774   0.47603   0.25163   0.00000  Uiso   1.00
C150   C     0.78046   0.11202   0.16355   0.00000  Uiso   1.00
C151   C     0.79235   0.22990   0.04673   0.00000  Uiso   1.00
C152   C     0.77453   0.38732   0.31754   0.00000  Uiso   1.00
C153   C     0.85599   0.28523   0.45103   0.00000  Uiso   1.00
C154   C     0.79327   0.23013   0.09649   0.00000  Uiso   1.00
C155   C     0.85579   0.28447   0.40136   0.00000  Uiso   1.00
C156   C     0.87337   0.26983   0.10801   0.00000  Uiso   1.00
C157   C     0.81075   0.21561   0.39414   0.00000  Uiso   1.00
C158   C     0.87420   0.27007   0.05850   0.00000  Uiso   1.00
H159   H     0.99134   0.24998   0.19433   0.00000  Uiso   1.00
H160   H     0.87329   0.31359   0.47159   0.00000  Uiso   1.00
H161   H     0.76168   0.21450   0.11134   0.00000  Uiso   1.00
H162   H     0.87354   0.31164   0.38482   0.00000  Uiso   1.00
H163   H     0.90500   0.28549   0.13193   0.00000  Uiso   1.00
H164   H     0.79298   0.18843   0.37193   0.00000  Uiso   1.00
H165   H     0.90719   0.28538   0.04549   0.00000  Uiso   1.00
H166   H     0.79309   0.18654   0.45865   0.00000  Uiso   1.00
H167   H     0.75037   0.13538   0.17360   0.00000  Uiso   1.00
H168   H     0.80813   0.13004   0.14413   0.00000  Uiso   1.00
H169   H     0.75981   0.08677   0.13844   0.00000  Uiso   1.00
H170   H     0.67534   0.25020   0.30566   0.00000  Uiso   1.00
H171   H     0.80032   0.36935   0.34594   0.00000  Uiso   1.00
H172   H     0.75201   0.41238   0.33539   0.00000  Uiso   1.00
H173   H     0.74582   0.36380   0.29739   0.00000  Uiso   1.00
H174   H     0.87805   0.03166   0.32227   0.00000  Uiso   1.00
H175   H     0.88313   0.46836   0.19385   0.00000  Uiso   1.00
H176   H     0.87483   0.11275   0.32087   0.00000  Uiso   1.00
H177   H     0.87981   0.38717   0.19403   0.00000  Uiso   1.00
H178   H     0.79577   0.02458   0.17858   0.00000  Uiso   1.00
H179   H     0.79075   0.47497   0.30818   0.00000  Uiso   1.00
H180   H     0.75934   0.21458   0.02424   0.00000  Uiso   1.00
N181   N     0.83333   0.24999   0.12623   0.00000  Uiso   1.00
N182   N     0.83333   0.25001   0.37376   0.00000  Uiso   1.00
O183   O     0.83334   0.18453   0.28974   0.00000  Uiso   1.00
O184   O     0.83333   0.31546   0.21026   0.00000  Uiso   1.00
O185   O     0.83334   0.18453   0.21026   0.00000  Uiso   1.00
O186   O     0.83333   0.31547   0.28974   0.00000  Uiso   1.00
O187   O     0.75725   0.25000   0.28044   0.00000  Uiso   1.00
O188   O     0.90942   0.25000   0.21955   0.00000  Uiso   1.00
O189   O     0.75725   0.24999   0.20096   0.00000  Uiso   1.00
O190   O     0.90942   0.25000   0.29903   0.00000  Uiso   1.00
Zn191  Zn    0.83333   0.25000   0.30307   0.00000  Uiso   1.00
Zn192  Zn    0.83333   0.24999   0.19693   0.00000  Uiso   1.00
C193   C     0.16575   0.66380   0.24943   0.00000  Uiso   1.00
C194   C     0.14377   0.71488   0.44371   0.00000  Uiso   1.00
C195   C     0.16658   0.75001   0.02668   0.00000  Uiso   1.00
C196   C     0.16655   0.75005   0.47331   0.00000  Uiso   1.00
C197   C     0.06699   0.75001   0.23752   0.00000  Uiso   1.00
C198   C     0.26634   0.75005   0.26247   0.00000  Uiso   1.00
C199   C     0.01198   0.75005   0.23078   0.00000  Uiso   1.00
C200   C     0.32136   0.75012   0.26921   0.00000  Uiso   1.00
C201   C     0.19274   0.54819   0.29039   0.00000  Uiso   1.00
C202   C     0.19561   0.95173   0.21907   0.00000  Uiso   1.00
C203   C     0.19048   0.59408   0.28952   0.00000  Uiso   1.00
C204   C     0.16574   0.83615   0.25031   0.00000  Uiso   1.00
C205   C     0.19330   0.90583   0.21906   0.00000  Uiso   1.00
C206   C     0.16616   0.61565   0.24847   0.00000  Uiso   1.00
C207   C     0.16612   0.88420   0.25140   0.00000  Uiso   1.00
C208   C     0.14327   0.59079   0.20768   0.00000  Uiso   1.00
C209   C     0.14041   0.90887   0.28406   0.00000  Uiso   1.00
C210   C     0.14657   0.54460   0.20903   0.00000  Uiso   1.00
C211   C     0.14373   0.95507   0.28394   0.00000  Uiso   1.00
C212   C     0.17106   0.52377   0.25010   0.00000  Uiso   1.00
C213   C     0.17107   0.97603   0.25163   0.00000  Uiso   1.00
C214   C     0.11379   0.61202   0.16355   0.00000  Uiso   1.00
C215   C     0.12569   0.72990   0.04673   0.00000  Uiso   1.00
C216   C     0.10786   0.88732   0.31754   0.00000  Uiso   1.00
C217   C     0.18933   0.78523   0.45103   0.00000  Uiso   1.00
C218   C     0.12660   0.73013   0.09649   0.00000  Uiso   1.00
C219   C     0.18912   0.78447   0.40136   0.00000  Uiso   1.00
C220   C     0.20671   0.76983   0.10801   0.00000  Uiso   1.00
C221   C     0.14408   0.71561   0.39414   0.00000  Uiso   1.00
C222   C     0.20753   0.77007   0.05850   0.00000  Uiso   1.00
H223   H     0.32467   0.74998   0.19433   0.00000  Uiso   1.00
H224   H     0.20663   0.81359   0.47159   0.00000  Uiso   1.00
H225   H     0.09501   0.71450   0.11134   0.00000  Uiso   1.00
H226   H     0.20687   0.81164   0.38482   0.00000  Uiso   1.00
H227   H     0.23834   0.78549   0.13193   0.00000  Uiso   1.00
H228   H     0.12632   0.68843   0.37193   0.00000  Uiso   1.00
H229   H     0.24052   0.78538   0.04549   0.00000  Uiso   1.00
H230   H     0.12642   0.68654   0.45865   0.00000  Uiso   1.00
H231   H     0.08370   0.63538   0.17360   0.00000  Uiso   1.00
H232   H     0.14146   0.63004   0.14413   0.00000  Uiso   1.00
H233   H     0.09314   0.58677   0.13844   0.00000  Uiso   1.00
H234   H     0.00867   0.75020   0.30566   0.00000  Uiso   1.00
H235   H     0.13365   0.86935   0.34594   0.00000  Uiso   1.00
H236   H     0.08534   0.91238   0.33539   0.00000  Uiso   1.00
H237   H     0.07915   0.86380   0.29739   0.00000  Uiso   1.00
H238   H     0.21138   0.53166   0.32227   0.00000  Uiso   1.00
H239   H     0.21646   0.96836   0.19385   0.00000  Uiso   1.00
H240   H     0.20817   0.61275   0.32087   0.00000  Uiso   1.00
H241   H     0.21314   0.88717   0.19403   0.00000  Uiso   1.00
H242   H     0.12910   0.52458   0.17858   0.00000  Uiso   1.00
H243   H     0.12409   0.97497   0.30818   0.00000  Uiso   1.00
H244   H     0.09267   0.71458   0.02424   0.00000  Uiso   1.00
N245   N     0.16667   0.74999   0.12623   0.00000  Uiso   1.00
N246   N     0.16667   0.75001   0.37376   0.00000  Uiso   1.00
O247   O     0.16667   0.68453   0.28974   0.00000  Uiso   1.00
O248   O     0.16666   0.81546   0.21026   0.00000  Uiso   1.00
O249   O     0.16667   0.68453   0.21026   0.00000  Uiso   1.00
O250   O     0.16666   0.81547   0.28974   0.00000  Uiso   1.00
O251   O     0.09058   0.75000   0.28044   0.00000  Uiso   1.00
O252   O     0.24275   0.75000   0.21955   0.00000  Uiso   1.00
O253   O     0.09058   0.74999   0.20096   0.00000  Uiso   1.00
O254   O     0.24275   0.75000   0.29903   0.00000  Uiso   1.00
Zn255  Zn    0.16667   0.75000   0.30307   0.00000  Uiso   1.00
Zn256  Zn    0.16667   0.74999   0.19693   0.00000  Uiso   1.00
C257   C     0.49908   0.66380   0.24943   0.00000  Uiso   1.00
C258   C     0.47711   0.71488   0.44371   0.00000  Uiso   1.00
C259   C     0.49991   0.75001   0.02668   0.00000  Uiso   1.00
C260   C     0.49988   0.75005   0.47331   0.00000  Uiso   1.00
C261   C     0.40033   0.75001   0.23752   0.00000  Uiso   1.00
C262   C     0.59967   0.75005   0.26247   0.00000  Uiso   1.00
C263   C     0.34531   0.75005   0.23078   0.00000  Uiso   1.00
C264   C     0.65469   0.75012   0.26921   0.00000  Uiso   1.00
C265   C     0.52607   0.54819   0.29039   0.00000  Uiso   1.00
C266   C     0.52894   0.95173   0.21907   0.00000  Uiso   1.00
C267   C     0.52382   0.59408   0.28952   0.00000  Uiso   1.00
C268   C     0.49907   0.83615   0.25031   0.00000  Uiso   1.00
C269   C     0.52663   0.90583   0.21906   0.00000  Uiso   1.00
C270   C     0.49949   0.61565   0.24847   0.00000  Uiso   1.00
C271   C     0.49946   0.88420   0.25140   0.00000  Uiso   1.00
C272   C     0.47661   0.59079   0.20768   0.00000  Uiso   1.00
C273   C     0.47374   0.90887   0.28406   0.00000  Uiso   1.00
C274   C     0.47990   0.54460   0.20903   0.00000  Uiso   1.00
C275   C     0.47706   0.95507   0.28394   0.00000  Uiso   1.00
C276   C     0.50439   0.52377   0.25010   0.00000  Uiso   1.00
C277   C     0.50440   0.97603   0.25163   0.00000  Uiso   1.00
C278   C     0.44712   0.61202   0.16355   0.00000  Uiso   1.00
C279   C     0.45902   0.72990   0.04673   0.00000  Uiso   1.00
C280   C     0.44119   0.88732   0.31754   0.00000  Uiso   1.00
C281   C     0.52266   0.78523   0.45103   0.00000  Uiso   1.00
C282   C     0.45993   0.73013   0.09649   0.00000  Uiso   1.00
C283   C     0.52246   0.78447   0.40136   0.00000  Uiso   1.00
C284   C     0.54004   0.76983   0.10801   0.00000  Uiso   1.00
C285   C     0.47742   0.71561   0.39414   0.00000  Uiso   1.00
C286   C     0.54087   0.77007   0.05850   0.00000  Uiso   1.00
H287   H     0.65801   0.74998   0.19433   0.00000  Uiso   1.00
H288   H     0.53996   0.81359   0.47159   0.00000  Uiso   1.00
H289   H     0.42834   0.71450   0.11134   0.00000  Uiso   1.00
H290   H     0.54020   0.81164   0.38482   0.00000  Uiso   1.00
H291   H     0.57167   0.78549   0.13193   0.00000  Uiso   1.00
H292   H     0.45965   0.68843   0.37193   0.00000  Uiso   1.00
H293   H     0.57386   0.78538   0.04549   0.00000  Uiso   1.00
H294   H     0.45976   0.68654   0.45865   0.00000  Uiso   1.00
H295   H     0.41703   0.63538   0.17360   0.00000  Uiso   1.00
H296   H     0.47479   0.63004   0.14413   0.00000  Uiso   1.00
H297   H     0.42648   0.58677   0.13844   0.00000  Uiso   1.00
H298   H     0.34201   0.75020   0.30566   0.00000  Uiso   1.00
H299   H     0.46698   0.86935   0.34594   0.00000  Uiso   1.00
H300   H     0.41867   0.91238   0.33539   0.00000  Uiso   1.00
H301   H     0.41249   0.86380   0.29739   0.00000  Uiso   1.00
H302   H     0.54471   0.53166   0.32227   0.00000  Uiso   1.00
H303   H     0.54979   0.96836   0.19385   0.00000  Uiso   1.00
H304   H     0.54150   0.61275   0.32087   0.00000  Uiso   1.00
H305   H     0.54647   0.88717   0.19403   0.00000  Uiso   1.00
H306   H     0.46243   0.52458   0.17858   0.00000  Uiso   1.00
H307   H     0.45742   0.97497   0.30818   0.00000  Uiso   1.00
H308   H     0.42601   0.71458   0.02424   0.00000  Uiso   1.00
N309   N     0.50000   0.74999   0.12623   0.00000  Uiso   1.00
N310   N     0.50000   0.75001   0.37376   0.00000  Uiso   1.00
O311   O     0.50000   0.68453   0.28974   0.00000  Uiso   1.00
O312   O     0.50000   0.81546   0.21026   0.00000  Uiso   1.00
O313   O     0.50000   0.68453   0.21026   0.00000  Uiso   1.00
O314   O     0.50000   0.81547   0.28974   0.00000  Uiso   1.00
O315   O     0.42392   0.75000   0.28044   0.00000  Uiso   1.00
O316   O     0.57608   0.75000   0.21955   0.00000  Uiso   1.00
O317   O     0.42392   0.74999   0.20096   0.00000  Uiso   1.00
O318   O     0.57608   0.75000   0.29903   0.00000  Uiso   1.00
Zn319  Zn    0.50000   0.75000   0.30307   0.00000  Uiso   1.00
Zn320  Zn    0.50000   0.74999   0.19693   0.00000  Uiso   1.00
C321   C     0.83241   0.66380   0.24943   0.00000  Uiso   1.00
C322   C     0.81044   0.71488   0.44371   0.00000  Uiso   1.00
C323   C     0.83325   0.75001   0.02668   0.00000  Uiso   1.00
C324   C     0.83321   0.75005   0.47331   0.00000  Uiso   1.00
C325   C     0.73366   0.75001   0.23752   0.00000  Uiso   1.00
C326   C     0.93301   0.75005   0.26247   0.00000  Uiso   1.00
C327   C     0.67864   0.75005   0.23078   0.00000  Uiso   1.00
C328   C     0.98803   0.75012   0.26921   0.00000  Uiso   1.00
C329   C     0.85940   0.54819   0.29039   0.00000  Uiso   1.00
C330   C     0.86227   0.95173   0.21907   0.00000  Uiso   1.00
C331   C     0.85715   0.59408   0.28952   0.00000  Uiso   1.00
C332   C     0.83240   0.83615   0.25031   0.00000  Uiso   1.00
C333   C     0.85997   0.90583   0.21906   0.00000  Uiso   1.00
C334   C     0.83283   0.61565   0.24847   0.00000  Uiso   1.00
C335   C     0.83279   0.88420   0.25140   0.00000  Uiso   1.00
C336   C     0.80994   0.59079   0.20768   0.00000  Uiso   1.00
C337   C     0.80708   0.90887   0.28406   0.00000  Uiso   1.00
C338   C     0.81324   0.54460   0.20903   0.00000  Uiso   1.00
C339   C     0.81040   0.95507   0.28394   0.00000  Uiso   1.00
C340   C     0.83773   0.52377   0.25010   0.00000  Uiso   1.00
C341   C     0.83774   0.97603   0.25163   0.00000  Uiso   1.00
C342   C     0.78046   0.61202   0.16355   0.00000  Uiso   1.00
C343   C     0.79235   0.72990   0.04673   0.00000  Uiso   1.00
C344   C     0.77453   0.88732   0.31754   0.00000  Uiso   1.00
C345   C     0.85599   0.78523   0.45103   0.00000  Uiso   1.00
C346   C     0.79327   0.73013   0.09649   0.00000  Uiso   1.00
C347   C     0.85579   0.78447   0.40136   0.00000  Uiso   1.00
C348   C     0.87337   0.76983   0.10801   0.00000  Uiso   1.00
C349   C     0.81075   0.71561   0.39414   0.00000  Uiso   1.00
C350   C     0.87420   0.77007   0.05850   0.00000  Uiso   1.00
H351   H     0.99134   0.74998   0.19433   0.00000  Uiso   1.00
H352   H     0.87329   0.81359   0.47159   0.00000  Uiso   1.00
H353   H     0.76168   0.71450   0.11134   0.00000  Uiso   1.00
H354   H     0.87354   0.81164   0.38482   0.00000  Uiso   1.00
H355   H     0.90500   0.78549   0.13193   0.00000  Uiso   1.00
H356   H     0.79298   0.68843   0.37193   0.00000  Uiso   1.00
H357   H     0.90719   0.78538   0.04549   0.00000  Uiso   1.00
H358   H     0.79309   0.68654   0.45865   0.00000  Uiso   1.00
H359   H     0.75037   0.63538   0.17360   0.00000  Uiso   1.00
H360   H     0.80813   0.63004   0.14413   0.00000  Uiso   1.00
H361   H     0.75981   0.58677   0.13844   0.00000  Uiso   1.00
H362   H     0.67534   0.75020   0.30566   0.00000  Uiso   1.00
H363   H     0.80032   0.86935   0.34594   0.00000  Uiso   1.00
H364   H     0.75201   0.91238   0.33539   0.00000  Uiso   1.00
H365   H     0.74582   0.86380   0.29739   0.00000  Uiso   1.00
H366   H     0.87805   0.53166   0.32227   0.00000  Uiso   1.00
H367   H     0.88313   0.96836   0.19385   0.00000  Uiso   1.00
H368   H     0.87483   0.61275   0.32087   0.00000  Uiso   1.00
H369   H     0.87981   0.88717   0.19403   0.00000  Uiso   1.00
H370   H     0.79577   0.52458   0.17858   0.00000  Uiso   1.00
H371   H     0.79075   0.97497   0.30818   0.00000  Uiso   1.00
H372   H     0.75934   0.71458   0.02424   0.00000  Uiso   1.00
N373   N     0.83333   0.74999   0.12623   0.00000  Uiso   1.00
N374   N     0.83333   0.75001   0.37376   0.00000  Uiso   1.00
O375   O     0.83334   0.68453   0.28974   0.00000  Uiso   1.00
O376   O     0.83333   0.81546   0.21026   0.00000  Uiso   1.00
O377   O     0.83334   0.68453   0.21026   0.00000  Uiso   1.00
O378   O     0.83333   0.81547   0.28974   0.00000  Uiso   1.00
O379   O     0.75725   0.75000   0.28044   0.00000  Uiso   1.00
O380   O     0.90942   0.75000   0.21955   0.00000  Uiso   1.00
O381   O     0.75725   0.74999   0.20096   0.00000  Uiso   1.00
O382   O     0.90942   0.75000   0.29903   0.00000  Uiso   1.00
Zn383  Zn    0.83333   0.75000   0.30307   0.00000  Uiso   1.00
Zn384  Zn    0.83333   0.74999   0.19693   0.00000  Uiso   1.00
C385   C     0.16575   0.16380   0.74943   0.00000  Uiso   1.00
C386   C     0.14377   0.21488   0.94371   0.00000  Uiso   1.00
C387   C     0.16658   0.25001   0.52668   0.00000  Uiso   1.00
C388   C     0.16655   0.25005   0.97331   0.00000  Uiso   1.00
C389   C     0.06699   0.25001   0.73752   0.00000  Uiso   1.00
C390   C     0.26634   0.25005   0.76247   0.00000  Uiso   1.00
C391   C     0.01198   0.25005   0.73078   0.00000  Uiso   1.00
C392   C     0.32136   0.25012   0.76921   0.00000  Uiso   1.00
C393   C     0.19274   0.04819   0.79039   0.00000  Uiso   1.00
C394   C     0.19561   0.45173   0.71907   0.00000  Uiso   1.00
C395   C     0.19048   0.09408   0.78952   0.00000  Uiso   1.00
C396   C     0.16574   0.33615   0.75031   0.00000  Uiso   1.00
C397   C     0.19330   0.40583   0.71906   0.00000  Uiso   1.00
C398   C     0.16616   0.11565   0.74847   0.00000  Uiso   1.00
C399   C     0.16612   0.38420   0.75140   0.00000  Uiso   1.00
C400   C     0.14327   0.09079   0.70768   0.00000  Uiso   1.00
C401   C     0.14041   0.40887   0.78406   0.00000  Uiso   1.00
C402   C     0.14657   0.04460   0.70903   0.00000  Uiso   1.00
C403   C     0.14373   0.45507   0.78394   0.00000  Uiso   1.00
C404   C     0.17106   0.02377   0.75010   0.00000  Uiso   1.00
C405   C     0.17107   0.47603   0.75163   0.00000  Uiso   1.00
C406   C     0.11379   0.11202   0.66355   0.00000  Uiso   1.00
C407   C     0.12569   0.22990   0.54673   0.00000  Uiso   1.00
C408   C     0.10786   0.38732   0.81754   0.00000  Uiso   1.00
C409   C     0.18933   0.28523   0.95103   0.00000  Uiso   1.00
C410   C     0.12660   0.23013   0.59649   0.00000  Uiso   1.00
C411   C     0.18912   0.28447   0.90136   0.00000  Uiso   1.00
C412   C     0.20671   0.26983   0.60801   0.00000  Uiso   1.00
C413   C     0.14408   0.21561   0.89414   0.00000  Uiso   1.00
C414   C     0.20753   0.27007   0.55850   0.00000  Uiso   1.00
H415   H     0.32467   0.24998   0.69433   0.00000  Uiso   1.00
H416   H     0.20663   0.31359   0.97159   0.00000  Uiso   1.00
H417   H     0.09501   0.21450   0.61134   0.00000  Uiso   1.00
H418   H     0.20687   0.31164   0.88482   0.00000  Uiso   1.00
H419   H     0.23834   0.28549   0.63193   0.00000  Uiso   1.00
H420   H     0.12632   0.18843   0.87193   0.00000  Uiso   1.00
H421   H     0.24052   0.28538   0.54549   0.00000  Uiso   1.00
H422   H     0.12642   0.18654   0.95865   0.00000  Uiso   1.00
H423   H     0.08370   0.13538   0.67360   0.00000  Uiso   1.00
H424   H     0.14146   0.13004   0.64413   0.00000  Uiso   1.00
H425   H     0.09314   0.08677   0.63844   0.00000  Uiso   1.00
H426   H     0.00867   0.25020   0.80566   0.00000  Uiso   1.00
H427   H     0.13365   0.36935   0.84594   0.00000  Uiso   1.00
H428   H     0.08534   0.41238   0.83539   0.00000  Uiso   1.00
H429   H     0.07915   0.36380   0.79739   0.00000  Uiso   1.00
H430   H     0.21138   0.03166   0.82227   0.00000  Uiso   1.00
H431   H     0.21646   0.46836   0.69385   0.00000  Uiso   1.00
H432   H     0.20817   0.11275   0.82087   0.00000  Uiso   1.00
H433   H     0.21314   0.38717   0.69403   0.00000  Uiso   1.00
H434   H     0.12910   0.02458   0.67858   0.00000  Uiso   1.00
H435   H     0.12409   0.47497   0.80818   0.00000  Uiso   1.00
H436   H     0.09267   0.21458   0.52424   0.00000  Uiso   1.00
N437   N     0.16667   0.24999   0.62623   0.00000  Uiso   1.00
N438   N     0.16667   0.25001   0.87376   0.00000  Uiso   1.00
O439   O     0.16667   0.18453   0.78974   0.00000  Uiso   1.00
O440   O     0.16666   0.31546   0.71026   0.00000  Uiso   1.00
O441   O     0.16667   0.18453   0.71026   0.00000  Uiso   1.00
O442   O     0.16666   0.31547   0.78974   0.00000  Uiso   1.00
O443   O     0.09058   0.25000   0.78044   0.00000  Uiso   1.00
O444   O     0.24275   0.25000   0.71955   0.00000  Uiso   1.00
O445   O     0.09058   0.24999   0.70096   0.00000  Uiso   1.00
O446   O     0.24275   0.25000   0.79903   0.00000  Uiso   1.00
Zn447  Zn    0.16667   0.25000   0.80307   0.00000  Uiso   1.00
Zn448  Zn    0.16667   0.24999   0.69693   0.00000  Uiso   1.00
C449   C     0.49908   0.16380   0.74943   0.00000  Uiso   1.00
C450   C     0.47711   0.21488   0.94371   0.00000  Uiso   1.00
C451   C     0.49991   0.25001   0.52668   0.00000  Uiso   1.00
C452   C     0.49988   0.25005   0.97331   0.00000  Uiso   1.00
C453   C     0.40033   0.25001   0.73752   0.00000  Uiso   1.00
C454   C     0.59967   0.25005   0.76247   0.00000  Uiso   1.00
C455   C     0.34531   0.25005   0.73078   0.00000  Uiso   1.00
C456   C     0.65469   0.25012   0.76921   0.00000  Uiso   1.00
C457   C     0.52607   0.04819   0.79039   0.00000  Uiso   1.00
C458   C     0.52894   0.45173   0.71907   0.00000  Uiso   1.00
C459   C     0.52382   0.09408   0.78952   0.00000  Uiso   1.00
C460   C     0.49907   0.33615   0.75031   0.00000  Uiso   1.00
C461   C     0.52663   0.40583   0.71906   0.00000  Uiso   1.00
C462   C     0.49949   0.11565   0.74847   0.00000  Uiso   1.00
C463   C     0.49946   0.38420   0.75140   0.00000  Uiso   1.00
C464   C     0.47661   0.09079   0.70768   0.00000  Uiso   1.00
C465   C     0.47374   0.40887   0.78406   0.00000  Uiso   1.00
C466   C     0.47990   0.04460   0.70903   0.00000  Uiso   1.00
C467   C     0.47706   0.45507   0.78394   0.00000  Uiso   1.00
C468   C     0.50439   0.02377   0.75010   0.00000  Uiso   1.00
C469   C     0.50440   0.47603   0.75163   0.00000  Uiso   1.00
C470   C     0.44712   0.11202   0.66355   0.00000  Uiso   1.00
C471   C     0.45902   0.22990   0.54673   0.00000  Uiso   1.00
C472   C     0.44119   0.38732   0.81754   0.00000  Uiso   1.00
C473   C     0.52266   0.28523   0.95103   0.00000  Uiso   1.00
C474   C     0.45993   0.23013   0.59649   0.00000  Uiso   1.00
C475   C     0.52246   0.28447   0.90136   0.00000  Uiso   1.00
C476   C     0.54004   0.26983   0.60801   0.00000  Uiso   1.00
C477   C     0.47742   0.21561   0.89414   0.00000  Uiso   1.00
C478   C     0.54087   0.27007   0.55850   0.00000  Uiso   1.00
H479   H     0.65801   0.24998   0.69433   0.00000  Uiso   1.00
H480   H     0.53996   0.31359   0.97159   0.00000  Uiso   1.00
H481   H     0.42834   0.21450   0.61134   0.00000  Uiso   1.00
H482   H     0.54020   0.31164   0.88482   0.00000  Uiso   1.00
H483   H     0.57167   0.28549   0.63193   0.00000  Uiso   1.00
H484   H     0.45965   0.18843   0.87193   0.00000  Uiso   1.00
H485   H     0.57386   0.28538   0.54549   0.00000  Uiso   1.00
H486   H     0.45976   0.18654   0.95865   0.00000  Uiso   1.00
H487   H     0.41703   0.13538   0.67360   0.00000  Uiso   1.00
H488   H     0.47479   0.13004   0.64413   0.00000  Uiso   1.00
H489   H     0.42648   0.08677   0.63844   0.00000  Uiso   1.00
H490   H     0.34201   0.25020   0.80566   0.00000  Uiso   1.00
H491   H     0.46698   0.36935   0.84594   0.00000  Uiso   1.00
H492   H     0.41867   0.41238   0.83539   0.00000  Uiso   1.00
H493   H     0.41249   0.36380   0.79739   0.00000  Uiso   1.00
H494   H     0.54471   0.03166   0.82227   0.00000  Uiso   1.00
H495   H     0.54979   0.46836   0.69385   0.00000  Uiso   1.00
H496   H     0.54150   0.11275   0.82087   0.00000  Uiso   1.00
H497   H     0.54647   0.38717   0.69403   0.00000  Uiso   1.00
H498   H     0.46243   0.02458   0.67858   0.00000  Uiso   1.00
H499   H     0.45742   0.47497   0.80818   0.00000  Uiso   1.00
H500   H     0.42601   0.21458   0.52424   0.00000  Uiso   1.00
N501   N     0.50000   0.24999   0.62623   0.00000  Uiso   1.00
N502   N     0.50000   0.25001   0.87376   0.00000  Uiso   1.00
O503   O     0.50000   0.18453   0.78974   0.00000  Uiso   1.00
O504   O     0.50000   0.31546   0.71026   0.00000  Uiso   1.00
O505   O     0.50000   0.18453   0.71026   0.00000  Uiso   1.00
O506   O     0.50000   0.31547   0.78974   0.00000  Uiso   1.00
O507   O     0.42392   0.25000   0.78044   0.00000  Uiso   1.00
O508   O     0.57608   0.25000   0.71955   0.00000  Uiso   1.00
O509   O     0.42392   0.24999   0.70096   0.00000  Uiso   1.00
O510   O     0.57608   0.25000   0.79903   0.00000  Uiso   1.00
Zn511  Zn    0.50000   0.25000   0.80307   0.00000  Uiso   1.00
Zn512  Zn    0.50000   0.24999   0.69693   0.00000  Uiso   1.00
C513   C     0.83241   0.16380   0.74943   0.00000  Uiso   1.00
C514   C     0.81044   0.21488   0.94371   0.00000  Uiso   1.00
C515   C     0.83325   0.25001   0.52668   0.00000  Uiso   1.00
C516   C     0.83321   0.25005   0.97331   0.00000  Uiso   1.00
C517   C     0.73366   0.25001   0.73752   0.00000  Uiso   1.00
C518   C     0.93301   0.25005   0.76247   0.00000  Uiso   1.00
C519   C     0.67864   0.25005   0.73078   0.00000  Uiso   1.00
C520   C     0.98803   0.25012   0.76921   0.00000  Uiso   1.00
C521   C     0.85940   0.04819   0.79039   0.00000  Uiso   1.00
C522   C     0.86227   0.45173   0.71907   0.00000  Uiso   1.00
C523   C     0.85715   0.09408   0.78952   0.00000  Uiso   1.00
C524   C     0.83240   0.33615   0.75031   0.00000  Uiso   1.00
C525   C     0.85997   0.40583   0.71906   0.00000  Uiso   1.00
C526   C     0.83283   0.11565   0.74847   0.00000  Uiso   1.00
C527   C     0.83279   0.38420   0.75140   0.00000  Uiso   1.00
C528   C     0.80994   0.09079   0.70768   0.00000  Uiso   1.00
C529   C     0.80708   0.40887   0.78406   0.00000  Uiso   1.00
C530   C     0.81324   0.04460   0.70903   0.00000  Uiso   1.00
C531   C     0.81040   0.45507   0.78394   0.00000  Uiso   1.00
C532   C     0.83773   0.02377   0.75010   0.00000  Uiso   1.00
C533   C     0.83774   0.47603   0.75163   0.00000  Uiso   1.00
C534   C     0.78046   0.11202   0.66355   0.00000  Uiso   1.00
C535   C     0.79235   0.22990   0.54673   0.00000  Uiso   1.00
C536   C     0.77453   0.38732   0.81754   0.00000  Uiso   1.00
C537   C     0.85599   0.28523   0.95103   0.00000  Uiso   1.00
C538   C     0.79327   0.23013   0.59649   0.00000  Uiso   1.00
C539   C     0.85579   0.28447   0.90136   0.00000  Uiso   1.00
C540   C     0.87337   0.26983   0.60801   0.00000  Uiso   1.00
C541   C     0.81075   0.21561   0.89414   0.00000  Uiso   1.00
C542   C     0.87420   0.27007   0.55850   0.00000  Uiso   1.00
H543   H     0.99134   0.24998   0.69433   0.00000  Uiso   1.00
H544   H     0.87329   0.31359   0.97159   0.00000  Uiso   1.00
H545   H     0.76168   0.21450   0.61134   0.00000  Uiso   1.00
H546   H     0.87354   0.31164   0.88482   0.00000  Uiso   1.00
H547   H     0.90500   0.28549   0.63193   0.00000  Uiso   1.00
H548   H     0.79298   0.18843   0.87193   0.00000  Uiso   1.00
H549   H     0.90719   0.28538   0.54549   0.00000  Uiso   1.00
H550   H     0.79309   0.18654   0.95865   0.00000  Uiso   1.00
H551   H     0.75037   0.13538   0.67360   0.00000  Uiso   1.00
H552   H     0.80813   0.13004   0.64413   0.00000  Uiso   1.00
H553   H     0.75981   0.08677   0.63844   0.00000  Uiso   1.00
H554   H     0.67534   0.25020   0.80566   0.00000  Uiso   1.00
H555   H     0.80032   0.36935   0.84594   0.00000  Uiso   1.00
H556   H     0.75201   0.41238   0.83539   0.00000  Uiso   1.00
H557   H     0.74582   0.36380   0.79739   0.00000  Uiso   1.00
H558   H     0.87805   0.03166   0.82227   0.00000  Uiso   1.00
H559   H     0.88313   0.46836   0.69385   0.00000  Uiso   1.00
H560   H     0.87483   0.11275   0.82087   0.00000  Uiso   1.00
H561   H     0.87981   0.38717   0.69403   0.00000  Uiso   1.00
H562   H     0.79577   0.02458   0.67858   0.00000  Uiso   1.00
H563   H     0.79075   0.47497   0.80818   0.00000  Uiso   1.00
H564   H     0.75934   0.21458   0.52424   0.00000  Uiso   1.00
N565   N     0.83333   0.24999   0.62623   0.00000  Uiso   1.00
N566   N     0.83333   0.25001   0.87376   0.00000  Uiso   1.00
O567   O     0.83334   0.18453   0.78974   0.00000  Uiso   1.00
O568   O     0.83333   0.31546   0.71026   0.00000  Uiso   1.00
O569   O     0.83334   0.18453   0.71026   0.00000  Uiso   1.00
O570   O     0.83333   0.31547   0.78974   0.00000  Uiso   1.00
O571   O     0.75725   0.25000   0.78044   0.00000  Uiso   1.00
O572   O     0.90942   0.25000   0.71955   0.00000  Uiso   1.00
O573   O     0.75725   0.24999   0.70096   0.00000  Uiso   1.00
O574   O     0.90942   0.25000   0.79903   0.00000  Uiso   1.00
Zn575  Zn    0.83333   0.25000   0.80307   0.00000  Uiso   1.00
Zn576  Zn    0.83333   0.24999   0.69693   0.00000  Uiso   1.00
C577   C     0.16575   0.66380   0.74943   0.00000  Uiso   1.00
C578   C     0.14377   0.71488   0.94371   0.00000  Uiso   1.00
C579   C     0.16658   0.75001   0.52668   0.00000  Uiso   1.00
C580   C     0.16655   0.75005   0.97331   0.00000  Uiso   1.00
C581   C     0.06699   0.75001   0.73752   0.00000  Uiso   1.00
C582   C     0.26634   0.75005   0.76247   0.00000  Uiso   1.00
C583   C     0.01198   0.75005   0.73078   0.00000  Uiso   1.00
C584   C     0.32136   0.75012   0.76921   0.00000  Uiso   1.00
C585   C     0.19274   0.54819   0.79039   0.00000  Uiso   1.00
C586   C     0.19561   0.95173   0.71907   0.00000  Uiso   1.00
C587   C     0.19048   0.59408   0.78952   0.00000  Uiso   1.00
C588   C     0.16574   0.83615   0.75031   0.00000  Uiso   1.00
C589   C     0.19330   0.90583   0.71906   0.00000  Uiso   1.00
C590   C     0.16616   0.61565   0.74847   0.00000  Uiso   1.00
C591   C     0.16612   0.88420   0.75140   0.00000  Uiso   1.00
C592   C     0.14327   0.59079   0.70768   0.00000  Uiso   1.00
C593   C     0.14041   0.90887   0.78406   0.00000  Uiso   1.00
C594   C     0.14657   0.54460   0.70903   0.00000  Uiso   1.00
C595   C     0.14373   0.95507   0.78394   0.00000  Uiso   1.00
C596   C     0.17106   0.52377   0.75010   0.00000  Uiso   1.00
C597   C     0.17107   0.97603   0.75163   0.00000  Uiso   1.00
C598   C     0.11379   0.61202   0.66355   0.00000  Uiso   1.00
C599   C     0.12569   0.72990   0.54673   0.00000  Uiso   1.00
C600   C     0.10786   0.88732   0.81754   0.00000  Uiso   1.00
C601   C     0.18933   0.78523   0.95103   0.00000  Uiso   1.00
C602   C     0.12660   0.73013   0.59649   0.00000  Uiso   1.00
C603   C     0.18912   0.78447   0.90136   0.00000  Uiso   1.00
C604   C     0.20671   0.76983   0.60801   0.00000  Uiso   1.00
C605   C     0.14408   0.71561   0.89414   0.00000  Uiso   1.00
C606   C     0.20753   0.77007   0.55850   0.00000  Uiso   1.00
H607   H     0.32467   0.74998   0.69433   0.00000  Uiso   1.00
H608   H     0.20663   0.81359   0.97159   0.00000  Uiso   1.00
H609   H     0.09501   0.71450   0.61134   0.00000  Uiso   1.00
H610   H     0.20687   0.81164   0.88482   0.00000  Uiso   1.00
H611   H     0.23834   0.78549   0.63193   0.00000  Uiso   1.00
H612   H     0.12632   0.68843   0.87193   0.00000  Uiso   1.00
H613   H     0.24052   0.78538   0.54549   0.00000  Uiso   1.00
H614   H     0.12642   0.68654   0.95865   0.00000  Uiso   1.00
H615   H     0.08370   0.63538   0.67360   0.00000  Uiso   1.00
H616   H     0.14146   0.63004   0.64413   0.00000  Uiso   1.00
H617   H     0.09314   0.58677   0.63844   0.00000  Uiso   1.00
H618   H     0.00867   0.75020   0.80566   0.00000  Uiso   1.00
H619   H     0.13365   0.86935   0.84594   0.00000  Uiso   1.00
H620   H     0.08534   0.91238   0.83539   0.00000  Uiso   1.00
H621   H     0.07915   0.86380   0.79739   0.00000  Uiso   1.00
H622   H     0.21138   0.53166   0.82227   0.00000  Uiso   1.00
H623   H     0.21646   0.96836   0.69385   0.00000  Uiso   1.00
H624   H     0.20817   0.61275   0.82087   0.00000  Uiso   1.00
H625   H     0.21314   0.88717   0.69403   0.00000  Uiso   1.00
H626   H     0.12910   0.52458   0.67858   0.00000  Uiso   1.00
H627   H     0.12409   0.97497   0.80818   0.00000  Uiso   1.00
H628   H     0.09267   0.71458   0.52424   0.00000  Uiso   1.00
N629   N     0.16667   0.74999   0.62623   0.00000  Uiso   1.00
N630   N     0.16667   0.75001   0.87376   0.00000  Uiso   1.00
O631   O     0.16667   0.68453   0.78974   0.00000  Uiso   1.00
O632   O     0.16666   0.81546   0.71026   0.00000  Uiso   1.00
O633   O     0.16667   0.68453   0.71026   0.00000  Uiso   1.00
O634   O     0.16666   0.81547   0.78974   0.00000  Uiso   1.00
O635   O     0.09058   0.75000   0.78044   0.00000  Uiso   1.00
O636   O     0.24275   0.75000   0.71955   0.00000  Uiso   1.00
O637   O     0.09058   0.74999   0.70096   0.00000  Uiso   1.00
O638   O     0.24275   0.75000   0.79903   0.00000  Uiso   1.00
Zn639  Zn    0.16667   0.75000   0.80307   0.00000  Uiso   1.00
Zn640  Zn    0.16667   0.74999   0.69693   0.00000  Uiso   1.00
C641   C     0.49908   0.66380   0.74943   0.00000  Uiso   1.00
C642   C     0.47711   0.71488   0.94371   0.00000  Uiso   1.00
C643   C     0.49991   0.75001   0.52668   0.00000  Uiso   1.00
C644   C     0.49988   0.75005   0.97331   0.00000  Uiso   1.00
C645   C     0.40033   0.75001   0.73752   0.00000  Uiso   1.00
C646   C     0.59967   0.75005   0.76247   0.00000  Uiso   1.00
C647   C     0.34531   0.75005   0.73078   0.00000  Uiso   1.00
C648   C     0.65469   0.75012   0.76921   0.00000  Uiso   1.00
C649   C     0.52607   0.54819   0.79039   0.00000  Uiso   1.00
C650   C     0.52894   0.95173   0.71907   0.00000  Uiso   1.00
C651   C     0.52382   0.59408   0.78952   0.00000  Uiso   1.00
C652   C     0.49907   0.83615   0.75031   0.00000  Uiso   1.00
C653   C     0.52663   0.90583   0.71906   0.00000  Uiso   1.00
C654   C     0.49949   0.61565   0.74847   0.00000  Uiso   1.00
C655   C     0.49946   0.88420   0.75140   0.00000  Uiso   1.00
C656   C     0.47661   0.59079   0.70768   0.00000  Uiso   1.00
C657   C     0.47374   0.90887   0.78406   0.00000  Uiso   1.00
C658   C     0.47990   0.54460   0.70903   0.00000  Uiso   1.00
C659   C     0.47706   0.95507   0.78394   0.00000  Uiso   1.00
C660   C     0.50439   0.52377   0.75010   0.00000  Uiso   1.00
C661   C     0.50440   0.97603   0.75163   0.00000  Uiso   1.00
C662   C     0.44712   0.61202   0.66355   0.00000  Uiso   1.00
C663   C     0.45902   0.72990   0.54673   0.00000  Uiso   1.00
C664   C     0.44119   0.88732   0.81754   0.00000  Uiso   1.00
C665   C     0.52266   0.78523   0.95103   0.00000  Uiso   1.00
C666   C     0.45993   0.73013   0.59649   0.00000  Uiso   1.00
C667   C     0.52246   0.78447   0.90136   0.00000  Uiso   1.00
C668   C     0.54004   0.76983   0.60801   0.00000  Uiso   1.00
C669   C     0.47742   0.71561   0.89414   0.00000  Uiso   1.00
C670   C     0.54087   0.77007   0.55850   0.00000  Uiso   1.00
H671   H     0.65801   0.74998   0.69433   0.00000  Uiso   1.00
H672   H     0.53996   0.81359   0.97159   0.00000  Uiso   1.00
H673   H     0.42834   0.71450   0.61134   0.00000  Uiso   1.00
H674   H     0.54020   0.81164   0.88482   0.00000  Uiso   1.00
H675   H     0.57167   0.78549   0.63193   0.00000  Uiso   1.00
H676   H     0.45965   0.68843   0.87193   0.00000  Uiso   1.00
H677   H     0.57386   0.78538   0.54549   0.00000  Uiso   1.00
H678   H     0.45976   0.68654   0.95865   0.00000  Uiso   1.00
H679   H     0.41703   0.63538   0.67360   0.00000  Uiso   1.00
H680   H     0.47479   0.63004   0.64413   0.00000  Uiso   1.00
H681   H     0.42648   0.58677   0.63844   0.00000  Uiso   1.00
H682   H     0.34201   0.75020   0.80566   0.00000  Uiso   1.00
H683   H     0.46698   0.86935   0.84594   0.00000  Uiso   1.00
H684   H     0.41867   0.91238   0.83539   0.00000  Uiso   1.00
H685   H     0.41249   0.86380   0.79739   0.00000  Uiso   1.00
H686   H     0.54471   0.53166   0.82227   0.00000  Uiso   1.00
H687   H     0.54979   0.96836   0.69385   0.00000  Uiso   1.00
H688   H     0.54150   0.61275   0.82087   0.00000  Uiso   1.00
H689   H     0.54647   0.88717   0.69403   0.00000  Uiso   1.00
H690   H     0.46243   0.52458   0.67858   0.00000  Uiso   1.00
H691   H     0.45742   0.97497   0.80818   0.00000  Uiso   1.00
H692   H     0.42601   0.71458   0.52424   0.00000  Uiso   1.00
N693   N     0.50000   0.74999   0.62623   0.00000  Uiso   1.00
N694   N     0.50000   0.75001   0.87376   0.00000  Uiso   1.00
O695   O     0.50000   0.68453   0.78974   0.00000  Uiso   1.00
O696   O     0.50000   0.81546   0.71026   0.00000  Uiso   1.00
O697   O     0.50000   0.68453   0.71026   0.00000  Uiso   1.00
O698   O     0.50000   0.81547   0.78974   0.00000  Uiso   1.00
O699   O     0.42392   0.75000   0.78044   0.00000  Uiso   1.00
O700   O     0.57608   0.75000   0.71955   0.00000  Uiso   1.00
O701   O     0.42392   0.74999   0.70096   0.00000  Uiso   1.00
O702   O     0.57608   0.75000   0.79903   0.00000  Uiso   1.00
Zn703  Zn    0.50000   0.75000   0.80307   0.00000  Uiso   1.00
Zn704  Zn    0.50000   0.74999   0.69693   0.00000  Uiso   1.00
C705   C     0.83241   0.66380   0.74943   0.00000  Uiso   1.00
C706   C     0.81044   0.71488   0.94371   0.00000  Uiso   1.00
C707   C     0.83325   0.75001   0.52668   0.00000  Uiso   1.00
C708   C     0.83321   0.75005   0.97331   0.00000  Uiso   1.00
C709   C     0.73366   0.75001   0.73752   0.00000  Uiso   1.00
C710   C     0.93301   0.75005   0.76247   0.00000  Uiso   1.00
C711   C     0.67864   0.75005   0.73078   0.00000  Uiso   1.00
C712   C     0.98803   0.75012   0.76921   0.00000  Uiso   1.00
C713   C     0.85940   0.54819   0.79039   0.00000  Uiso   1.00
C714   C     0.86227   0.95173   0.71907   0.00000  Uiso   1.00
C715   C     0.85715   0.59408   0.78952   0.00000  Uiso   1.00
C716   C     0.83240   0.83615   0.75031   0.00000  Uiso   1.00
C717   C     0.85997   0.90583   0.71906   0.00000  Uiso   1.00
C718   C     0.83283   0.61565   0.74847   0.00000  Uiso   1.00
C719   C     0.83279   0.88420   0.75140   0.00000  Uiso   1.00
C720   C     0.80994   0.59079   0.70768   0.00000  Uiso   1.00
C721   C     0.80708   0.90887   0.78406   0.00000  Uiso   1.00
C722   C     0.81324   0.54460   0.70903   0.00000  Uiso   1.00
C723   C     0.81040   0.95507   0.78394   0.00000  Uiso   1.00
C724   C     0.83773   0.52377   0.75010   0.00000  Uiso   1.00
C725   C     0.83774   0.97603   0.75163   0.00000  Uiso   1.00
C726   C     0.78046   0.61202   0.66355   0.00000  Uiso   1.00
C727   C     0.79235   0.72990   0.54673   0.00000  Uiso   1.00
C728   C     0.77453   0.88732   0.81754   0.00000  Uiso   1.00
C729   C     0.85599   0.78523   0.95103   0.00000  Uiso   1.00
C730   C     0.79327   0.73013   0.59649   0.00000  Uiso   1.00
C731   C     0.85579   0.78447   0.90136   0.00000  Uiso   1.00
C732   C     0.87337   0.76983   0.60801   0.00000  Uiso   1.00
C733   C     0.81075   0.71561   0.89414   0.00000  Uiso   1.00
C734   C     0.87420   0.77007   0.55850   0.00000  Uiso   1.00
H735   H     0.99134   0.74998   0.69433   0.00000  Uiso   1.00
H736   H     0.87329   0.81359   0.97159   0.00000  Uiso   1.00
H737   H     0.76168   0.71450   0.61134   0.00000  Uiso   1.00
H738   H     0.87354   0.81164   0.88482   0.00000  Uiso   1.00
H739   H     0.90500   0.78549   0.63193   0.00000  Uiso   1.00
H740   H     0.79298   0.68843   0.87193   0.00000  Uiso   1.00
H741   H     0.90719   0.78538   0.54549   0.00000  Uiso   1.00
H742   H     0.79309   0.68654   0.95865   0.00000  Uiso   1.00
H743   H     0.75037   0.63538   0.67360   0.00000  Uiso   1.00
H744   H     0.80813   0.63004   0.64413   0.00000  Uiso   1.00
H745   H     0.75981   0.58677   0.63844   0.00000  Uiso   1.00
H746   H     0.67534   0.75020   0.80566   0.00000  Uiso   1.00
H747   H     0.80032   0.86935   0.84594   0.00000  Uiso   1.00
H748   H     0.75201   0.91238   0.83539   0.00000  Uiso   1.00
H749   H     0.74582   0.86380   0.79739   0.00000  Uiso   1.00
H750   H     0.87805   0.53166   0.82227   0.00000  Uiso   1.00
H751   H     0.88313   0.96836   0.69385   0.00000  Uiso   1.00
H752   H     0.87483   0.61275   0.82087   0.00000  Uiso   1.00
H753   H     0.87981   0.88717   0.69403   0.00000  Uiso   1.00
H754   H     0.79577   0.52458   0.67858   0.00000  Uiso   1.00
H755   H     0.79075   0.97497   0.80818   0.00000  Uiso   1.00
H756   H     0.75934   0.71458   0.52424   0.00000  Uiso   1.00
N757   N     0.83333   0.74999   0.62623   0.00000  Uiso   1.00
N758   N     0.83333   0.75001   0.87376   0.00000  Uiso   1.00
O759   O     0.83334   0.68453   0.78974   0.00000  Uiso   1.00
O760   O     0.83333   0.81546   0.71026   0.00000  Uiso   1.00
O761   O     0.83334   0.68453   0.71026   0.00000  Uiso   1.00
O762   O     0.83333   0.81547   0.78974   0.00000  Uiso   1.00
O763   O     0.75725   0.75000   0.78044   0.00000  Uiso   1.00
O764   O     0.90942   0.75000   0.71955   0.00000  Uiso   1.00
O765   O     0.75725   0.74999   0.70096   0.00000  Uiso   1.00
O766   O     0.90942   0.75000   0.79903   0.00000  Uiso   1.00
Zn767  Zn    0.83333   0.75000   0.80307   0.00000  Uiso   1.00
Zn768  Zn    0.83333   0.74999   0.69693   0.00000  Uiso   1.00
loop_
_geom_bond_atom_site_label_1
_geom_bond_atom_site_label_2
_geom_bond_distance
_geom_bond_site_symmetry_2
_ccdc_geom_bond_type
C1     O57     1.283   .     A
C1     O55     1.290   .     A
C1     C14     1.444   .     S
C2     C4      1.410   .     A
C2     H38     1.082   .     S
C2     C29     1.406   .     A
C3     C30     1.410   .     A
C3     C23     1.411   .     A
C3     C388    1.512   1_554 S
C4     C25     1.411   .     A
C4     C387    1.512   .     S
C5     O61     1.278   .     A
C5     C7      1.402   .     S
C5     O59     1.275   .     A
C6     O62     1.278   .     A
C6     C8      1.402   .     S
C6     O60     1.275   .     A
C7     C136    1.330   1_455 S
C7     H159    1.088   1_455 S
C8     C71     1.330   .     S
C8     H106    1.088   .     S
C9     C11     1.378   .     A
C9     H46     1.084   .     S
C9     C20     1.391   .     A
C10    C21     1.392   .     A
C10    H47     1.084   .     S
C10    C13     1.378   .     A
C11    H48     1.084   .     S
C11    C14     1.402   .     A
C12    C15     1.442   .     S
C12    O58     1.283   .     A
C12    O56     1.289   .     A
C13    H49     1.084   .     S
C13    C15     1.401   .     A
C14    C16     1.418   .     A
C15    C17     1.417   .     A
C16    C18     1.389   .     A
C16    C22     1.511   .     S
C17    C19     1.389   .     A
C17    C24     1.510   .     S
C18    C20     1.393   .     A
C18    H50     1.085   .     S
C19    H51     1.085   .     S
C19    C21     1.394   .     A
C20    C213    1.434   1_545 S
C21    C212    1.434   .     S
C22    H40     1.110   .     S
C22    H39     1.111   .     S
C22    H41     1.111   .     S
C23    H52     1.082   .     S
C23    C26     1.406   .     A
C24    H45     1.111   .     S
C24    H44     1.111   .     S
C24    H43     1.109   .     S
C25    C27     1.406   .     A
C25    H32     1.082   .     S
C26    H33     1.082   .     S
C26    N53     1.363   .     A
C27    N54     1.363   .     A
C27    H34     1.082   .     S
C28    N53     1.363   .     A
C28    C30     1.406   .     A
C28    H35     1.082   .     S
C29    H36     1.082   .     S
C29    N54     1.363   .     A
C30    H37     1.082   .     S
H31    C71     1.088   .     S
H42    C136    1.088   1_455 S
N53    Zn64    2.003   .     S
N54    Zn63    2.003   .     S
O55    Zn63    1.995   .     S
O56    Zn64    1.995   .     S
O57    Zn64    2.005   .     S
O58    Zn63    2.005   .     S
O59    Zn63    1.969   .     S
O60    Zn64    1.969   .     S
O61    Zn64    1.982   .     S
O62    Zn63    1.982   .     S
C65    O121    1.283   .     A
C65    O119    1.290   .     A
C65    C78     1.444   .     S
C66    C68     1.410   .     A
C66    H102    1.082   .     S
C66    C93     1.406   .     A
C67    C94     1.410   .     A
C67    C87     1.411   .     A
C67    C452    1.512   1_554 S
C68    C89     1.411   .     A
C68    C451    1.512   .     S
C69    O125    1.278   .     A
C69    C71     1.402   .     S
C69    O123    1.275   .     A
C70    O126    1.278   .     A
C70    C72     1.402   .     S
C70    O124    1.275   .     A
C72    C135    1.330   .     S
C72    H170    1.088   .     S
C73    C75     1.378   .     A
C73    H110    1.084   .     S
C73    C84     1.391   .     A
C74    C85     1.392   .     A
C74    H111    1.084   .     S
C74    C77     1.378   .     A
C75    H112    1.084   .     S
C75    C78     1.402   .     A
C76    C79     1.442   .     S
C76    O122    1.283   .     A
C76    O120    1.289   .     A
C77    H113    1.084   .     S
C77    C79     1.401   .     A
C78    C80     1.418   .     A
C79    C81     1.417   .     A
C80    C82     1.389   .     A
C80    C86     1.511   .     S
C81    C83     1.389   .     A
C81    C88     1.510   .     S
C82    C84     1.393   .     A
C82    H114    1.085   .     S
C83    H115    1.085   .     S
C83    C85     1.394   .     A
C84    C277    1.434   1_545 S
C85    C276    1.434   .     S
C86    H104    1.110   .     S
C86    H103    1.111   .     S
C86    H105    1.111   .     S
C87    H116    1.082   .     S
C87    C90     1.406   .     A
C88    H109    1.111   .     S
C88    H108    1.111   .     S
C88    H107    1.109   .     S
C89    C91     1.406   .     A
C89    H96     1.082   .     S
C90    H97     1.082   .     S
C90    N117    1.363   .     A
C91    N118    1.363   .     A
C91    H98     1.082   .     S
C92    N117    1.363   .     A
C92    C94     1.406   .     A
C92    H99     1.082   .     S
C93    H100    1.082   .     S
C93    N118    1.363   .     A
C94    H101    1.082   .     S
H95    C135    1.088   .     S
N117   Zn128   2.003   .     S
N118   Zn127   2.003   .     S
O119   Zn127   1.995   .     S
O120   Zn128   1.995   .     S
O121   Zn128   2.005   .     S
O122   Zn127   2.005   .     S
O123   Zn127   1.969   .     S
O124   Zn128   1.969   .     S
O125   Zn128   1.982   .     S
O126   Zn127   1.982   .     S
C129   O185    1.283   .     A
C129   O183    1.290   .     A
C129   C142    1.444   .     S
C130   C132    1.410   .     A
C130   H166    1.082   .     S
C130   C157    1.406   .     A
C131   C158    1.410   .     A
C131   C151    1.411   .     A
C131   C516    1.512   1_554 S
C132   C153    1.411   .     A
C132   C515    1.512   .     S
C133   O189    1.278   .     A
C133   C135    1.402   .     S
C133   O187    1.275   .     A
C134   O190    1.278   .     A
C134   C136    1.402   .     S
C134   O188    1.275   .     A
C136   C7      1.330   1_655 S
C136   H42     1.088   1_655 S
C137   C139    1.378   .     A
C137   H174    1.084   .     S
C137   C148    1.391   .     A
C138   C149    1.392   .     A
C138   H175    1.084   .     S
C138   C141    1.378   .     A
C139   H176    1.084   .     S
C139   C142    1.402   .     A
C140   C143    1.442   .     S
C140   O186    1.283   .     A
C140   O184    1.289   .     A
C141   H177    1.084   .     S
C141   C143    1.401   .     A
C142   C144    1.418   .     A
C143   C145    1.417   .     A
C144   C146    1.389   .     A
C144   C150    1.511   .     S
C145   C147    1.389   .     A
C145   C152    1.510   .     S
C146   C148    1.393   .     A
C146   H178    1.085   .     S
C147   H179    1.085   .     S
C147   C149    1.394   .     A
C148   C341    1.434   1_545 S
C149   C340    1.434   .     S
C150   H168    1.110   .     S
C150   H167    1.111   .     S
C150   H169    1.111   .     S
C151   H180    1.082   .     S
C151   C154    1.406   .     A
C152   H173    1.111   .     S
C152   H172    1.111   .     S
C152   H171    1.109   .     S
C153   C155    1.406   .     A
C153   H160    1.082   .     S
C154   H161    1.082   .     S
C154   N181    1.363   .     A
C155   N182    1.363   .     A
C155   H162    1.082   .     S
C156   N181    1.363   .     A
C156   C158    1.406   .     A
C156   H163    1.082   .     S
C157   H164    1.082   .     S
C157   N182    1.363   .     A
C158   H165    1.082   .     S
H159   C7      1.088   1_655 S
N181   Zn192   2.003   .     S
N182   Zn191   2.003   .     S
O183   Zn191   1.995   .     S
O184   Zn192   1.995   .     S
O185   Zn192   2.005   .     S
O186   Zn191   2.005   .     S
O187   Zn191   1.969   .     S
O188   Zn192   1.969   .     S
O189   Zn192   1.982   .     S
O190   Zn191   1.982   .     S
C193   O249    1.283   .     A
C193   O247    1.290   .     A
C193   C206    1.444   .     S
C194   C196    1.410   .     A
C194   H230    1.082   .     S
C194   C221    1.406   .     A
C195   C222    1.410   .     A
C195   C215    1.411   .     A
C195   C580    1.512   1_554 S
C196   C217    1.411   .     A
C196   C579    1.512   .     S
C197   O253    1.278   .     A
C197   C199    1.402   .     S
C197   O251    1.275   .     A
C198   O254    1.278   .     A
C198   C200    1.402   .     S
C198   O252    1.275   .     A
C199   C328    1.330   1_455 S
C199   H351    1.088   1_455 S
C200   C263    1.330   .     S
C200   H298    1.088   .     S
C201   C203    1.378   .     A
C201   H238    1.084   .     S
C201   C212    1.391   .     A
C202   C213    1.392   .     A
C202   H239    1.084   .     S
C202   C205    1.378   .     A
C203   H240    1.084   .     S
C203   C206    1.402   .     A
C204   C207    1.442   .     S
C204   O250    1.283   .     A
C204   O248    1.289   .     A
C205   H241    1.084   .     S
C205   C207    1.401   .     A
C206   C208    1.418   .     A
C207   C209    1.417   .     A
C208   C210    1.389   .     A
C208   C214    1.511   .     S
C209   C211    1.389   .     A
C209   C216    1.510   .     S
C210   C212    1.393   .     A
C210   H242    1.085   .     S
C211   H243    1.085   .     S
C211   C213    1.394   .     A
C213   C20     1.434   1_565 S
C214   H232    1.110   .     S
C214   H231    1.111   .     S
C214   H233    1.111   .     S
C215   H244    1.082   .     S
C215   C218    1.406   .     A
C216   H237    1.111   .     S
C216   H236    1.111   .     S
C216   H235    1.109   .     S
C217   C219    1.406   .     A
C217   H224    1.082   .     S
C218   H225    1.082   .     S
C218   N245    1.363   .     A
C219   N246    1.363   .     A
C219   H226    1.082   .     S
C220   N245    1.363   .     A
C220   C222    1.406   .     A
C220   H227    1.082   .     S
C221   H228    1.082   .     S
C221   N246    1.363   .     A
C222   H229    1.082   .     S
H223   C263    1.088   .     S
H234   C328    1.088   1_455 S
N245   Zn256   2.003   .     S
N246   Zn255   2.003   .     S
O247   Zn255   1.995   .     S
O248   Zn256   1.995   .     S
O249   Zn256   2.005   .     S
O250   Zn255   2.005   .     S
O251   Zn255   1.969   .     S
O252   Zn256   1.969   .     S
O253   Zn256   1.982   .     S
O254   Zn255   1.982   .     S
C257   O313    1.283   .     A
C257   O311    1.290   .     A
C257   C270    1.444   .     S
C258   C260    1.410   .     A
C258   H294    1.082   .     S
C258   C285    1.406   .     A
C259   C286    1.410   .     A
C259   C279    1.411   .     A
C259   C644    1.512   1_554 S
C260   C281    1.411   .     A
C260   C643    1.512   .     S
C261   O317    1.278   .     A
C261   C263    1.402   .     S
C261   O315    1.275   .     A
C262   O318    1.278   .     A
C262   C264    1.402   .     S
C262   O316    1.275   .     A
C264   C327    1.330   .     S
C264   H362    1.088   .     S
C265   C267    1.378   .     A
C265   H302    1.084   .     S
C265   C276    1.391   .     A
C266   C277    1.392   .     A
C266   H303    1.084   .     S
C266   C269    1.378   .     A
C267   H304    1.084   .     S
C267   C270    1.402   .     A
C268   C271    1.442   .     S
C268   O314    1.283   .     A
C268   O312    1.289   .     A
C269   H305    1.084   .     S
C269   C271    1.401   .     A
C270   C272    1.418   .     A
C271   C273    1.417   .     A
C272   C274    1.389   .     A
C272   C278    1.511   .     S
C273   C275    1.389   .     A
C273   C280    1.510   .     S
C274   C276    1.393   .     A
C274   H306    1.085   .     S
C275   H307    1.085   .     S
C275   C277    1.394   .     A
C277   C84     1.434   1_565 S
C278   H296    1.110   .     S
C278   H295    1.111   .     S
C278   H297    1.111   .     S
C279   H308    1.082   .     S
C279   C282    1.406   .     A
C280   H301    1.111   .     S
C280   H300    1.111   .     S
C280   H299    1.109   .     S
C281   C283    1.406   .     A
C281   H288    1.082   .     S
C282   H289    1.082   .     S
C282   N309    1.363   .     A
C283   N310    1.363   .     A
C283   H290    1.082   .     S
C284   N309    1.363   .     A
C284   C286    1.406   .     A
C284   H291    1.082   .     S
C285   H292    1.082   .     S
C285   N310    1.363   .     A
C286   H293    1.082   .     S
H287   C327    1.088   .     S
N309   Zn320   2.003   .     S
N310   Zn319   2.003   .     S
O311   Zn319   1.995   .     S
O312   Zn320   1.995   .     S
O313   Zn320   2.005   .     S
O314   Zn319   2.005   .     S
O315   Zn319   1.969   .     S
O316   Zn320   1.969   .     S
O317   Zn320   1.982   .     S
O318   Zn319   1.982   .     S
C321   O377    1.283   .     A
C321   O375    1.290   .     A
C321   C334    1.444   .     S
C322   C324    1.410   .     A
C322   H358    1.082   .     S
C322   C349    1.406   .     A
C323   C350    1.410   .     A
C323   C343    1.411   .     A
C323   C708    1.512   1_554 S
C324   C345    1.411   .     A
C324   C707    1.512   .     S
C325   O381    1.278   .     A
C325   C327    1.402   .     S
C325   O379    1.275   .     A
C326   O382    1.278   .     A
C326   C328    1.402   .     S
C326   O380    1.275   .     A
C328   C199    1.330   1_655 S
C328   H234    1.088   1_655 S
C329   C331    1.378   .     A
C329   H366    1.084   .     S
C329   C340    1.391   .     A
C330   C341    1.392   .     A
C330   H367    1.084   .     S
C330   C333    1.378   .     A
C331   H368    1.084   .     S
C331   C334    1.402   .     A
C332   C335    1.442   .     S
C332   O378    1.283   .     A
C332   O376    1.289   .     A
C333   H369    1.084   .     S
C333   C335    1.401   .     A
C334   C336    1.418   .     A
C335   C337    1.417   .     A
C336   C338    1.389   .     A
C336   C342    1.511   .     S
C337   C339    1.389   .     A
C337   C344    1.510   .     S
C338   C340    1.393   .     A
C338   H370    1.085   .     S
C339   H371    1.085   .     S
C339   C341    1.394   .     A
C341   C148    1.434   1_565 S
C342   H360    1.110   .     S
C342   H359    1.111   .     S
C342   H361    1.111   .     S
C343   H372    1.082   .     S
C343   C346    1.406   .     A
C344   H365    1.111   .     S
C344   H364    1.111   .     S
C344   H363    1.109   .     S
C345   C347    1.406   .     A
C345   H352    1.082   .     S
C346   H353    1.082   .     S
C346   N373    1.363   .     A
C347   N374    1.363   .     A
C347   H354    1.082   .     S
C348   N373    1.363   .     A
C348   C350    1.406   .     A
C348   H355    1.082   .     S
C349   H356    1.082   .     S
C349   N374    1.363   .     A
C350   H357    1.082   .     S
H351   C199    1.088   1_655 S
N373   Zn384   2.003   .     S
N374   Zn383   2.003   .     S
O375   Zn383   1.995   .     S
O376   Zn384   1.995   .     S
O377   Zn384   2.005   .     S
O378   Zn383   2.005   .     S
O379   Zn383   1.969   .     S
O380   Zn384   1.969   .     S
O381   Zn384   1.982   .     S
O382   Zn383   1.982   .     S
C385   O441    1.283   .     A
C385   O439    1.290   .     A
C385   C398    1.444   .     S
C386   C388    1.410   .     A
C386   H422    1.082   .     S
C386   C413    1.406   .     A
C387   C414    1.410   .     A
C387   C407    1.411   .     A
C388   C409    1.411   .     A
C388   C3      1.512   1_556 S
C389   O445    1.278   .     A
C389   C391    1.402   .     S
C389   O443    1.275   .     A
C390   O446    1.278   .     A
C390   C392    1.402   .     S
C390   O444    1.275   .     A
C391   C520    1.330   1_455 S
C391   H543    1.088   1_455 S
C392   C455    1.330   .     S
C392   H490    1.088   .     S
C393   C395    1.378   .     A
C393   H430    1.084   .     S
C393   C404    1.391   .     A
C394   C405    1.392   .     A
C394   H431    1.084   .     S
C394   C397    1.378   .     A
C395   H432    1.084   .     S
C395   C398    1.402   .     A
C396   C399    1.442   .     S
C396   O442    1.283   .     A
C396   O440    1.289   .     A
C397   H433    1.084   .     S
C397   C399    1.401   .     A
C398   C400    1.418   .     A
C399   C401    1.417   .     A
C400   C402    1.389   .     A
C400   C406    1.511   .     S
C401   C403    1.389   .     A
C401   C408    1.510   .     S
C402   C404    1.393   .     A
C402   H434    1.085   .     S
C403   H435    1.085   .     S
C403   C405    1.394   .     A
C404   C597    1.434   1_545 S
C405   C596    1.434   .     S
C406   H424    1.110   .     S
C406   H423    1.111   .     S
C406   H425    1.111   .     S
C407   H436    1.082   .     S
C407   C410    1.406   .     A
C408   H429    1.111   .     S
C408   H428    1.111   .     S
C408   H427    1.109   .     S
C409   C411    1.406   .     A
C409   H416    1.082   .     S
C410   H417    1.082   .     S
C410   N437    1.363   .     A
C411   N438    1.363   .     A
C411   H418    1.082   .     S
C412   N437    1.363   .     A
C412   C414    1.406   .     A
C412   H419    1.082   .     S
C413   H420    1.082   .     S
C413   N438    1.363   .     A
C414   H421    1.082   .     S
H415   C455    1.088   .     S
H426   C520    1.088   1_455 S
N437   Zn448   2.003   .     S
N438   Zn447   2.003   .     S
O439   Zn447   1.995   .     S
O440   Zn448   1.995   .     S
O441   Zn448   2.005   .     S
O442   Zn447   2.005   .     S
O443   Zn447   1.969   .     S
O444   Zn448   1.969   .     S
O445   Zn448   1.982   .     S
O446   Zn447   1.982   .     S
C449   O505    1.283   .     A
C449   O503    1.290   .     A
C449   C462    1.444   .     S
C450   C452    1.410   .     A
C450   H486    1.082   .     S
C450   C477    1.406   .     A
C451   C478    1.410   .     A
C451   C471    1.411   .     A
C452   C473    1.411   .     A
C452   C67     1.512   1_556 S
C453   O509    1.278   .     A
C453   C455    1.402   .     S
C453   O507    1.275   .     A
C454   O510    1.278   .     A
C454   C456    1.402   .     S
C454   O508    1.275   .     A
C456   C519    1.330   .     S
C456   H554    1.088   .     S
C457   C459    1.378   .     A
C457   H494    1.084   .     S
C457   C468    1.391   .     A
C458   C469    1.392   .     A
C458   H495    1.084   .     S
C458   C461    1.378   .     A
C459   H496    1.084   .     S
C459   C462    1.402   .     A
C460   C463    1.442   .     S
C460   O506    1.283   .     A
C460   O504    1.289   .     A
C461   H497    1.084   .     S
C461   C463    1.401   .     A
C462   C464    1.418   .     A
C463   C465    1.417   .     A
C464   C466    1.389   .     A
C464   C470    1.511   .     S
C465   C467    1.389   .     A
C465   C472    1.510   .     S
C466   C468    1.393   .     A
C466   H498    1.085   .     S
C467   H499    1.085   .     S
C467   C469    1.394   .     A
C468   C661    1.434   1_545 S
C469   C660    1.434   .     S
C470   H488    1.110   .     S
C470   H487    1.111   .     S
C470   H489    1.111   .     S
C471   H500    1.082   .     S
C471   C474    1.406   .     A
C472   H493    1.111   .     S
C472   H492    1.111   .     S
C472   H491    1.109   .     S
C473   C475    1.406   .     A
C473   H480    1.082   .     S
C474   H481    1.082   .     S
C474   N501    1.363   .     A
C475   N502    1.363   .     A
C475   H482    1.082   .     S
C476   N501    1.363   .     A
C476   C478    1.406   .     A
C476   H483    1.082   .     S
C477   H484    1.082   .     S
C477   N502    1.363   .     A
C478   H485    1.082   .     S
H479   C519    1.088   .     S
N501   Zn512   2.003   .     S
N502   Zn511   2.003   .     S
O503   Zn511   1.995   .     S
O504   Zn512   1.995   .     S
O505   Zn512   2.005   .     S
O506   Zn511   2.005   .     S
O507   Zn511   1.969   .     S
O508   Zn512   1.969   .     S
O509   Zn512   1.982   .     S
O510   Zn511   1.982   .     S
C513   O569    1.283   .     A
C513   O567    1.290   .     A
C513   C526    1.444   .     S
C514   C516    1.410   .     A
C514   H550    1.082   .     S
C514   C541    1.406   .     A
C515   C542    1.410   .     A
C515   C535    1.411   .     A
C516   C537    1.411   .     A
C516   C131    1.512   1_556 S
C517   O573    1.278   .     A
C517   C519    1.402   .     S
C517   O571    1.275   .     A
C518   O574    1.278   .     A
C518   C520    1.402   .     S
C518   O572    1.275   .     A
C520   C391    1.330   1_655 S
C520   H426    1.088   1_655 S
C521   C523    1.378   .     A
C521   H558    1.084   .     S
C521   C532    1.391   .     A
C522   C533    1.392   .     A
C522   H559    1.084   .     S
C522   C525    1.378   .     A
C523   H560    1.084   .     S
C523   C526    1.402   .     A
C524   C527    1.442   .     S
C524   O570    1.283   .     A
C524   O568    1.289   .     A
C525   H561    1.084   .     S
C525   C527    1.401   .     A
C526   C528    1.418   .     A
C527   C529    1.417   .     A
C528   C530    1.389   .     A
C528   C534    1.511   .     S
C529   C531    1.389   .     A
C529   C536    1.510   .     S
C530   C532    1.393   .     A
C530   H562    1.085   .     S
C531   H563    1.085   .     S
C531   C533    1.394   .     A
C532   C725    1.434   1_545 S
C533   C724    1.434   .     S
C534   H552    1.110   .     S
C534   H551    1.111   .     S
C534   H553    1.111   .     S
C535   H564    1.082   .     S
C535   C538    1.406   .     A
C536   H557    1.111   .     S
C536   H556    1.111   .     S
C536   H555    1.109   .     S
C537   C539    1.406   .     A
C537   H544    1.082   .     S
C538   H545    1.082   .     S
C538   N565    1.363   .     A
C539   N566    1.363   .     A
C539   H546    1.082   .     S
C540   N565    1.363   .     A
C540   C542    1.406   .     A
C540   H547    1.082   .     S
C541   H548    1.082   .     S
C541   N566    1.363   .     A
C542   H549    1.082   .     S
H543   C391    1.088   1_655 S
N565   Zn576   2.003   .     S
N566   Zn575   2.003   .     S
O567   Zn575   1.995   .     S
O568   Zn576   1.995   .     S
O569   Zn576   2.005   .     S
O570   Zn575   2.005   .     S
O571   Zn575   1.969   .     S
O572   Zn576   1.969   .     S
O573   Zn576   1.982   .     S
O574   Zn575   1.982   .     S
C577   O633    1.283   .     A
C577   O631    1.290   .     A
C577   C590    1.444   .     S
C578   C580    1.410   .     A
C578   H614    1.082   .     S
C578   C605    1.406   .     A
C579   C606    1.410   .     A
C579   C599    1.411   .     A
C580   C601    1.411   .     A
C580   C195    1.512   1_556 S
C581   O637    1.278   .     A
C581   C583    1.402   .     S
C581   O635    1.275   .     A
C582   O638    1.278   .     A
C582   C584    1.402   .     S
C582   O636    1.275   .     A
C583   C712    1.330   1_455 S
C583   H735    1.088   1_455 S
C584   C647    1.330   .     S
C584   H682    1.088   .     S
C585   C587    1.378   .     A
C585   H622    1.084   .     S
C585   C596    1.391   .     A
C586   C597    1.392   .     A
C586   H623    1.084   .     S
C586   C589    1.378   .     A
C587   H624    1.084   .     S
C587   C590    1.402   .     A
C588   C591    1.442   .     S
C588   O634    1.283   .     A
C588   O632    1.289   .     A
C589   H625    1.084   .     S
C589   C591    1.401   .     A
C590   C592    1.418   .     A
C591   C593    1.417   .     A
C592   C594    1.389   .     A
C592   C598    1.511   .     S
C593   C595    1.389   .     A
C593   C600    1.510   .     S
C594   C596    1.393   .     A
C594   H626    1.085   .     S
C595   H627    1.085   .     S
C595   C597    1.394   .     A
C597   C404    1.434   1_565 S
C598   H616    1.110   .     S
C598   H615    1.111   .     S
C598   H617    1.111   .     S
C599   H628    1.082   .     S
C599   C602    1.406   .     A
C600   H621    1.111   .     S
C600   H620    1.111   .     S
C600   H619    1.109   .     S
C601   C603    1.406   .     A
C601   H608    1.082   .     S
C602   H609    1.082   .     S
C602   N629    1.363   .     A
C603   N630    1.363   .     A
C603   H610    1.082   .     S
C604   N629    1.363   .     A
C604   C606    1.406   .     A
C604   H611    1.082   .     S
C605   H612    1.082   .     S
C605   N630    1.363   .     A
C606   H613    1.082   .     S
H607   C647    1.088   .     S
H618   C712    1.088   1_455 S
N629   Zn640   2.003   .     S
N630   Zn639   2.003   .     S
O631   Zn639   1.995   .     S
O632   Zn640   1.995   .     S
O633   Zn640   2.005   .     S
O634   Zn639   2.005   .     S
O635   Zn639   1.969   .     S
O636   Zn640   1.969   .     S
O637   Zn640   1.982   .     S
O638   Zn639   1.982   .     S
C641   O697    1.283   .     A
C641   O695    1.290   .     A
C641   C654    1.444   .     S
C642   C644    1.410   .     A
C642   H678    1.082   .     S
C642   C669    1.406   .     A
C643   C670    1.410   .     A
C643   C663    1.411   .     A
C644   C665    1.411   .     A
C644   C259    1.512   1_556 S
C645   O701    1.278   .     A
C645   C647    1.402   .     S
C645   O699    1.275   .     A
C646   O702    1.278   .     A
C646   C648    1.402   .     S
C646   O700    1.275   .     A
C648   C711    1.330   .     S
C648   H746    1.088   .     S
C649   C651    1.378   .     A
C649   H686    1.084   .     S
C649   C660    1.391   .     A
C650   C661    1.392   .     A
C650   H687    1.084   .     S
C650   C653    1.378   .     A
C651   H688    1.084   .     S
C651   C654    1.402   .     A
C652   C655    1.442   .     S
C652   O698    1.283   .     A
C652   O696    1.289   .     A
C653   H689    1.084   .     S
C653   C655    1.401   .     A
C654   C656    1.418   .     A
C655   C657    1.417   .     A
C656   C658    1.389   .     A
C656   C662    1.511   .     S
C657   C659    1.389   .     A
C657   C664    1.510   .     S
C658   C660    1.393   .     A
C658   H690    1.085   .     S
C659   H691    1.085   .     S
C659   C661    1.394   .     A
C661   C468    1.434   1_565 S
C662   H680    1.110   .     S
C662   H679    1.111   .     S
C662   H681    1.111   .     S
C663   H692    1.082   .     S
C663   C666    1.406   .     A
C664   H685    1.111   .     S
C664   H684    1.111   .     S
C664   H683    1.109   .     S
C665   C667    1.406   .     A
C665   H672    1.082   .     S
C666   H673    1.082   .     S
C666   N693    1.363   .     A
C667   N694    1.363   .     A
C667   H674    1.082   .     S
C668   N693    1.363   .     A
C668   C670    1.406   .     A
C668   H675    1.082   .     S
C669   H676    1.082   .     S
C669   N694    1.363   .     A
C670   H677    1.082   .     S
H671   C711    1.088   .     S
N693   Zn704   2.003   .     S
N694   Zn703   2.003   .     S
O695   Zn703   1.995   .     S
O696   Zn704   1.995   .     S
O697   Zn704   2.005   .     S
O698   Zn703   2.005   .     S
O699   Zn703   1.969   .     S
O700   Zn704   1.969   .     S
O701   Zn704   1.982   .     S
O702   Zn703   1.982   .     S
C705   O761    1.283   .     A
C705   O759    1.290   .     A
C705   C718    1.444   .     S
C706   C708    1.410   .     A
C706   H742    1.082   .     S
C706   C733    1.406   .     A
C707   C734    1.410   .     A
C707   C727    1.411   .     A
C708   C729    1.411   .     A
C708   C323    1.512   1_556 S
C709   O765    1.278   .     A
C709   C711    1.402   .     S
C709   O763    1.275   .     A
C710   O766    1.278   .     A
C710   C712    1.402   .     S
C710   O764    1.275   .     A
C712   C583    1.330   1_655 S
C712   H618    1.088   1_655 S
C713   C715    1.378   .     A
C713   H750    1.084   .     S
C713   C724    1.391   .     A
C714   C725    1.392   .     A
C714   H751    1.084   .     S
C714   C717    1.378   .     A
C715   H752    1.084   .     S
C715   C718    1.402   .     A
C716   C719    1.442   .     S
C716   O762    1.283   .     A
C716   O760    1.289   .     A
C717   H753    1.084   .     S
C717   C719    1.401   .     A
C718   C720    1.418   .     A
C719   C721    1.417   .     A
C720   C722    1.389   .     A
C720   C726    1.511   .     S
C721   C723    1.389   .     A
C721   C728    1.510   .     S
C722   C724    1.393   .     A
C722   H754    1.085   .     S
C723   H755    1.085   .     S
C723   C725    1.394   .     A
C725   C532    1.434   1_565 S
C726   H744    1.110   .     S
C726   H743    1.111   .     S
C726   H745    1.111   .     S
C727   H756    1.082   .     S
C727   C730    1.406   .     A
C728   H749    1.111   .     S
C728   H748    1.111   .     S
C728   H747    1.109   .     S
C729   C731    1.406   .     A
C729   H736    1.082   .     S
C730   H737    1.082   .     S
C730   N757    1.363   .     A
C731   N758    1.363   .     A
C731   H738    1.082   .     S
C732   N757    1.363   .     A
C732   C734    1.406   .     A
C732   H739    1.082   .     S
C733   H740    1.082   .     S
C733   N758    1.363   .     A
C734   H741    1.082   .     S
H735   C583    1.088   1_655 S
N757   Zn768   2.003   .     S
N758   Zn767   2.003   .     S
O759   Zn767   1.995   .     S
O760   Zn768   1.995   .     S
O761   Zn768   2.005   .     S
O762   Zn767   2.005   .     S
O763   Zn767   1.969   .     S
O764   Zn768   1.969   .     S
O765   Zn768   1.982   .     S
O766   Zn767   1.982   .     S
