data_str_m3_o10_o16_pcu_sym.130
_audit_creation_date              2020-01-03
_audit_creation_method            'Materials Studio'
_symmetry_space_group_name_H-M    'P1'
_symmetry_Int_Tables_number       1
_symmetry_cell_setting            triclinic
loop_
_symmetry_equiv_pos_as_xyz
  x,y,z
_cell_length_a                    23.5382
_cell_length_b                    25.7653
_cell_length_c                    24.1090
_cell_angle_alpha                 93.0552
_cell_angle_beta                  100.6153
_cell_angle_gamma                 94.2089
loop_
_atom_site_label
_atom_site_type_symbol
_atom_site_fract_x
_atom_site_fract_y
_atom_site_fract_z
_atom_site_U_iso_or_equiv
_atom_site_adp_type
_atom_site_occupancy
Br1    Br    0.17641   0.23148   0.31935   0.00000  Uiso   1.00
Br2    Br    0.10818   0.01199   0.27866   0.00000  Uiso   1.00
C3     C     0.01562   0.26494   0.25091   0.00000  Uiso   1.00
C4     C     0.05493   0.17558   0.41633   0.00000  Uiso   1.00
C5     C     0.02656   0.31952   0.25862   0.00000  Uiso   1.00
C6     C     0.03528   0.16883   0.35535   0.00000  Uiso   1.00
C7     C     0.31320   0.01416   0.25497   0.00000  Uiso   1.00
C8     C     0.31945   0.06866   0.25360   0.00000  Uiso   1.00
C9     C     0.29804   0.16312   0.14446   0.00000  Uiso   1.00
C10    C     0.27577   0.11139   0.49267   0.00000  Uiso   1.00
C11    C     0.27988   0.15831   0.08306   0.00000  Uiso   1.00
C12    C     0.03082   0.21298   0.44687   0.00000  Uiso   1.00
C13    C     0.06457   0.23975   0.49448   0.00000  Uiso   1.00
C14    C     0.14348   0.18441   0.48721   0.00000  Uiso   1.00
C15    C     0.12277   0.22978   0.01151   0.00000  Uiso   1.00
C16    C     0.03348   0.11139   0.06189   0.00000  Uiso   1.00
C17    C     0.16139   0.27220   0.04656   0.00000  Uiso   1.00
C18    C     0.10800   0.15691   0.43954   0.00000  Uiso   1.00
C19    C     0.19787   0.16519   0.00753   0.00000  Uiso   1.00
C20    C     0.21997   0.12678   0.47493   0.00000  Uiso   1.00
C21    C     0.18440   0.10111   0.42763   0.00000  Uiso   1.00
C22    C     0.12769   0.11335   0.41288   0.00000  Uiso   1.00
C23    C     0.22704   0.17773   0.06249   0.00000  Uiso   1.00
C24    C     0.30750   0.12845   0.04616   0.00000  Uiso   1.00
H25    H     0.26884   0.32979   0.24792   0.00000  Uiso   1.00
H26    H     0.23839   0.31540   0.06118   0.00000  Uiso   1.00
H27    H     0.15636   0.12536   0.20719   0.00000  Uiso   1.00
H28    H     0.19930   0.06949   0.40407   0.00000  Uiso   1.00
H29    H     0.29378   0.08473   0.46549   0.00000  Uiso   1.00
H30    H     0.20584   0.19859   0.09174   0.00000  Uiso   1.00
H31    H     0.32233   0.22647   0.42991   0.00000  Uiso   1.00
H32    H     0.04731   0.27268   0.01359   0.00000  Uiso   1.00
H33    H     0.09963   0.08964   0.37879   0.00000  Uiso   1.00
H34    H     0.08662   0.05398   0.05752   0.00000  Uiso   1.00
N35    N     0.14493   0.15223   0.23543   0.00000  Uiso   1.00
N36    N     0.18840   0.18110   0.26458   0.00000  Uiso   1.00
O37    O     0.29769   0.24629   0.25358   0.00000  Uiso   1.00
O38    O     0.04423   0.06052   0.04624   0.00000  Uiso   1.00
O39    O     0.14452   0.29639   0.08459   0.00000  Uiso   1.00
O40    O     0.21642   0.28562   0.03483   0.00000  Uiso   1.00
O41    O     0.05742   0.23704   0.24424   0.00000  Uiso   1.00
O42    O     0.31490   0.17358   0.33380   0.00000  Uiso   1.00
O43    O     0.07463   0.16433   0.32446   0.00000  Uiso   1.00
O44    O     0.27592   0.09629   0.25577   0.00000  Uiso   1.00
O45    O     0.03565   0.08704   0.24643   0.00000  Uiso   1.00
O46    O     0.25870   0.16901   0.17554   0.00000  Uiso   1.00
O47    O     0.01843   0.15976   0.16620   0.00000  Uiso   1.00
O48    O     0.07360   0.14238   0.08538   0.00000  Uiso   1.00
Zn49   Zn    0.27119   0.17284   0.25624   0.00000  Uiso   1.00
Zn50   Zn    0.06214   0.16049   0.24377   0.00000  Uiso   1.00
Br51   Br    0.50974   0.23148   0.31935   0.00000  Uiso   1.00
Br52   Br    0.44151   0.01199   0.27866   0.00000  Uiso   1.00
C53    C     0.34895   0.26494   0.25091   0.00000  Uiso   1.00
C54    C     0.38826   0.17558   0.41633   0.00000  Uiso   1.00
C55    C     0.35989   0.31952   0.25862   0.00000  Uiso   1.00
C56    C     0.36861   0.16883   0.35535   0.00000  Uiso   1.00
C57    C     0.64653   0.01416   0.25497   0.00000  Uiso   1.00
C58    C     0.65279   0.06866   0.25360   0.00000  Uiso   1.00
C59    C     0.63137   0.16312   0.14446   0.00000  Uiso   1.00
C60    C     0.60910   0.11139   0.49267   0.00000  Uiso   1.00
C61    C     0.61321   0.15831   0.08306   0.00000  Uiso   1.00
C62    C     0.36415   0.21298   0.44687   0.00000  Uiso   1.00
C63    C     0.39790   0.23975   0.49448   0.00000  Uiso   1.00
C64    C     0.47681   0.18441   0.48721   0.00000  Uiso   1.00
C65    C     0.45610   0.22978   0.01151   0.00000  Uiso   1.00
C66    C     0.36682   0.11139   0.06189   0.00000  Uiso   1.00
C67    C     0.49472   0.27220   0.04656   0.00000  Uiso   1.00
C68    C     0.44134   0.15691   0.43954   0.00000  Uiso   1.00
C69    C     0.53121   0.16519   0.00753   0.00000  Uiso   1.00
C70    C     0.55330   0.12678   0.47493   0.00000  Uiso   1.00
C71    C     0.51773   0.10111   0.42763   0.00000  Uiso   1.00
C72    C     0.46102   0.11335   0.41288   0.00000  Uiso   1.00
C73    C     0.56037   0.17773   0.06249   0.00000  Uiso   1.00
C74    C     0.64083   0.12845   0.04616   0.00000  Uiso   1.00
H75    H     0.60217   0.32979   0.24792   0.00000  Uiso   1.00
H76    H     0.57173   0.31540   0.06118   0.00000  Uiso   1.00
H77    H     0.48969   0.12536   0.20719   0.00000  Uiso   1.00
H78    H     0.53263   0.06949   0.40407   0.00000  Uiso   1.00
H79    H     0.62711   0.08473   0.46549   0.00000  Uiso   1.00
H80    H     0.53917   0.19859   0.09174   0.00000  Uiso   1.00
H81    H     0.65566   0.22647   0.42991   0.00000  Uiso   1.00
H82    H     0.38064   0.27268   0.01359   0.00000  Uiso   1.00
H83    H     0.43297   0.08964   0.37879   0.00000  Uiso   1.00
H84    H     0.41996   0.05398   0.05752   0.00000  Uiso   1.00
N85    N     0.47827   0.15223   0.23543   0.00000  Uiso   1.00
N86    N     0.52173   0.18110   0.26458   0.00000  Uiso   1.00
O87    O     0.63102   0.24629   0.25358   0.00000  Uiso   1.00
O88    O     0.37756   0.06052   0.04624   0.00000  Uiso   1.00
O89    O     0.47785   0.29639   0.08459   0.00000  Uiso   1.00
O90    O     0.54976   0.28562   0.03483   0.00000  Uiso   1.00
O91    O     0.39075   0.23704   0.24424   0.00000  Uiso   1.00
O92    O     0.64823   0.17358   0.33380   0.00000  Uiso   1.00
O93    O     0.40796   0.16433   0.32446   0.00000  Uiso   1.00
O94    O     0.60925   0.09629   0.25577   0.00000  Uiso   1.00
O95    O     0.36898   0.08704   0.24643   0.00000  Uiso   1.00
O96    O     0.59204   0.16901   0.17554   0.00000  Uiso   1.00
O97    O     0.35177   0.15976   0.16620   0.00000  Uiso   1.00
O98    O     0.40693   0.14238   0.08538   0.00000  Uiso   1.00
Zn99   Zn    0.60453   0.17284   0.25624   0.00000  Uiso   1.00
Zn100  Zn    0.39547   0.16049   0.24377   0.00000  Uiso   1.00
Br101  Br    0.84308   0.23148   0.31935   0.00000  Uiso   1.00
Br102  Br    0.77484   0.01199   0.27866   0.00000  Uiso   1.00
C103   C     0.68228   0.26494   0.25091   0.00000  Uiso   1.00
C104   C     0.72160   0.17558   0.41633   0.00000  Uiso   1.00
C105   C     0.69322   0.31952   0.25862   0.00000  Uiso   1.00
C106   C     0.70195   0.16883   0.35535   0.00000  Uiso   1.00
C107   C     0.97986   0.01416   0.25497   0.00000  Uiso   1.00
C108   C     0.98612   0.06866   0.25360   0.00000  Uiso   1.00
C109   C     0.96470   0.16312   0.14446   0.00000  Uiso   1.00
C110   C     0.94244   0.11139   0.49267   0.00000  Uiso   1.00
C111   C     0.94654   0.15831   0.08306   0.00000  Uiso   1.00
C112   C     0.69749   0.21298   0.44687   0.00000  Uiso   1.00
C113   C     0.73123   0.23975   0.49448   0.00000  Uiso   1.00
C114   C     0.81014   0.18441   0.48721   0.00000  Uiso   1.00
C115   C     0.78944   0.22978   0.01151   0.00000  Uiso   1.00
C116   C     0.70015   0.11139   0.06189   0.00000  Uiso   1.00
C117   C     0.82806   0.27220   0.04656   0.00000  Uiso   1.00
C118   C     0.77467   0.15691   0.43954   0.00000  Uiso   1.00
C119   C     0.86454   0.16519   0.00753   0.00000  Uiso   1.00
C120   C     0.88664   0.12678   0.47493   0.00000  Uiso   1.00
C121   C     0.85107   0.10111   0.42763   0.00000  Uiso   1.00
C122   C     0.79435   0.11335   0.41288   0.00000  Uiso   1.00
C123   C     0.89370   0.17773   0.06249   0.00000  Uiso   1.00
C124   C     0.97417   0.12845   0.04616   0.00000  Uiso   1.00
H125   H     0.93551   0.32979   0.24792   0.00000  Uiso   1.00
H126   H     0.90506   0.31540   0.06118   0.00000  Uiso   1.00
H127   H     0.82302   0.12536   0.20719   0.00000  Uiso   1.00
H128   H     0.86596   0.06949   0.40407   0.00000  Uiso   1.00
H129   H     0.96044   0.08473   0.46549   0.00000  Uiso   1.00
H130   H     0.87251   0.19859   0.09174   0.00000  Uiso   1.00
H131   H     0.98900   0.22647   0.42991   0.00000  Uiso   1.00
H132   H     0.71398   0.27268   0.01359   0.00000  Uiso   1.00
H133   H     0.76630   0.08964   0.37879   0.00000  Uiso   1.00
H134   H     0.75329   0.05398   0.05752   0.00000  Uiso   1.00
N135   N     0.81160   0.15223   0.23543   0.00000  Uiso   1.00
N136   N     0.85507   0.18110   0.26458   0.00000  Uiso   1.00
O137   O     0.96435   0.24629   0.25358   0.00000  Uiso   1.00
O138   O     0.71089   0.06052   0.04624   0.00000  Uiso   1.00
O139   O     0.81118   0.29639   0.08459   0.00000  Uiso   1.00
O140   O     0.88309   0.28562   0.03483   0.00000  Uiso   1.00
O141   O     0.72408   0.23704   0.24424   0.00000  Uiso   1.00
O142   O     0.98157   0.17358   0.33380   0.00000  Uiso   1.00
O143   O     0.74130   0.16433   0.32446   0.00000  Uiso   1.00
O144   O     0.94258   0.09629   0.25577   0.00000  Uiso   1.00
O145   O     0.70231   0.08704   0.24643   0.00000  Uiso   1.00
O146   O     0.92537   0.16901   0.17554   0.00000  Uiso   1.00
O147   O     0.68510   0.15976   0.16620   0.00000  Uiso   1.00
O148   O     0.74027   0.14238   0.08538   0.00000  Uiso   1.00
Zn149  Zn    0.93786   0.17284   0.25624   0.00000  Uiso   1.00
Zn150  Zn    0.72881   0.16049   0.24377   0.00000  Uiso   1.00
Br151  Br    0.17641   0.56481   0.31935   0.00000  Uiso   1.00
Br152  Br    0.10818   0.34532   0.27866   0.00000  Uiso   1.00
C153   C     0.01562   0.59827   0.25091   0.00000  Uiso   1.00
C154   C     0.05493   0.50892   0.41633   0.00000  Uiso   1.00
C155   C     0.02656   0.65285   0.25862   0.00000  Uiso   1.00
C156   C     0.03528   0.50217   0.35535   0.00000  Uiso   1.00
C157   C     0.31320   0.34749   0.25497   0.00000  Uiso   1.00
C158   C     0.31945   0.40199   0.25360   0.00000  Uiso   1.00
C159   C     0.29804   0.49645   0.14446   0.00000  Uiso   1.00
C160   C     0.27577   0.44472   0.49267   0.00000  Uiso   1.00
C161   C     0.27988   0.49164   0.08306   0.00000  Uiso   1.00
C162   C     0.03082   0.54632   0.44687   0.00000  Uiso   1.00
C163   C     0.06457   0.57309   0.49448   0.00000  Uiso   1.00
C164   C     0.14348   0.51774   0.48721   0.00000  Uiso   1.00
C165   C     0.12277   0.56311   0.01151   0.00000  Uiso   1.00
C166   C     0.03348   0.44473   0.06189   0.00000  Uiso   1.00
C167   C     0.16139   0.60554   0.04656   0.00000  Uiso   1.00
C168   C     0.10800   0.49025   0.43954   0.00000  Uiso   1.00
C169   C     0.19787   0.49853   0.00753   0.00000  Uiso   1.00
C170   C     0.21997   0.46012   0.47493   0.00000  Uiso   1.00
C171   C     0.18440   0.43444   0.42763   0.00000  Uiso   1.00
C172   C     0.12769   0.44669   0.41288   0.00000  Uiso   1.00
C173   C     0.22704   0.51106   0.06249   0.00000  Uiso   1.00
C174   C     0.30750   0.46178   0.04616   0.00000  Uiso   1.00
H175   H     0.26884   0.66312   0.24792   0.00000  Uiso   1.00
H176   H     0.23839   0.64873   0.06118   0.00000  Uiso   1.00
H177   H     0.15636   0.45870   0.20719   0.00000  Uiso   1.00
H178   H     0.19930   0.40282   0.40407   0.00000  Uiso   1.00
H179   H     0.29378   0.41806   0.46549   0.00000  Uiso   1.00
H180   H     0.20584   0.53192   0.09174   0.00000  Uiso   1.00
H181   H     0.32233   0.55981   0.42991   0.00000  Uiso   1.00
H182   H     0.04731   0.60601   0.01359   0.00000  Uiso   1.00
H183   H     0.09963   0.42298   0.37879   0.00000  Uiso   1.00
H184   H     0.08662   0.38731   0.05752   0.00000  Uiso   1.00
N185   N     0.14493   0.48556   0.23543   0.00000  Uiso   1.00
N186   N     0.18840   0.51444   0.26458   0.00000  Uiso   1.00
O187   O     0.29769   0.57963   0.25358   0.00000  Uiso   1.00
O188   O     0.04423   0.39386   0.04624   0.00000  Uiso   1.00
O189   O     0.14452   0.62972   0.08459   0.00000  Uiso   1.00
O190   O     0.21642   0.61896   0.03483   0.00000  Uiso   1.00
O191   O     0.05742   0.57038   0.24424   0.00000  Uiso   1.00
O192   O     0.31490   0.50691   0.33380   0.00000  Uiso   1.00
O193   O     0.07463   0.49766   0.32446   0.00000  Uiso   1.00
O194   O     0.27592   0.42962   0.25577   0.00000  Uiso   1.00
O195   O     0.03565   0.42037   0.24643   0.00000  Uiso   1.00
O196   O     0.25870   0.50234   0.17554   0.00000  Uiso   1.00
O197   O     0.01843   0.49309   0.16620   0.00000  Uiso   1.00
O198   O     0.07360   0.47571   0.08538   0.00000  Uiso   1.00
Zn199  Zn    0.27119   0.50618   0.25624   0.00000  Uiso   1.00
Zn200  Zn    0.06214   0.49382   0.24377   0.00000  Uiso   1.00
Br201  Br    0.50974   0.56481   0.31935   0.00000  Uiso   1.00
Br202  Br    0.44151   0.34532   0.27866   0.00000  Uiso   1.00
C203   C     0.34895   0.59827   0.25091   0.00000  Uiso   1.00
C204   C     0.38826   0.50892   0.41633   0.00000  Uiso   1.00
C205   C     0.35989   0.65285   0.25862   0.00000  Uiso   1.00
C206   C     0.36861   0.50217   0.35535   0.00000  Uiso   1.00
C207   C     0.64653   0.34749   0.25497   0.00000  Uiso   1.00
C208   C     0.65279   0.40199   0.25360   0.00000  Uiso   1.00
C209   C     0.63137   0.49645   0.14446   0.00000  Uiso   1.00
C210   C     0.60910   0.44472   0.49267   0.00000  Uiso   1.00
C211   C     0.61321   0.49164   0.08306   0.00000  Uiso   1.00
C212   C     0.36415   0.54632   0.44687   0.00000  Uiso   1.00
C213   C     0.39790   0.57309   0.49448   0.00000  Uiso   1.00
C214   C     0.47681   0.51774   0.48721   0.00000  Uiso   1.00
C215   C     0.45610   0.56311   0.01151   0.00000  Uiso   1.00
C216   C     0.36682   0.44473   0.06189   0.00000  Uiso   1.00
C217   C     0.49472   0.60554   0.04656   0.00000  Uiso   1.00
C218   C     0.44134   0.49025   0.43954   0.00000  Uiso   1.00
C219   C     0.53121   0.49853   0.00753   0.00000  Uiso   1.00
C220   C     0.55330   0.46012   0.47493   0.00000  Uiso   1.00
C221   C     0.51773   0.43444   0.42763   0.00000  Uiso   1.00
C222   C     0.46102   0.44669   0.41288   0.00000  Uiso   1.00
C223   C     0.56037   0.51106   0.06249   0.00000  Uiso   1.00
C224   C     0.64083   0.46178   0.04616   0.00000  Uiso   1.00
H225   H     0.60217   0.66312   0.24792   0.00000  Uiso   1.00
H226   H     0.57173   0.64873   0.06118   0.00000  Uiso   1.00
H227   H     0.48969   0.45870   0.20719   0.00000  Uiso   1.00
H228   H     0.53263   0.40282   0.40407   0.00000  Uiso   1.00
H229   H     0.62711   0.41806   0.46549   0.00000  Uiso   1.00
H230   H     0.53917   0.53192   0.09174   0.00000  Uiso   1.00
H231   H     0.65566   0.55981   0.42991   0.00000  Uiso   1.00
H232   H     0.38064   0.60601   0.01359   0.00000  Uiso   1.00
H233   H     0.43297   0.42298   0.37879   0.00000  Uiso   1.00
H234   H     0.41996   0.38731   0.05752   0.00000  Uiso   1.00
N235   N     0.47827   0.48556   0.23543   0.00000  Uiso   1.00
N236   N     0.52173   0.51444   0.26458   0.00000  Uiso   1.00
O237   O     0.63102   0.57963   0.25358   0.00000  Uiso   1.00
O238   O     0.37756   0.39386   0.04624   0.00000  Uiso   1.00
O239   O     0.47785   0.62972   0.08459   0.00000  Uiso   1.00
O240   O     0.54976   0.61896   0.03483   0.00000  Uiso   1.00
O241   O     0.39075   0.57038   0.24424   0.00000  Uiso   1.00
O242   O     0.64823   0.50691   0.33380   0.00000  Uiso   1.00
O243   O     0.40796   0.49766   0.32446   0.00000  Uiso   1.00
O244   O     0.60925   0.42962   0.25577   0.00000  Uiso   1.00
O245   O     0.36898   0.42037   0.24643   0.00000  Uiso   1.00
O246   O     0.59204   0.50234   0.17554   0.00000  Uiso   1.00
O247   O     0.35177   0.49309   0.16620   0.00000  Uiso   1.00
O248   O     0.40693   0.47571   0.08538   0.00000  Uiso   1.00
Zn249  Zn    0.60453   0.50618   0.25624   0.00000  Uiso   1.00
Zn250  Zn    0.39547   0.49382   0.24377   0.00000  Uiso   1.00
Br251  Br    0.84308   0.56481   0.31935   0.00000  Uiso   1.00
Br252  Br    0.77484   0.34532   0.27866   0.00000  Uiso   1.00
C253   C     0.68228   0.59827   0.25091   0.00000  Uiso   1.00
C254   C     0.72160   0.50892   0.41633   0.00000  Uiso   1.00
C255   C     0.69322   0.65285   0.25862   0.00000  Uiso   1.00
C256   C     0.70195   0.50217   0.35535   0.00000  Uiso   1.00
C257   C     0.97986   0.34749   0.25497   0.00000  Uiso   1.00
C258   C     0.98612   0.40199   0.25360   0.00000  Uiso   1.00
C259   C     0.96470   0.49645   0.14446   0.00000  Uiso   1.00
C260   C     0.94244   0.44472   0.49267   0.00000  Uiso   1.00
C261   C     0.94654   0.49164   0.08306   0.00000  Uiso   1.00
C262   C     0.69749   0.54632   0.44687   0.00000  Uiso   1.00
C263   C     0.73123   0.57309   0.49448   0.00000  Uiso   1.00
C264   C     0.81014   0.51774   0.48721   0.00000  Uiso   1.00
C265   C     0.78944   0.56311   0.01151   0.00000  Uiso   1.00
C266   C     0.70015   0.44473   0.06189   0.00000  Uiso   1.00
C267   C     0.82806   0.60554   0.04656   0.00000  Uiso   1.00
C268   C     0.77467   0.49025   0.43954   0.00000  Uiso   1.00
C269   C     0.86454   0.49853   0.00753   0.00000  Uiso   1.00
C270   C     0.88664   0.46012   0.47493   0.00000  Uiso   1.00
C271   C     0.85107   0.43444   0.42763   0.00000  Uiso   1.00
C272   C     0.79435   0.44669   0.41288   0.00000  Uiso   1.00
C273   C     0.89370   0.51106   0.06249   0.00000  Uiso   1.00
C274   C     0.97417   0.46178   0.04616   0.00000  Uiso   1.00
H275   H     0.93551   0.66312   0.24792   0.00000  Uiso   1.00
H276   H     0.90506   0.64873   0.06118   0.00000  Uiso   1.00
H277   H     0.82302   0.45870   0.20719   0.00000  Uiso   1.00
H278   H     0.86596   0.40282   0.40407   0.00000  Uiso   1.00
H279   H     0.96044   0.41806   0.46549   0.00000  Uiso   1.00
H280   H     0.87251   0.53192   0.09174   0.00000  Uiso   1.00
H281   H     0.98900   0.55981   0.42991   0.00000  Uiso   1.00
H282   H     0.71398   0.60601   0.01359   0.00000  Uiso   1.00
H283   H     0.76630   0.42298   0.37879   0.00000  Uiso   1.00
H284   H     0.75329   0.38731   0.05752   0.00000  Uiso   1.00
N285   N     0.81160   0.48556   0.23543   0.00000  Uiso   1.00
N286   N     0.85507   0.51444   0.26458   0.00000  Uiso   1.00
O287   O     0.96435   0.57963   0.25358   0.00000  Uiso   1.00
O288   O     0.71089   0.39386   0.04624   0.00000  Uiso   1.00
O289   O     0.81118   0.62972   0.08459   0.00000  Uiso   1.00
O290   O     0.88309   0.61896   0.03483   0.00000  Uiso   1.00
O291   O     0.72408   0.57038   0.24424   0.00000  Uiso   1.00
O292   O     0.98157   0.50691   0.33380   0.00000  Uiso   1.00
O293   O     0.74130   0.49766   0.32446   0.00000  Uiso   1.00
O294   O     0.94258   0.42962   0.25577   0.00000  Uiso   1.00
O295   O     0.70231   0.42037   0.24643   0.00000  Uiso   1.00
O296   O     0.92537   0.50234   0.17554   0.00000  Uiso   1.00
O297   O     0.68510   0.49309   0.16620   0.00000  Uiso   1.00
O298   O     0.74027   0.47571   0.08538   0.00000  Uiso   1.00
Zn299  Zn    0.93786   0.50618   0.25624   0.00000  Uiso   1.00
Zn300  Zn    0.72881   0.49382   0.24377   0.00000  Uiso   1.00
Br301  Br    0.17641   0.89815   0.31935   0.00000  Uiso   1.00
Br302  Br    0.10818   0.67866   0.27866   0.00000  Uiso   1.00
C303   C     0.01562   0.93160   0.25091   0.00000  Uiso   1.00
C304   C     0.05493   0.84225   0.41633   0.00000  Uiso   1.00
C305   C     0.02656   0.98619   0.25862   0.00000  Uiso   1.00
C306   C     0.03528   0.83550   0.35535   0.00000  Uiso   1.00
C307   C     0.31320   0.68082   0.25497   0.00000  Uiso   1.00
C308   C     0.31945   0.73533   0.25360   0.00000  Uiso   1.00
C309   C     0.29804   0.82979   0.14446   0.00000  Uiso   1.00
C310   C     0.27577   0.77805   0.49267   0.00000  Uiso   1.00
C311   C     0.27988   0.82497   0.08306   0.00000  Uiso   1.00
C312   C     0.03082   0.87965   0.44687   0.00000  Uiso   1.00
C313   C     0.06457   0.90642   0.49448   0.00000  Uiso   1.00
C314   C     0.14348   0.85108   0.48721   0.00000  Uiso   1.00
C315   C     0.12277   0.89644   0.01151   0.00000  Uiso   1.00
C316   C     0.03348   0.77806   0.06189   0.00000  Uiso   1.00
C317   C     0.16139   0.93887   0.04656   0.00000  Uiso   1.00
C318   C     0.10800   0.82358   0.43954   0.00000  Uiso   1.00
C319   C     0.19787   0.83186   0.00753   0.00000  Uiso   1.00
C320   C     0.21997   0.79345   0.47493   0.00000  Uiso   1.00
C321   C     0.18440   0.76778   0.42763   0.00000  Uiso   1.00
C322   C     0.12769   0.78002   0.41288   0.00000  Uiso   1.00
C323   C     0.22704   0.84440   0.06249   0.00000  Uiso   1.00
C324   C     0.30750   0.79511   0.04616   0.00000  Uiso   1.00
H325   H     0.26884   0.99645   0.24792   0.00000  Uiso   1.00
H326   H     0.23839   0.98206   0.06118   0.00000  Uiso   1.00
H327   H     0.15636   0.79203   0.20719   0.00000  Uiso   1.00
H328   H     0.19930   0.73615   0.40407   0.00000  Uiso   1.00
H329   H     0.29378   0.75140   0.46549   0.00000  Uiso   1.00
H330   H     0.20584   0.86526   0.09174   0.00000  Uiso   1.00
H331   H     0.32233   0.89314   0.42991   0.00000  Uiso   1.00
H332   H     0.04731   0.93934   0.01359   0.00000  Uiso   1.00
H333   H     0.09963   0.75631   0.37879   0.00000  Uiso   1.00
H334   H     0.08662   0.72064   0.05752   0.00000  Uiso   1.00
N335   N     0.14493   0.81890   0.23543   0.00000  Uiso   1.00
N336   N     0.18840   0.84777   0.26458   0.00000  Uiso   1.00
O337   O     0.29769   0.91296   0.25358   0.00000  Uiso   1.00
O338   O     0.04423   0.72719   0.04624   0.00000  Uiso   1.00
O339   O     0.14452   0.96305   0.08459   0.00000  Uiso   1.00
O340   O     0.21642   0.95229   0.03483   0.00000  Uiso   1.00
O341   O     0.05742   0.90371   0.24424   0.00000  Uiso   1.00
O342   O     0.31490   0.84024   0.33380   0.00000  Uiso   1.00
O343   O     0.07463   0.83099   0.32446   0.00000  Uiso   1.00
O344   O     0.27592   0.76296   0.25577   0.00000  Uiso   1.00
O345   O     0.03565   0.75371   0.24643   0.00000  Uiso   1.00
O346   O     0.25870   0.83567   0.17554   0.00000  Uiso   1.00
O347   O     0.01843   0.82642   0.16620   0.00000  Uiso   1.00
O348   O     0.07360   0.80905   0.08538   0.00000  Uiso   1.00
Zn349  Zn    0.27119   0.83951   0.25624   0.00000  Uiso   1.00
Zn350  Zn    0.06214   0.82716   0.24377   0.00000  Uiso   1.00
Br351  Br    0.50974   0.89815   0.31935   0.00000  Uiso   1.00
Br352  Br    0.44151   0.67866   0.27866   0.00000  Uiso   1.00
C353   C     0.34895   0.93160   0.25091   0.00000  Uiso   1.00
C354   C     0.38826   0.84225   0.41633   0.00000  Uiso   1.00
C355   C     0.35989   0.98619   0.25862   0.00000  Uiso   1.00
C356   C     0.36861   0.83550   0.35535   0.00000  Uiso   1.00
C357   C     0.64653   0.68082   0.25497   0.00000  Uiso   1.00
C358   C     0.65279   0.73533   0.25360   0.00000  Uiso   1.00
C359   C     0.63137   0.82979   0.14446   0.00000  Uiso   1.00
C360   C     0.60910   0.77805   0.49267   0.00000  Uiso   1.00
C361   C     0.61321   0.82497   0.08306   0.00000  Uiso   1.00
C362   C     0.36415   0.87965   0.44687   0.00000  Uiso   1.00
C363   C     0.39790   0.90642   0.49448   0.00000  Uiso   1.00
C364   C     0.47681   0.85108   0.48721   0.00000  Uiso   1.00
C365   C     0.45610   0.89644   0.01151   0.00000  Uiso   1.00
C366   C     0.36682   0.77806   0.06189   0.00000  Uiso   1.00
C367   C     0.49472   0.93887   0.04656   0.00000  Uiso   1.00
C368   C     0.44134   0.82358   0.43954   0.00000  Uiso   1.00
C369   C     0.53121   0.83186   0.00753   0.00000  Uiso   1.00
C370   C     0.55330   0.79345   0.47493   0.00000  Uiso   1.00
C371   C     0.51773   0.76778   0.42763   0.00000  Uiso   1.00
C372   C     0.46102   0.78002   0.41288   0.00000  Uiso   1.00
C373   C     0.56037   0.84440   0.06249   0.00000  Uiso   1.00
C374   C     0.64083   0.79511   0.04616   0.00000  Uiso   1.00
H375   H     0.60217   0.99645   0.24792   0.00000  Uiso   1.00
H376   H     0.57173   0.98206   0.06118   0.00000  Uiso   1.00
H377   H     0.48969   0.79203   0.20719   0.00000  Uiso   1.00
H378   H     0.53263   0.73615   0.40407   0.00000  Uiso   1.00
H379   H     0.62711   0.75140   0.46549   0.00000  Uiso   1.00
H380   H     0.53917   0.86526   0.09174   0.00000  Uiso   1.00
H381   H     0.65566   0.89314   0.42991   0.00000  Uiso   1.00
H382   H     0.38064   0.93934   0.01359   0.00000  Uiso   1.00
H383   H     0.43297   0.75631   0.37879   0.00000  Uiso   1.00
H384   H     0.41996   0.72064   0.05752   0.00000  Uiso   1.00
N385   N     0.47827   0.81890   0.23543   0.00000  Uiso   1.00
N386   N     0.52173   0.84777   0.26458   0.00000  Uiso   1.00
O387   O     0.63102   0.91296   0.25358   0.00000  Uiso   1.00
O388   O     0.37756   0.72719   0.04624   0.00000  Uiso   1.00
O389   O     0.47785   0.96305   0.08459   0.00000  Uiso   1.00
O390   O     0.54976   0.95229   0.03483   0.00000  Uiso   1.00
O391   O     0.39075   0.90371   0.24424   0.00000  Uiso   1.00
O392   O     0.64823   0.84024   0.33380   0.00000  Uiso   1.00
O393   O     0.40796   0.83099   0.32446   0.00000  Uiso   1.00
O394   O     0.60925   0.76296   0.25577   0.00000  Uiso   1.00
O395   O     0.36898   0.75371   0.24643   0.00000  Uiso   1.00
O396   O     0.59204   0.83567   0.17554   0.00000  Uiso   1.00
O397   O     0.35177   0.82642   0.16620   0.00000  Uiso   1.00
O398   O     0.40693   0.80905   0.08538   0.00000  Uiso   1.00
Zn399  Zn    0.60453   0.83951   0.25624   0.00000  Uiso   1.00
Zn400  Zn    0.39547   0.82716   0.24377   0.00000  Uiso   1.00
Br401  Br    0.84308   0.89815   0.31935   0.00000  Uiso   1.00
Br402  Br    0.77484   0.67866   0.27866   0.00000  Uiso   1.00
C403   C     0.68228   0.93160   0.25091   0.00000  Uiso   1.00
C404   C     0.72160   0.84225   0.41633   0.00000  Uiso   1.00
C405   C     0.69322   0.98619   0.25862   0.00000  Uiso   1.00
C406   C     0.70195   0.83550   0.35535   0.00000  Uiso   1.00
C407   C     0.97986   0.68082   0.25497   0.00000  Uiso   1.00
C408   C     0.98612   0.73533   0.25360   0.00000  Uiso   1.00
C409   C     0.96470   0.82979   0.14446   0.00000  Uiso   1.00
C410   C     0.94244   0.77805   0.49267   0.00000  Uiso   1.00
C411   C     0.94654   0.82497   0.08306   0.00000  Uiso   1.00
C412   C     0.69749   0.87965   0.44687   0.00000  Uiso   1.00
C413   C     0.73123   0.90642   0.49448   0.00000  Uiso   1.00
C414   C     0.81014   0.85108   0.48721   0.00000  Uiso   1.00
C415   C     0.78944   0.89644   0.01151   0.00000  Uiso   1.00
C416   C     0.70015   0.77806   0.06189   0.00000  Uiso   1.00
C417   C     0.82806   0.93887   0.04656   0.00000  Uiso   1.00
C418   C     0.77467   0.82358   0.43954   0.00000  Uiso   1.00
C419   C     0.86454   0.83186   0.00753   0.00000  Uiso   1.00
C420   C     0.88664   0.79345   0.47493   0.00000  Uiso   1.00
C421   C     0.85107   0.76778   0.42763   0.00000  Uiso   1.00
C422   C     0.79435   0.78002   0.41288   0.00000  Uiso   1.00
C423   C     0.89370   0.84440   0.06249   0.00000  Uiso   1.00
C424   C     0.97417   0.79511   0.04616   0.00000  Uiso   1.00
H425   H     0.93551   0.99645   0.24792   0.00000  Uiso   1.00
H426   H     0.90506   0.98206   0.06118   0.00000  Uiso   1.00
H427   H     0.82302   0.79203   0.20719   0.00000  Uiso   1.00
H428   H     0.86596   0.73615   0.40407   0.00000  Uiso   1.00
H429   H     0.96044   0.75140   0.46549   0.00000  Uiso   1.00
H430   H     0.87251   0.86526   0.09174   0.00000  Uiso   1.00
H431   H     0.98900   0.89314   0.42991   0.00000  Uiso   1.00
H432   H     0.71398   0.93934   0.01359   0.00000  Uiso   1.00
H433   H     0.76630   0.75631   0.37879   0.00000  Uiso   1.00
H434   H     0.75329   0.72064   0.05752   0.00000  Uiso   1.00
N435   N     0.81160   0.81890   0.23543   0.00000  Uiso   1.00
N436   N     0.85507   0.84777   0.26458   0.00000  Uiso   1.00
O437   O     0.96435   0.91296   0.25358   0.00000  Uiso   1.00
O438   O     0.71089   0.72719   0.04624   0.00000  Uiso   1.00
O439   O     0.81118   0.96305   0.08459   0.00000  Uiso   1.00
O440   O     0.88309   0.95229   0.03483   0.00000  Uiso   1.00
O441   O     0.72408   0.90371   0.24424   0.00000  Uiso   1.00
O442   O     0.98157   0.84024   0.33380   0.00000  Uiso   1.00
O443   O     0.74130   0.83099   0.32446   0.00000  Uiso   1.00
O444   O     0.94258   0.76296   0.25577   0.00000  Uiso   1.00
O445   O     0.70231   0.75371   0.24643   0.00000  Uiso   1.00
O446   O     0.92537   0.83567   0.17554   0.00000  Uiso   1.00
O447   O     0.68510   0.82642   0.16620   0.00000  Uiso   1.00
O448   O     0.74027   0.80905   0.08538   0.00000  Uiso   1.00
Zn449  Zn    0.93786   0.83951   0.25624   0.00000  Uiso   1.00
Zn450  Zn    0.72881   0.82716   0.24377   0.00000  Uiso   1.00
Br451  Br    0.17641   0.23148   0.81935   0.00000  Uiso   1.00
Br452  Br    0.10818   0.01199   0.77866   0.00000  Uiso   1.00
C453   C     0.01562   0.26494   0.75091   0.00000  Uiso   1.00
C454   C     0.05493   0.17558   0.91633   0.00000  Uiso   1.00
C455   C     0.02656   0.31952   0.75862   0.00000  Uiso   1.00
C456   C     0.03528   0.16883   0.85535   0.00000  Uiso   1.00
C457   C     0.31320   0.01416   0.75497   0.00000  Uiso   1.00
C458   C     0.31945   0.06866   0.75360   0.00000  Uiso   1.00
C459   C     0.29804   0.16312   0.64446   0.00000  Uiso   1.00
C460   C     0.27577   0.11139   0.99267   0.00000  Uiso   1.00
C461   C     0.27988   0.15831   0.58306   0.00000  Uiso   1.00
C462   C     0.03082   0.21298   0.94687   0.00000  Uiso   1.00
C463   C     0.06457   0.23975   0.99448   0.00000  Uiso   1.00
C464   C     0.14348   0.18441   0.98721   0.00000  Uiso   1.00
C465   C     0.12277   0.22978   0.51151   0.00000  Uiso   1.00
C466   C     0.03348   0.11139   0.56189   0.00000  Uiso   1.00
C467   C     0.16139   0.27220   0.54656   0.00000  Uiso   1.00
C468   C     0.10800   0.15691   0.93954   0.00000  Uiso   1.00
C469   C     0.19787   0.16519   0.50753   0.00000  Uiso   1.00
C470   C     0.21997   0.12678   0.97493   0.00000  Uiso   1.00
C471   C     0.18440   0.10111   0.92763   0.00000  Uiso   1.00
C472   C     0.12769   0.11335   0.91288   0.00000  Uiso   1.00
C473   C     0.22704   0.17773   0.56249   0.00000  Uiso   1.00
C474   C     0.30750   0.12845   0.54616   0.00000  Uiso   1.00
H475   H     0.26884   0.32979   0.74792   0.00000  Uiso   1.00
H476   H     0.23839   0.31540   0.56118   0.00000  Uiso   1.00
H477   H     0.15636   0.12536   0.70719   0.00000  Uiso   1.00
H478   H     0.19930   0.06949   0.90407   0.00000  Uiso   1.00
H479   H     0.29378   0.08473   0.96549   0.00000  Uiso   1.00
H480   H     0.20584   0.19859   0.59174   0.00000  Uiso   1.00
H481   H     0.32233   0.22647   0.92991   0.00000  Uiso   1.00
H482   H     0.04731   0.27268   0.51359   0.00000  Uiso   1.00
H483   H     0.09963   0.08964   0.87879   0.00000  Uiso   1.00
H484   H     0.08662   0.05398   0.55752   0.00000  Uiso   1.00
N485   N     0.14493   0.15223   0.73543   0.00000  Uiso   1.00
N486   N     0.18840   0.18110   0.76458   0.00000  Uiso   1.00
O487   O     0.29769   0.24629   0.75358   0.00000  Uiso   1.00
O488   O     0.04423   0.06052   0.54624   0.00000  Uiso   1.00
O489   O     0.14452   0.29639   0.58459   0.00000  Uiso   1.00
O490   O     0.21642   0.28562   0.53483   0.00000  Uiso   1.00
O491   O     0.05742   0.23704   0.74424   0.00000  Uiso   1.00
O492   O     0.31490   0.17358   0.83380   0.00000  Uiso   1.00
O493   O     0.07463   0.16433   0.82446   0.00000  Uiso   1.00
O494   O     0.27592   0.09629   0.75577   0.00000  Uiso   1.00
O495   O     0.03565   0.08704   0.74643   0.00000  Uiso   1.00
O496   O     0.25870   0.16901   0.67554   0.00000  Uiso   1.00
O497   O     0.01843   0.15976   0.66620   0.00000  Uiso   1.00
O498   O     0.07360   0.14238   0.58538   0.00000  Uiso   1.00
Zn499  Zn    0.27119   0.17284   0.75624   0.00000  Uiso   1.00
Zn500  Zn    0.06214   0.16049   0.74377   0.00000  Uiso   1.00
Br501  Br    0.50974   0.23148   0.81935   0.00000  Uiso   1.00
Br502  Br    0.44151   0.01199   0.77866   0.00000  Uiso   1.00
C503   C     0.34895   0.26494   0.75091   0.00000  Uiso   1.00
C504   C     0.38826   0.17558   0.91633   0.00000  Uiso   1.00
C505   C     0.35989   0.31952   0.75862   0.00000  Uiso   1.00
C506   C     0.36861   0.16883   0.85535   0.00000  Uiso   1.00
C507   C     0.64653   0.01416   0.75497   0.00000  Uiso   1.00
C508   C     0.65279   0.06866   0.75360   0.00000  Uiso   1.00
C509   C     0.63137   0.16312   0.64446   0.00000  Uiso   1.00
C510   C     0.60910   0.11139   0.99267   0.00000  Uiso   1.00
C511   C     0.61321   0.15831   0.58306   0.00000  Uiso   1.00
C512   C     0.36415   0.21298   0.94687   0.00000  Uiso   1.00
C513   C     0.39790   0.23975   0.99448   0.00000  Uiso   1.00
C514   C     0.47681   0.18441   0.98721   0.00000  Uiso   1.00
C515   C     0.45610   0.22978   0.51151   0.00000  Uiso   1.00
C516   C     0.36682   0.11139   0.56189   0.00000  Uiso   1.00
C517   C     0.49472   0.27220   0.54656   0.00000  Uiso   1.00
C518   C     0.44134   0.15691   0.93954   0.00000  Uiso   1.00
C519   C     0.53121   0.16519   0.50753   0.00000  Uiso   1.00
C520   C     0.55330   0.12678   0.97493   0.00000  Uiso   1.00
C521   C     0.51773   0.10111   0.92763   0.00000  Uiso   1.00
C522   C     0.46102   0.11335   0.91288   0.00000  Uiso   1.00
C523   C     0.56037   0.17773   0.56249   0.00000  Uiso   1.00
C524   C     0.64083   0.12845   0.54616   0.00000  Uiso   1.00
H525   H     0.60217   0.32979   0.74792   0.00000  Uiso   1.00
H526   H     0.57173   0.31540   0.56118   0.00000  Uiso   1.00
H527   H     0.48969   0.12536   0.70719   0.00000  Uiso   1.00
H528   H     0.53263   0.06949   0.90407   0.00000  Uiso   1.00
H529   H     0.62711   0.08473   0.96549   0.00000  Uiso   1.00
H530   H     0.53917   0.19859   0.59174   0.00000  Uiso   1.00
H531   H     0.65566   0.22647   0.92991   0.00000  Uiso   1.00
H532   H     0.38064   0.27268   0.51359   0.00000  Uiso   1.00
H533   H     0.43297   0.08964   0.87879   0.00000  Uiso   1.00
H534   H     0.41996   0.05398   0.55752   0.00000  Uiso   1.00
N535   N     0.47827   0.15223   0.73543   0.00000  Uiso   1.00
N536   N     0.52173   0.18110   0.76458   0.00000  Uiso   1.00
O537   O     0.63102   0.24629   0.75358   0.00000  Uiso   1.00
O538   O     0.37756   0.06052   0.54624   0.00000  Uiso   1.00
O539   O     0.47785   0.29639   0.58459   0.00000  Uiso   1.00
O540   O     0.54976   0.28562   0.53483   0.00000  Uiso   1.00
O541   O     0.39075   0.23704   0.74424   0.00000  Uiso   1.00
O542   O     0.64823   0.17358   0.83380   0.00000  Uiso   1.00
O543   O     0.40796   0.16433   0.82446   0.00000  Uiso   1.00
O544   O     0.60925   0.09629   0.75577   0.00000  Uiso   1.00
O545   O     0.36898   0.08704   0.74643   0.00000  Uiso   1.00
O546   O     0.59204   0.16901   0.67554   0.00000  Uiso   1.00
O547   O     0.35177   0.15976   0.66620   0.00000  Uiso   1.00
O548   O     0.40693   0.14238   0.58538   0.00000  Uiso   1.00
Zn549  Zn    0.60453   0.17284   0.75624   0.00000  Uiso   1.00
Zn550  Zn    0.39547   0.16049   0.74377   0.00000  Uiso   1.00
Br551  Br    0.84308   0.23148   0.81935   0.00000  Uiso   1.00
Br552  Br    0.77484   0.01199   0.77866   0.00000  Uiso   1.00
C553   C     0.68228   0.26494   0.75091   0.00000  Uiso   1.00
C554   C     0.72160   0.17558   0.91633   0.00000  Uiso   1.00
C555   C     0.69322   0.31952   0.75862   0.00000  Uiso   1.00
C556   C     0.70195   0.16883   0.85535   0.00000  Uiso   1.00
C557   C     0.97986   0.01416   0.75497   0.00000  Uiso   1.00
C558   C     0.98612   0.06866   0.75360   0.00000  Uiso   1.00
C559   C     0.96470   0.16312   0.64446   0.00000  Uiso   1.00
C560   C     0.94244   0.11139   0.99267   0.00000  Uiso   1.00
C561   C     0.94654   0.15831   0.58306   0.00000  Uiso   1.00
C562   C     0.69749   0.21298   0.94687   0.00000  Uiso   1.00
C563   C     0.73123   0.23975   0.99448   0.00000  Uiso   1.00
C564   C     0.81014   0.18441   0.98721   0.00000  Uiso   1.00
C565   C     0.78944   0.22978   0.51151   0.00000  Uiso   1.00
C566   C     0.70015   0.11139   0.56189   0.00000  Uiso   1.00
C567   C     0.82806   0.27220   0.54656   0.00000  Uiso   1.00
C568   C     0.77467   0.15691   0.93954   0.00000  Uiso   1.00
C569   C     0.86454   0.16519   0.50753   0.00000  Uiso   1.00
C570   C     0.88664   0.12678   0.97493   0.00000  Uiso   1.00
C571   C     0.85107   0.10111   0.92763   0.00000  Uiso   1.00
C572   C     0.79435   0.11335   0.91288   0.00000  Uiso   1.00
C573   C     0.89370   0.17773   0.56249   0.00000  Uiso   1.00
C574   C     0.97417   0.12845   0.54616   0.00000  Uiso   1.00
H575   H     0.93551   0.32979   0.74792   0.00000  Uiso   1.00
H576   H     0.90506   0.31540   0.56118   0.00000  Uiso   1.00
H577   H     0.82302   0.12536   0.70719   0.00000  Uiso   1.00
H578   H     0.86596   0.06949   0.90407   0.00000  Uiso   1.00
H579   H     0.96044   0.08473   0.96549   0.00000  Uiso   1.00
H580   H     0.87251   0.19859   0.59174   0.00000  Uiso   1.00
H581   H     0.98900   0.22647   0.92991   0.00000  Uiso   1.00
H582   H     0.71398   0.27268   0.51359   0.00000  Uiso   1.00
H583   H     0.76630   0.08964   0.87879   0.00000  Uiso   1.00
H584   H     0.75329   0.05398   0.55752   0.00000  Uiso   1.00
N585   N     0.81160   0.15223   0.73543   0.00000  Uiso   1.00
N586   N     0.85507   0.18110   0.76458   0.00000  Uiso   1.00
O587   O     0.96435   0.24629   0.75358   0.00000  Uiso   1.00
O588   O     0.71089   0.06052   0.54624   0.00000  Uiso   1.00
O589   O     0.81118   0.29639   0.58459   0.00000  Uiso   1.00
O590   O     0.88309   0.28562   0.53483   0.00000  Uiso   1.00
O591   O     0.72408   0.23704   0.74424   0.00000  Uiso   1.00
O592   O     0.98157   0.17358   0.83380   0.00000  Uiso   1.00
O593   O     0.74130   0.16433   0.82446   0.00000  Uiso   1.00
O594   O     0.94258   0.09629   0.75577   0.00000  Uiso   1.00
O595   O     0.70231   0.08704   0.74643   0.00000  Uiso   1.00
O596   O     0.92537   0.16901   0.67554   0.00000  Uiso   1.00
O597   O     0.68510   0.15976   0.66620   0.00000  Uiso   1.00
O598   O     0.74027   0.14238   0.58538   0.00000  Uiso   1.00
Zn599  Zn    0.93786   0.17284   0.75624   0.00000  Uiso   1.00
Zn600  Zn    0.72881   0.16049   0.74377   0.00000  Uiso   1.00
Br601  Br    0.17641   0.56481   0.81935   0.00000  Uiso   1.00
Br602  Br    0.10818   0.34532   0.77866   0.00000  Uiso   1.00
C603   C     0.01562   0.59827   0.75091   0.00000  Uiso   1.00
C604   C     0.05493   0.50892   0.91633   0.00000  Uiso   1.00
C605   C     0.02656   0.65285   0.75862   0.00000  Uiso   1.00
C606   C     0.03528   0.50217   0.85535   0.00000  Uiso   1.00
C607   C     0.31320   0.34749   0.75497   0.00000  Uiso   1.00
C608   C     0.31945   0.40199   0.75360   0.00000  Uiso   1.00
C609   C     0.29804   0.49645   0.64446   0.00000  Uiso   1.00
C610   C     0.27577   0.44472   0.99267   0.00000  Uiso   1.00
C611   C     0.27988   0.49164   0.58306   0.00000  Uiso   1.00
C612   C     0.03082   0.54632   0.94687   0.00000  Uiso   1.00
C613   C     0.06457   0.57309   0.99448   0.00000  Uiso   1.00
C614   C     0.14348   0.51774   0.98721   0.00000  Uiso   1.00
C615   C     0.12277   0.56311   0.51151   0.00000  Uiso   1.00
C616   C     0.03348   0.44473   0.56189   0.00000  Uiso   1.00
C617   C     0.16139   0.60554   0.54656   0.00000  Uiso   1.00
C618   C     0.10800   0.49025   0.93954   0.00000  Uiso   1.00
C619   C     0.19787   0.49853   0.50753   0.00000  Uiso   1.00
C620   C     0.21997   0.46012   0.97493   0.00000  Uiso   1.00
C621   C     0.18440   0.43444   0.92763   0.00000  Uiso   1.00
C622   C     0.12769   0.44669   0.91288   0.00000  Uiso   1.00
C623   C     0.22704   0.51106   0.56249   0.00000  Uiso   1.00
C624   C     0.30750   0.46178   0.54616   0.00000  Uiso   1.00
H625   H     0.26884   0.66312   0.74792   0.00000  Uiso   1.00
H626   H     0.23839   0.64873   0.56118   0.00000  Uiso   1.00
H627   H     0.15636   0.45870   0.70719   0.00000  Uiso   1.00
H628   H     0.19930   0.40282   0.90407   0.00000  Uiso   1.00
H629   H     0.29378   0.41806   0.96549   0.00000  Uiso   1.00
H630   H     0.20584   0.53192   0.59174   0.00000  Uiso   1.00
H631   H     0.32233   0.55981   0.92991   0.00000  Uiso   1.00
H632   H     0.04731   0.60601   0.51359   0.00000  Uiso   1.00
H633   H     0.09963   0.42298   0.87879   0.00000  Uiso   1.00
H634   H     0.08662   0.38731   0.55752   0.00000  Uiso   1.00
N635   N     0.14493   0.48556   0.73543   0.00000  Uiso   1.00
N636   N     0.18840   0.51444   0.76458   0.00000  Uiso   1.00
O637   O     0.29769   0.57963   0.75358   0.00000  Uiso   1.00
O638   O     0.04423   0.39386   0.54624   0.00000  Uiso   1.00
O639   O     0.14452   0.62972   0.58459   0.00000  Uiso   1.00
O640   O     0.21642   0.61896   0.53483   0.00000  Uiso   1.00
O641   O     0.05742   0.57038   0.74424   0.00000  Uiso   1.00
O642   O     0.31490   0.50691   0.83380   0.00000  Uiso   1.00
O643   O     0.07463   0.49766   0.82446   0.00000  Uiso   1.00
O644   O     0.27592   0.42962   0.75577   0.00000  Uiso   1.00
O645   O     0.03565   0.42037   0.74643   0.00000  Uiso   1.00
O646   O     0.25870   0.50234   0.67554   0.00000  Uiso   1.00
O647   O     0.01843   0.49309   0.66620   0.00000  Uiso   1.00
O648   O     0.07360   0.47571   0.58538   0.00000  Uiso   1.00
Zn649  Zn    0.27119   0.50618   0.75624   0.00000  Uiso   1.00
Zn650  Zn    0.06214   0.49382   0.74377   0.00000  Uiso   1.00
Br651  Br    0.50974   0.56481   0.81935   0.00000  Uiso   1.00
Br652  Br    0.44151   0.34532   0.77866   0.00000  Uiso   1.00
C653   C     0.34895   0.59827   0.75091   0.00000  Uiso   1.00
C654   C     0.38826   0.50892   0.91633   0.00000  Uiso   1.00
C655   C     0.35989   0.65285   0.75862   0.00000  Uiso   1.00
C656   C     0.36861   0.50217   0.85535   0.00000  Uiso   1.00
C657   C     0.64653   0.34749   0.75497   0.00000  Uiso   1.00
C658   C     0.65279   0.40199   0.75360   0.00000  Uiso   1.00
C659   C     0.63137   0.49645   0.64446   0.00000  Uiso   1.00
C660   C     0.60910   0.44472   0.99267   0.00000  Uiso   1.00
C661   C     0.61321   0.49164   0.58306   0.00000  Uiso   1.00
C662   C     0.36415   0.54632   0.94687   0.00000  Uiso   1.00
C663   C     0.39790   0.57309   0.99448   0.00000  Uiso   1.00
C664   C     0.47681   0.51774   0.98721   0.00000  Uiso   1.00
C665   C     0.45610   0.56311   0.51151   0.00000  Uiso   1.00
C666   C     0.36682   0.44473   0.56189   0.00000  Uiso   1.00
C667   C     0.49472   0.60554   0.54656   0.00000  Uiso   1.00
C668   C     0.44134   0.49025   0.93954   0.00000  Uiso   1.00
C669   C     0.53121   0.49853   0.50753   0.00000  Uiso   1.00
C670   C     0.55330   0.46012   0.97493   0.00000  Uiso   1.00
C671   C     0.51773   0.43444   0.92763   0.00000  Uiso   1.00
C672   C     0.46102   0.44669   0.91288   0.00000  Uiso   1.00
C673   C     0.56037   0.51106   0.56249   0.00000  Uiso   1.00
C674   C     0.64083   0.46178   0.54616   0.00000  Uiso   1.00
H675   H     0.60217   0.66312   0.74792   0.00000  Uiso   1.00
H676   H     0.57173   0.64873   0.56118   0.00000  Uiso   1.00
H677   H     0.48969   0.45870   0.70719   0.00000  Uiso   1.00
H678   H     0.53263   0.40282   0.90407   0.00000  Uiso   1.00
H679   H     0.62711   0.41806   0.96549   0.00000  Uiso   1.00
H680   H     0.53917   0.53192   0.59174   0.00000  Uiso   1.00
H681   H     0.65566   0.55981   0.92991   0.00000  Uiso   1.00
H682   H     0.38064   0.60601   0.51359   0.00000  Uiso   1.00
H683   H     0.43297   0.42298   0.87879   0.00000  Uiso   1.00
H684   H     0.41996   0.38731   0.55752   0.00000  Uiso   1.00
N685   N     0.47827   0.48556   0.73543   0.00000  Uiso   1.00
N686   N     0.52173   0.51444   0.76458   0.00000  Uiso   1.00
O687   O     0.63102   0.57963   0.75358   0.00000  Uiso   1.00
O688   O     0.37756   0.39386   0.54624   0.00000  Uiso   1.00
O689   O     0.47785   0.62972   0.58459   0.00000  Uiso   1.00
O690   O     0.54976   0.61896   0.53483   0.00000  Uiso   1.00
O691   O     0.39075   0.57038   0.74424   0.00000  Uiso   1.00
O692   O     0.64823   0.50691   0.83380   0.00000  Uiso   1.00
O693   O     0.40796   0.49766   0.82446   0.00000  Uiso   1.00
O694   O     0.60925   0.42962   0.75577   0.00000  Uiso   1.00
O695   O     0.36898   0.42037   0.74643   0.00000  Uiso   1.00
O696   O     0.59204   0.50234   0.67554   0.00000  Uiso   1.00
O697   O     0.35177   0.49309   0.66620   0.00000  Uiso   1.00
O698   O     0.40693   0.47571   0.58538   0.00000  Uiso   1.00
Zn699  Zn    0.60453   0.50618   0.75624   0.00000  Uiso   1.00
Zn700  Zn    0.39547   0.49382   0.74377   0.00000  Uiso   1.00
Br701  Br    0.84308   0.56481   0.81935   0.00000  Uiso   1.00
Br702  Br    0.77484   0.34532   0.77866   0.00000  Uiso   1.00
C703   C     0.68228   0.59827   0.75091   0.00000  Uiso   1.00
C704   C     0.72160   0.50892   0.91633   0.00000  Uiso   1.00
C705   C     0.69322   0.65285   0.75862   0.00000  Uiso   1.00
C706   C     0.70195   0.50217   0.85535   0.00000  Uiso   1.00
C707   C     0.97986   0.34749   0.75497   0.00000  Uiso   1.00
C708   C     0.98612   0.40199   0.75360   0.00000  Uiso   1.00
C709   C     0.96470   0.49645   0.64446   0.00000  Uiso   1.00
C710   C     0.94244   0.44472   0.99267   0.00000  Uiso   1.00
C711   C     0.94654   0.49164   0.58306   0.00000  Uiso   1.00
C712   C     0.69749   0.54632   0.94687   0.00000  Uiso   1.00
C713   C     0.73123   0.57309   0.99448   0.00000  Uiso   1.00
C714   C     0.81014   0.51774   0.98721   0.00000  Uiso   1.00
C715   C     0.78944   0.56311   0.51151   0.00000  Uiso   1.00
C716   C     0.70015   0.44473   0.56189   0.00000  Uiso   1.00
C717   C     0.82806   0.60554   0.54656   0.00000  Uiso   1.00
C718   C     0.77467   0.49025   0.93954   0.00000  Uiso   1.00
C719   C     0.86454   0.49853   0.50753   0.00000  Uiso   1.00
C720   C     0.88664   0.46012   0.97493   0.00000  Uiso   1.00
C721   C     0.85107   0.43444   0.92763   0.00000  Uiso   1.00
C722   C     0.79435   0.44669   0.91288   0.00000  Uiso   1.00
C723   C     0.89370   0.51106   0.56249   0.00000  Uiso   1.00
C724   C     0.97417   0.46178   0.54616   0.00000  Uiso   1.00
H725   H     0.93551   0.66312   0.74792   0.00000  Uiso   1.00
H726   H     0.90506   0.64873   0.56118   0.00000  Uiso   1.00
H727   H     0.82302   0.45870   0.70719   0.00000  Uiso   1.00
H728   H     0.86596   0.40282   0.90407   0.00000  Uiso   1.00
H729   H     0.96044   0.41806   0.96549   0.00000  Uiso   1.00
H730   H     0.87251   0.53192   0.59174   0.00000  Uiso   1.00
H731   H     0.98900   0.55981   0.92991   0.00000  Uiso   1.00
H732   H     0.71398   0.60601   0.51359   0.00000  Uiso   1.00
H733   H     0.76630   0.42298   0.87879   0.00000  Uiso   1.00
H734   H     0.75329   0.38731   0.55752   0.00000  Uiso   1.00
N735   N     0.81160   0.48556   0.73543   0.00000  Uiso   1.00
N736   N     0.85507   0.51444   0.76458   0.00000  Uiso   1.00
O737   O     0.96435   0.57963   0.75358   0.00000  Uiso   1.00
O738   O     0.71089   0.39386   0.54624   0.00000  Uiso   1.00
O739   O     0.81118   0.62972   0.58459   0.00000  Uiso   1.00
O740   O     0.88309   0.61896   0.53483   0.00000  Uiso   1.00
O741   O     0.72408   0.57038   0.74424   0.00000  Uiso   1.00
O742   O     0.98157   0.50691   0.83380   0.00000  Uiso   1.00
O743   O     0.74130   0.49766   0.82446   0.00000  Uiso   1.00
O744   O     0.94258   0.42962   0.75577   0.00000  Uiso   1.00
O745   O     0.70231   0.42037   0.74643   0.00000  Uiso   1.00
O746   O     0.92537   0.50234   0.67554   0.00000  Uiso   1.00
O747   O     0.68510   0.49309   0.66620   0.00000  Uiso   1.00
O748   O     0.74027   0.47571   0.58538   0.00000  Uiso   1.00
Zn749  Zn    0.93786   0.50618   0.75624   0.00000  Uiso   1.00
Zn750  Zn    0.72881   0.49382   0.74377   0.00000  Uiso   1.00
Br751  Br    0.17641   0.89815   0.81935   0.00000  Uiso   1.00
Br752  Br    0.10818   0.67866   0.77866   0.00000  Uiso   1.00
C753   C     0.01562   0.93160   0.75091   0.00000  Uiso   1.00
C754   C     0.05493   0.84225   0.91633   0.00000  Uiso   1.00
C755   C     0.02656   0.98619   0.75862   0.00000  Uiso   1.00
C756   C     0.03528   0.83550   0.85535   0.00000  Uiso   1.00
C757   C     0.31320   0.68082   0.75497   0.00000  Uiso   1.00
C758   C     0.31945   0.73533   0.75360   0.00000  Uiso   1.00
C759   C     0.29804   0.82979   0.64446   0.00000  Uiso   1.00
C760   C     0.27577   0.77805   0.99267   0.00000  Uiso   1.00
C761   C     0.27988   0.82497   0.58306   0.00000  Uiso   1.00
C762   C     0.03082   0.87965   0.94687   0.00000  Uiso   1.00
C763   C     0.06457   0.90642   0.99448   0.00000  Uiso   1.00
C764   C     0.14348   0.85108   0.98721   0.00000  Uiso   1.00
C765   C     0.12277   0.89644   0.51151   0.00000  Uiso   1.00
C766   C     0.03348   0.77806   0.56189   0.00000  Uiso   1.00
C767   C     0.16139   0.93887   0.54656   0.00000  Uiso   1.00
C768   C     0.10800   0.82358   0.93954   0.00000  Uiso   1.00
C769   C     0.19787   0.83186   0.50753   0.00000  Uiso   1.00
C770   C     0.21997   0.79345   0.97493   0.00000  Uiso   1.00
C771   C     0.18440   0.76778   0.92763   0.00000  Uiso   1.00
C772   C     0.12769   0.78002   0.91288   0.00000  Uiso   1.00
C773   C     0.22704   0.84440   0.56249   0.00000  Uiso   1.00
C774   C     0.30750   0.79511   0.54616   0.00000  Uiso   1.00
H775   H     0.26884   0.99645   0.74792   0.00000  Uiso   1.00
H776   H     0.23839   0.98206   0.56118   0.00000  Uiso   1.00
H777   H     0.15636   0.79203   0.70719   0.00000  Uiso   1.00
H778   H     0.19930   0.73615   0.90407   0.00000  Uiso   1.00
H779   H     0.29378   0.75140   0.96549   0.00000  Uiso   1.00
H780   H     0.20584   0.86526   0.59174   0.00000  Uiso   1.00
H781   H     0.32233   0.89314   0.92991   0.00000  Uiso   1.00
H782   H     0.04731   0.93934   0.51359   0.00000  Uiso   1.00
H783   H     0.09963   0.75631   0.87879   0.00000  Uiso   1.00
H784   H     0.08662   0.72064   0.55752   0.00000  Uiso   1.00
N785   N     0.14493   0.81890   0.73543   0.00000  Uiso   1.00
N786   N     0.18840   0.84777   0.76458   0.00000  Uiso   1.00
O787   O     0.29769   0.91296   0.75358   0.00000  Uiso   1.00
O788   O     0.04423   0.72719   0.54624   0.00000  Uiso   1.00
O789   O     0.14452   0.96305   0.58459   0.00000  Uiso   1.00
O790   O     0.21642   0.95229   0.53483   0.00000  Uiso   1.00
O791   O     0.05742   0.90371   0.74424   0.00000  Uiso   1.00
O792   O     0.31490   0.84024   0.83380   0.00000  Uiso   1.00
O793   O     0.07463   0.83099   0.82446   0.00000  Uiso   1.00
O794   O     0.27592   0.76296   0.75577   0.00000  Uiso   1.00
O795   O     0.03565   0.75371   0.74643   0.00000  Uiso   1.00
O796   O     0.25870   0.83567   0.67554   0.00000  Uiso   1.00
O797   O     0.01843   0.82642   0.66620   0.00000  Uiso   1.00
O798   O     0.07360   0.80905   0.58538   0.00000  Uiso   1.00
Zn799  Zn    0.27119   0.83951   0.75624   0.00000  Uiso   1.00
Zn800  Zn    0.06214   0.82716   0.74377   0.00000  Uiso   1.00
Br801  Br    0.50974   0.89815   0.81935   0.00000  Uiso   1.00
Br802  Br    0.44151   0.67866   0.77866   0.00000  Uiso   1.00
C803   C     0.34895   0.93160   0.75091   0.00000  Uiso   1.00
C804   C     0.38826   0.84225   0.91633   0.00000  Uiso   1.00
C805   C     0.35989   0.98619   0.75862   0.00000  Uiso   1.00
C806   C     0.36861   0.83550   0.85535   0.00000  Uiso   1.00
C807   C     0.64653   0.68082   0.75497   0.00000  Uiso   1.00
C808   C     0.65279   0.73533   0.75360   0.00000  Uiso   1.00
C809   C     0.63137   0.82979   0.64446   0.00000  Uiso   1.00
C810   C     0.60910   0.77805   0.99267   0.00000  Uiso   1.00
C811   C     0.61321   0.82497   0.58306   0.00000  Uiso   1.00
C812   C     0.36415   0.87965   0.94687   0.00000  Uiso   1.00
C813   C     0.39790   0.90642   0.99448   0.00000  Uiso   1.00
C814   C     0.47681   0.85108   0.98721   0.00000  Uiso   1.00
C815   C     0.45610   0.89644   0.51151   0.00000  Uiso   1.00
C816   C     0.36682   0.77806   0.56189   0.00000  Uiso   1.00
C817   C     0.49472   0.93887   0.54656   0.00000  Uiso   1.00
C818   C     0.44134   0.82358   0.93954   0.00000  Uiso   1.00
C819   C     0.53121   0.83186   0.50753   0.00000  Uiso   1.00
C820   C     0.55330   0.79345   0.97493   0.00000  Uiso   1.00
C821   C     0.51773   0.76778   0.92763   0.00000  Uiso   1.00
C822   C     0.46102   0.78002   0.91288   0.00000  Uiso   1.00
C823   C     0.56037   0.84440   0.56249   0.00000  Uiso   1.00
C824   C     0.64083   0.79511   0.54616   0.00000  Uiso   1.00
H825   H     0.60217   0.99645   0.74792   0.00000  Uiso   1.00
H826   H     0.57173   0.98206   0.56118   0.00000  Uiso   1.00
H827   H     0.48969   0.79203   0.70719   0.00000  Uiso   1.00
H828   H     0.53263   0.73615   0.90407   0.00000  Uiso   1.00
H829   H     0.62711   0.75140   0.96549   0.00000  Uiso   1.00
H830   H     0.53917   0.86526   0.59174   0.00000  Uiso   1.00
H831   H     0.65566   0.89314   0.92991   0.00000  Uiso   1.00
H832   H     0.38064   0.93934   0.51359   0.00000  Uiso   1.00
H833   H     0.43297   0.75631   0.87879   0.00000  Uiso   1.00
H834   H     0.41996   0.72064   0.55752   0.00000  Uiso   1.00
N835   N     0.47827   0.81890   0.73543   0.00000  Uiso   1.00
N836   N     0.52173   0.84777   0.76458   0.00000  Uiso   1.00
O837   O     0.63102   0.91296   0.75358   0.00000  Uiso   1.00
O838   O     0.37756   0.72719   0.54624   0.00000  Uiso   1.00
O839   O     0.47785   0.96305   0.58459   0.00000  Uiso   1.00
O840   O     0.54976   0.95229   0.53483   0.00000  Uiso   1.00
O841   O     0.39075   0.90371   0.74424   0.00000  Uiso   1.00
O842   O     0.64823   0.84024   0.83380   0.00000  Uiso   1.00
O843   O     0.40796   0.83099   0.82446   0.00000  Uiso   1.00
O844   O     0.60925   0.76296   0.75577   0.00000  Uiso   1.00
O845   O     0.36898   0.75371   0.74643   0.00000  Uiso   1.00
O846   O     0.59204   0.83567   0.67554   0.00000  Uiso   1.00
O847   O     0.35177   0.82642   0.66620   0.00000  Uiso   1.00
O848   O     0.40693   0.80905   0.58538   0.00000  Uiso   1.00
Zn849  Zn    0.60453   0.83951   0.75624   0.00000  Uiso   1.00
Zn850  Zn    0.39547   0.82716   0.74377   0.00000  Uiso   1.00
Br851  Br    0.84308   0.89815   0.81935   0.00000  Uiso   1.00
Br852  Br    0.77484   0.67866   0.77866   0.00000  Uiso   1.00
C853   C     0.68228   0.93160   0.75091   0.00000  Uiso   1.00
C854   C     0.72160   0.84225   0.91633   0.00000  Uiso   1.00
C855   C     0.69322   0.98619   0.75862   0.00000  Uiso   1.00
C856   C     0.70195   0.83550   0.85535   0.00000  Uiso   1.00
C857   C     0.97986   0.68082   0.75497   0.00000  Uiso   1.00
C858   C     0.98612   0.73533   0.75360   0.00000  Uiso   1.00
C859   C     0.96470   0.82979   0.64446   0.00000  Uiso   1.00
C860   C     0.94244   0.77805   0.99267   0.00000  Uiso   1.00
C861   C     0.94654   0.82497   0.58306   0.00000  Uiso   1.00
C862   C     0.69749   0.87965   0.94687   0.00000  Uiso   1.00
C863   C     0.73123   0.90642   0.99448   0.00000  Uiso   1.00
C864   C     0.81014   0.85108   0.98721   0.00000  Uiso   1.00
C865   C     0.78944   0.89644   0.51151   0.00000  Uiso   1.00
C866   C     0.70015   0.77806   0.56189   0.00000  Uiso   1.00
C867   C     0.82806   0.93887   0.54656   0.00000  Uiso   1.00
C868   C     0.77467   0.82358   0.93954   0.00000  Uiso   1.00
C869   C     0.86454   0.83186   0.50753   0.00000  Uiso   1.00
C870   C     0.88664   0.79345   0.97493   0.00000  Uiso   1.00
C871   C     0.85107   0.76778   0.92763   0.00000  Uiso   1.00
C872   C     0.79435   0.78002   0.91288   0.00000  Uiso   1.00
C873   C     0.89370   0.84440   0.56249   0.00000  Uiso   1.00
C874   C     0.97417   0.79511   0.54616   0.00000  Uiso   1.00
H875   H     0.93551   0.99645   0.74792   0.00000  Uiso   1.00
H876   H     0.90506   0.98206   0.56118   0.00000  Uiso   1.00
H877   H     0.82302   0.79203   0.70719   0.00000  Uiso   1.00
H878   H     0.86596   0.73615   0.90407   0.00000  Uiso   1.00
H879   H     0.96044   0.75140   0.96549   0.00000  Uiso   1.00
H880   H     0.87251   0.86526   0.59174   0.00000  Uiso   1.00
H881   H     0.98900   0.89314   0.92991   0.00000  Uiso   1.00
H882   H     0.71398   0.93934   0.51359   0.00000  Uiso   1.00
H883   H     0.76630   0.75631   0.87879   0.00000  Uiso   1.00
H884   H     0.75329   0.72064   0.55752   0.00000  Uiso   1.00
N885   N     0.81160   0.81890   0.73543   0.00000  Uiso   1.00
N886   N     0.85507   0.84777   0.76458   0.00000  Uiso   1.00
O887   O     0.96435   0.91296   0.75358   0.00000  Uiso   1.00
O888   O     0.71089   0.72719   0.54624   0.00000  Uiso   1.00
O889   O     0.81118   0.96305   0.58459   0.00000  Uiso   1.00
O890   O     0.88309   0.95229   0.53483   0.00000  Uiso   1.00
O891   O     0.72408   0.90371   0.74424   0.00000  Uiso   1.00
O892   O     0.98157   0.84024   0.83380   0.00000  Uiso   1.00
O893   O     0.74130   0.83099   0.82446   0.00000  Uiso   1.00
O894   O     0.94258   0.76296   0.75577   0.00000  Uiso   1.00
O895   O     0.70231   0.75371   0.74643   0.00000  Uiso   1.00
O896   O     0.92537   0.83567   0.67554   0.00000  Uiso   1.00
O897   O     0.68510   0.82642   0.66620   0.00000  Uiso   1.00
O898   O     0.74027   0.80905   0.58538   0.00000  Uiso   1.00
Zn899  Zn    0.93786   0.83951   0.75624   0.00000  Uiso   1.00
Zn900  Zn    0.72881   0.82716   0.74377   0.00000  Uiso   1.00
loop_
_geom_bond_atom_site_label_1
_geom_bond_atom_site_label_2
_geom_bond_distance
_geom_bond_site_symmetry_2
_ccdc_geom_bond_type
Br1    N36     1.875   .     S
Br2    C305    1.950   1_545 S
C3     O41     1.289   .     A
C3     C5      1.407   .     S
C3     O137    1.280   1_455 S
C4     C12     1.397   .     A
C4     C18     1.402   .     A
C4     C6      1.455   .     S
C5     Br152   1.950   .     S
C5     C257    1.350   1_455 S
C6     O43     1.299   .     A
C6     O142    1.293   1_455 S
C7     C8      1.404   .     S
C7     C355    1.350   1_545 S
C7     H325    1.088   1_545 S
C8     O44     1.297   .     A
C8     O95     1.271   .     S
C9     C11     1.459   .     S
C9     O46     1.306   .     A
C9     O97     1.288   .     S
C10    H29     1.085   .     S
C10    C20     1.398   .     A
C10    C474    1.397   .     S
C11    C23     1.391   .     A
C11    C24     1.421   .     A
C12    C13     1.387   .     A
C12    H131    1.084   1_455 S
C13    C465    1.403   .     S
C13    H482    1.084   .     S
C14    C18     1.412   .     A
C14    C465    1.436   .     S
C14    C469    1.419   .     S
C15    C17     1.486   .     S
C15    C463    1.403   1_554 S
C15    C464    1.436   1_554 S
C16    O48     1.222   .     D
C16    O38     1.398   .     S
C16    C124    1.483   1_455 S
C17    O39     1.223   .     D
C17    O40     1.399   .     S
C18    C22     1.413   .     A
C19    C23     1.385   .     A
C19    C464    1.419   1_554 S
C19    C470    1.418   1_554 S
C20    C21     1.387   .     A
C20    C469    1.418   .     S
C21    C22     1.381   .     A
C21    H28     1.084   .     S
C22    H33     1.083   .     S
C23    H30     1.079   .     S
C24    C460    1.397   1_554 S
C24    C66     1.483   .     S
H25    C157    1.088   .     S
H26    O40     1.014   .     S
H27    N35     1.029   .     S
H31    C62     1.084   .     S
H32    C463    1.084   1_554 S
H34    O38     1.014   .     S
N35    N36     1.289   .     D
N35    Zn50    2.021   .     S
N36    Zn49    2.021   .     S
O37    Zn49    1.957   .     S
O37    C53     1.280   .     S
O41    Zn50    1.983   .     S
O42    Zn49    1.960   .     S
O42    C56     1.293   .     S
O43    Zn50    1.909   .     S
O44    Zn49    1.983   .     S
O45    Zn50    1.957   .     S
O45    C108    1.271   1_455 S
O46    Zn49    1.909   .     S
O47    Zn50    1.960   .     S
O47    C109    1.288   1_455 S
Br51   N86     1.875   .     S
Br52   C355    1.950   1_545 S
C53    O91     1.289   .     A
C53    C55     1.407   .     S
C54    C62     1.397   .     A
C54    C68     1.402   .     A
C54    C56     1.455   .     S
C55    Br202   1.950   .     S
C55    C157    1.350   .     S
C56    O93     1.299   .     A
C57    C58     1.404   .     S
C57    C405    1.350   1_545 S
C57    H375    1.088   1_545 S
C58    O94     1.297   .     A
C58    O145    1.271   .     S
C59    C61     1.459   .     S
C59    O96     1.306   .     A
C59    O147    1.288   .     S
C60    H79     1.085   .     S
C60    C70     1.398   .     A
C60    C524    1.397   .     S
C61    C73     1.391   .     A
C61    C74     1.421   .     A
C62    C63     1.387   .     A
C63    C515    1.403   .     S
C63    H532    1.084   .     S
C64    C68     1.412   .     A
C64    C515    1.436   .     S
C64    C519    1.419   .     S
C65    C67     1.486   .     S
C65    C513    1.403   1_554 S
C65    C514    1.436   1_554 S
C66    O98     1.222   .     D
C66    O88     1.398   .     S
C67    O89     1.223   .     D
C67    O90     1.399   .     S
C68    C72     1.413   .     A
C69    C73     1.385   .     A
C69    C514    1.419   1_554 S
C69    C520    1.418   1_554 S
C70    C71     1.387   .     A
C70    C519    1.418   .     S
C71    C72     1.381   .     A
C71    H78     1.084   .     S
C72    H83     1.083   .     S
C73    H80     1.079   .     S
C74    C510    1.397   1_554 S
C74    C116    1.483   .     S
H75    C207    1.088   .     S
H76    O90     1.014   .     S
H77    N85     1.029   .     S
H81    C112    1.084   .     S
H82    C513    1.084   1_554 S
H84    O88     1.014   .     S
N85    N86     1.289   .     D
N85    Zn100   2.021   .     S
N86    Zn99    2.021   .     S
O87    Zn99    1.957   .     S
O87    C103    1.280   .     S
O91    Zn100   1.983   .     S
O92    Zn99    1.960   .     S
O92    C106    1.293   .     S
O93    Zn100   1.909   .     S
O94    Zn99    1.983   .     S
O95    Zn100   1.957   .     S
O96    Zn99    1.909   .     S
O97    Zn100   1.960   .     S
Br101  N136    1.875   .     S
Br102  C405    1.950   1_545 S
C103   O141    1.289   .     A
C103   C105    1.407   .     S
C104   C112    1.397   .     A
C104   C118    1.402   .     A
C104   C106    1.455   .     S
C105   Br252   1.950   .     S
C105   C207    1.350   .     S
C106   O143    1.299   .     A
C107   C108    1.404   .     S
C107   C305    1.350   1_645 S
C107   H425    1.088   1_545 S
C108   O144    1.297   .     A
C108   O45     1.271   1_655 S
C109   C111    1.459   .     S
C109   O146    1.306   .     A
C109   O47     1.288   1_655 S
C110   H129    1.085   .     S
C110   C120    1.398   .     A
C110   C574    1.397   .     S
C111   C123    1.391   .     A
C111   C124    1.421   .     A
C112   C113    1.387   .     A
C113   C565    1.403   .     S
C113   H582    1.084   .     S
C114   C118    1.412   .     A
C114   C565    1.436   .     S
C114   C569    1.419   .     S
C115   C117    1.486   .     S
C115   C563    1.403   1_554 S
C115   C564    1.436   1_554 S
C116   O148    1.222   .     D
C116   O138    1.398   .     S
C117   O139    1.223   .     D
C117   O140    1.399   .     S
C118   C122    1.413   .     A
C119   C123    1.385   .     A
C119   C564    1.419   1_554 S
C119   C570    1.418   1_554 S
C120   C121    1.387   .     A
C120   C569    1.418   .     S
C121   C122    1.381   .     A
C121   H128    1.084   .     S
C122   H133    1.083   .     S
C123   H130    1.079   .     S
C124   C560    1.397   1_554 S
C124   C16     1.483   1_655 S
H125   C257    1.088   .     S
H126   O140    1.014   .     S
H127   N135    1.029   .     S
H131   C12     1.084   1_655 S
H132   C563    1.084   1_554 S
H134   O138    1.014   .     S
N135   N136    1.289   .     D
N135   Zn150   2.021   .     S
N136   Zn149   2.021   .     S
O137   Zn149   1.957   .     S
O137   C3      1.280   1_655 S
O141   Zn150   1.983   .     S
O142   Zn149   1.960   .     S
O142   C6      1.293   1_655 S
O143   Zn150   1.909   .     S
O144   Zn149   1.983   .     S
O145   Zn150   1.957   .     S
O146   Zn149   1.909   .     S
O147   Zn150   1.960   .     S
Br151  N186    1.875   .     S
C153   O191    1.289   .     A
C153   C155    1.407   .     S
C153   O287    1.280   1_455 S
C154   C162    1.397   .     A
C154   C168    1.402   .     A
C154   C156    1.455   .     S
C155   Br302   1.950   .     S
C155   C407    1.350   1_455 S
C156   O193    1.299   .     A
C156   O292    1.293   1_455 S
C157   C158    1.404   .     S
C158   O194    1.297   .     A
C158   O245    1.271   .     S
C159   C161    1.459   .     S
C159   O196    1.306   .     A
C159   O247    1.288   .     S
C160   H179    1.085   .     S
C160   C170    1.398   .     A
C160   C624    1.397   .     S
C161   C173    1.391   .     A
C161   C174    1.421   .     A
C162   C163    1.387   .     A
C162   H281    1.084   1_455 S
C163   C615    1.403   .     S
C163   H632    1.084   .     S
C164   C168    1.412   .     A
C164   C615    1.436   .     S
C164   C619    1.419   .     S
C165   C167    1.486   .     S
C165   C613    1.403   1_554 S
C165   C614    1.436   1_554 S
C166   O198    1.222   .     D
C166   O188    1.398   .     S
C166   C274    1.483   1_455 S
C167   O189    1.223   .     D
C167   O190    1.399   .     S
C168   C172    1.413   .     A
C169   C173    1.385   .     A
C169   C614    1.419   1_554 S
C169   C620    1.418   1_554 S
C170   C171    1.387   .     A
C170   C619    1.418   .     S
C171   C172    1.381   .     A
C171   H178    1.084   .     S
C172   H183    1.083   .     S
C173   H180    1.079   .     S
C174   C610    1.397   1_554 S
C174   C216    1.483   .     S
H175   C307    1.088   .     S
H176   O190    1.014   .     S
H177   N185    1.029   .     S
H181   C212    1.084   .     S
H182   C613    1.084   1_554 S
H184   O188    1.014   .     S
N185   N186    1.289   .     D
N185   Zn200   2.021   .     S
N186   Zn199   2.021   .     S
O187   Zn199   1.957   .     S
O187   C203    1.280   .     S
O191   Zn200   1.983   .     S
O192   Zn199   1.960   .     S
O192   C206    1.293   .     S
O193   Zn200   1.909   .     S
O194   Zn199   1.983   .     S
O195   Zn200   1.957   .     S
O195   C258    1.271   1_455 S
O196   Zn199   1.909   .     S
O197   Zn200   1.960   .     S
O197   C259    1.288   1_455 S
Br201  N236    1.875   .     S
C203   O241    1.289   .     A
C203   C205    1.407   .     S
C204   C212    1.397   .     A
C204   C218    1.402   .     A
C204   C206    1.455   .     S
C205   Br352   1.950   .     S
C205   C307    1.350   .     S
C206   O243    1.299   .     A
C207   C208    1.404   .     S
C208   O244    1.297   .     A
C208   O295    1.271   .     S
C209   C211    1.459   .     S
C209   O246    1.306   .     A
C209   O297    1.288   .     S
C210   H229    1.085   .     S
C210   C220    1.398   .     A
C210   C674    1.397   .     S
C211   C223    1.391   .     A
C211   C224    1.421   .     A
C212   C213    1.387   .     A
C213   C665    1.403   .     S
C213   H682    1.084   .     S
C214   C218    1.412   .     A
C214   C665    1.436   .     S
C214   C669    1.419   .     S
C215   C217    1.486   .     S
C215   C663    1.403   1_554 S
C215   C664    1.436   1_554 S
C216   O248    1.222   .     D
C216   O238    1.398   .     S
C217   O239    1.223   .     D
C217   O240    1.399   .     S
C218   C222    1.413   .     A
C219   C223    1.385   .     A
C219   C664    1.419   1_554 S
C219   C670    1.418   1_554 S
C220   C221    1.387   .     A
C220   C669    1.418   .     S
C221   C222    1.381   .     A
C221   H228    1.084   .     S
C222   H233    1.083   .     S
C223   H230    1.079   .     S
C224   C660    1.397   1_554 S
C224   C266    1.483   .     S
H225   C357    1.088   .     S
H226   O240    1.014   .     S
H227   N235    1.029   .     S
H231   C262    1.084   .     S
H232   C663    1.084   1_554 S
H234   O238    1.014   .     S
N235   N236    1.289   .     D
N235   Zn250   2.021   .     S
N236   Zn249   2.021   .     S
O237   Zn249   1.957   .     S
O237   C253    1.280   .     S
O241   Zn250   1.983   .     S
O242   Zn249   1.960   .     S
O242   C256    1.293   .     S
O243   Zn250   1.909   .     S
O244   Zn249   1.983   .     S
O245   Zn250   1.957   .     S
O246   Zn249   1.909   .     S
O247   Zn250   1.960   .     S
Br251  N286    1.875   .     S
C253   O291    1.289   .     A
C253   C255    1.407   .     S
C254   C262    1.397   .     A
C254   C268    1.402   .     A
C254   C256    1.455   .     S
C255   Br402   1.950   .     S
C255   C357    1.350   .     S
C256   O293    1.299   .     A
C257   C258    1.404   .     S
C257   C5      1.350   1_655 S
C258   O294    1.297   .     A
C258   O195    1.271   1_655 S
C259   C261    1.459   .     S
C259   O296    1.306   .     A
C259   O197    1.288   1_655 S
C260   H279    1.085   .     S
C260   C270    1.398   .     A
C260   C724    1.397   .     S
C261   C273    1.391   .     A
C261   C274    1.421   .     A
C262   C263    1.387   .     A
C263   C715    1.403   .     S
C263   H732    1.084   .     S
C264   C268    1.412   .     A
C264   C715    1.436   .     S
C264   C719    1.419   .     S
C265   C267    1.486   .     S
C265   C713    1.403   1_554 S
C265   C714    1.436   1_554 S
C266   O298    1.222   .     D
C266   O288    1.398   .     S
C267   O289    1.223   .     D
C267   O290    1.399   .     S
C268   C272    1.413   .     A
C269   C273    1.385   .     A
C269   C714    1.419   1_554 S
C269   C720    1.418   1_554 S
C270   C271    1.387   .     A
C270   C719    1.418   .     S
C271   C272    1.381   .     A
C271   H278    1.084   .     S
C272   H283    1.083   .     S
C273   H280    1.079   .     S
C274   C710    1.397   1_554 S
C274   C166    1.483   1_655 S
H275   C407    1.088   .     S
H276   O290    1.014   .     S
H277   N285    1.029   .     S
H281   C162    1.084   1_655 S
H282   C713    1.084   1_554 S
H284   O288    1.014   .     S
N285   N286    1.289   .     D
N285   Zn300   2.021   .     S
N286   Zn299   2.021   .     S
O287   Zn299   1.957   .     S
O287   C153    1.280   1_655 S
O291   Zn300   1.983   .     S
O292   Zn299   1.960   .     S
O292   C156    1.293   1_655 S
O293   Zn300   1.909   .     S
O294   Zn299   1.983   .     S
O295   Zn300   1.957   .     S
O296   Zn299   1.909   .     S
O297   Zn300   1.960   .     S
Br301  N336    1.875   .     S
C303   O341    1.289   .     A
C303   C305    1.407   .     S
C303   O437    1.280   1_455 S
C304   C312    1.397   .     A
C304   C318    1.402   .     A
C304   C306    1.455   .     S
C305   Br2     1.950   1_565 S
C305   C107    1.350   1_465 S
C306   O343    1.299   .     A
C306   O442    1.293   1_455 S
C307   C308    1.404   .     S
C308   O344    1.297   .     A
C308   O395    1.271   .     S
C309   C311    1.459   .     S
C309   O346    1.306   .     A
C309   O397    1.288   .     S
C310   H329    1.085   .     S
C310   C320    1.398   .     A
C310   C774    1.397   .     S
C311   C323    1.391   .     A
C311   C324    1.421   .     A
C312   C313    1.387   .     A
C312   H431    1.084   1_455 S
C313   C765    1.403   .     S
C313   H782    1.084   .     S
C314   C318    1.412   .     A
C314   C765    1.436   .     S
C314   C769    1.419   .     S
C315   C317    1.486   .     S
C315   C763    1.403   1_554 S
C315   C764    1.436   1_554 S
C316   O348    1.222   .     D
C316   O338    1.398   .     S
C316   C424    1.483   1_455 S
C317   O339    1.223   .     D
C317   O340    1.399   .     S
C318   C322    1.413   .     A
C319   C323    1.385   .     A
C319   C764    1.419   1_554 S
C319   C770    1.418   1_554 S
C320   C321    1.387   .     A
C320   C769    1.418   .     S
C321   C322    1.381   .     A
C321   H328    1.084   .     S
C322   H333    1.083   .     S
C323   H330    1.079   .     S
C324   C760    1.397   1_554 S
C324   C366    1.483   .     S
H325   C7      1.088   1_565 S
H326   O340    1.014   .     S
H327   N335    1.029   .     S
H331   C362    1.084   .     S
H332   C763    1.084   1_554 S
H334   O338    1.014   .     S
N335   N336    1.289   .     D
N335   Zn350   2.021   .     S
N336   Zn349   2.021   .     S
O337   Zn349   1.957   .     S
O337   C353    1.280   .     S
O341   Zn350   1.983   .     S
O342   Zn349   1.960   .     S
O342   C356    1.293   .     S
O343   Zn350   1.909   .     S
O344   Zn349   1.983   .     S
O345   Zn350   1.957   .     S
O345   C408    1.271   1_455 S
O346   Zn349   1.909   .     S
O347   Zn350   1.960   .     S
O347   C409    1.288   1_455 S
Br351  N386    1.875   .     S
C353   O391    1.289   .     A
C353   C355    1.407   .     S
C354   C362    1.397   .     A
C354   C368    1.402   .     A
C354   C356    1.455   .     S
C355   Br52    1.950   1_565 S
C355   C7      1.350   1_565 S
C356   O393    1.299   .     A
C357   C358    1.404   .     S
C358   O394    1.297   .     A
C358   O445    1.271   .     S
C359   C361    1.459   .     S
C359   O396    1.306   .     A
C359   O447    1.288   .     S
C360   H379    1.085   .     S
C360   C370    1.398   .     A
C360   C824    1.397   .     S
C361   C373    1.391   .     A
C361   C374    1.421   .     A
C362   C363    1.387   .     A
C363   C815    1.403   .     S
C363   H832    1.084   .     S
C364   C368    1.412   .     A
C364   C815    1.436   .     S
C364   C819    1.419   .     S
C365   C367    1.486   .     S
C365   C813    1.403   1_554 S
C365   C814    1.436   1_554 S
C366   O398    1.222   .     D
C366   O388    1.398   .     S
C367   O389    1.223   .     D
C367   O390    1.399   .     S
C368   C372    1.413   .     A
C369   C373    1.385   .     A
C369   C814    1.419   1_554 S
C369   C820    1.418   1_554 S
C370   C371    1.387   .     A
C370   C819    1.418   .     S
C371   C372    1.381   .     A
C371   H378    1.084   .     S
C372   H383    1.083   .     S
C373   H380    1.079   .     S
C374   C810    1.397   1_554 S
C374   C416    1.483   .     S
H375   C57     1.088   1_565 S
H376   O390    1.014   .     S
H377   N385    1.029   .     S
H381   C412    1.084   .     S
H382   C813    1.084   1_554 S
H384   O388    1.014   .     S
N385   N386    1.289   .     D
N385   Zn400   2.021   .     S
N386   Zn399   2.021   .     S
O387   Zn399   1.957   .     S
O387   C403    1.280   .     S
O391   Zn400   1.983   .     S
O392   Zn399   1.960   .     S
O392   C406    1.293   .     S
O393   Zn400   1.909   .     S
O394   Zn399   1.983   .     S
O395   Zn400   1.957   .     S
O396   Zn399   1.909   .     S
O397   Zn400   1.960   .     S
Br401  N436    1.875   .     S
C403   O441    1.289   .     A
C403   C405    1.407   .     S
C404   C412    1.397   .     A
C404   C418    1.402   .     A
C404   C406    1.455   .     S
C405   Br102   1.950   1_565 S
C405   C57     1.350   1_565 S
C406   O443    1.299   .     A
C407   C408    1.404   .     S
C407   C155    1.350   1_655 S
C408   O444    1.297   .     A
C408   O345    1.271   1_655 S
C409   C411    1.459   .     S
C409   O446    1.306   .     A
C409   O347    1.288   1_655 S
C410   H429    1.085   .     S
C410   C420    1.398   .     A
C410   C874    1.397   .     S
C411   C423    1.391   .     A
C411   C424    1.421   .     A
C412   C413    1.387   .     A
C413   C865    1.403   .     S
C413   H882    1.084   .     S
C414   C418    1.412   .     A
C414   C865    1.436   .     S
C414   C869    1.419   .     S
C415   C417    1.486   .     S
C415   C863    1.403   1_554 S
C415   C864    1.436   1_554 S
C416   O448    1.222   .     D
C416   O438    1.398   .     S
C417   O439    1.223   .     D
C417   O440    1.399   .     S
C418   C422    1.413   .     A
C419   C423    1.385   .     A
C419   C864    1.419   1_554 S
C419   C870    1.418   1_554 S
C420   C421    1.387   .     A
C420   C869    1.418   .     S
C421   C422    1.381   .     A
C421   H428    1.084   .     S
C422   H433    1.083   .     S
C423   H430    1.079   .     S
C424   C860    1.397   1_554 S
C424   C316    1.483   1_655 S
H425   C107    1.088   1_565 S
H426   O440    1.014   .     S
H427   N435    1.029   .     S
H431   C312    1.084   1_655 S
H432   C863    1.084   1_554 S
H434   O438    1.014   .     S
N435   N436    1.289   .     D
N435   Zn450   2.021   .     S
N436   Zn449   2.021   .     S
O437   Zn449   1.957   .     S
O437   C303    1.280   1_655 S
O441   Zn450   1.983   .     S
O442   Zn449   1.960   .     S
O442   C306    1.293   1_655 S
O443   Zn450   1.909   .     S
O444   Zn449   1.983   .     S
O445   Zn450   1.957   .     S
O446   Zn449   1.909   .     S
O447   Zn450   1.960   .     S
Br451  N486    1.875   .     S
Br452  C755    1.950   1_545 S
C453   O491    1.289   .     A
C453   C455    1.407   .     S
C453   O587    1.280   1_455 S
C454   C462    1.397   .     A
C454   C468    1.402   .     A
C454   C456    1.455   .     S
C455   Br602   1.950   .     S
C455   C707    1.350   1_455 S
C456   O493    1.299   .     A
C456   O592    1.293   1_455 S
C457   C458    1.404   .     S
C457   C805    1.350   1_545 S
C457   H775    1.088   1_545 S
C458   O494    1.297   .     A
C458   O545    1.271   .     S
C459   C461    1.459   .     S
C459   O496    1.306   .     A
C459   O547    1.288   .     S
C460   H479    1.085   .     S
C460   C470    1.398   .     A
C460   C24     1.397   1_556 S
C461   C473    1.391   .     A
C461   C474    1.421   .     A
C462   C463    1.387   .     A
C462   H581    1.084   1_455 S
C463   C15     1.403   1_556 S
C463   H32     1.084   1_556 S
C464   C468    1.412   .     A
C464   C15     1.436   1_556 S
C464   C19     1.419   1_556 S
C465   C467    1.486   .     S
C466   O498    1.222   .     D
C466   O488    1.398   .     S
C466   C574    1.483   1_455 S
C467   O489    1.223   .     D
C467   O490    1.399   .     S
C468   C472    1.413   .     A
C469   C473    1.385   .     A
C470   C471    1.387   .     A
C470   C19     1.418   1_556 S
C471   C472    1.381   .     A
C471   H478    1.084   .     S
C472   H483    1.083   .     S
C473   H480    1.079   .     S
C474   C516    1.483   .     S
H475   C607    1.088   .     S
H476   O490    1.014   .     S
H477   N485    1.029   .     S
H481   C512    1.084   .     S
H484   O488    1.014   .     S
N485   N486    1.289   .     D
N485   Zn500   2.021   .     S
N486   Zn499   2.021   .     S
O487   Zn499   1.957   .     S
O487   C503    1.280   .     S
O491   Zn500   1.983   .     S
O492   Zn499   1.960   .     S
O492   C506    1.293   .     S
O493   Zn500   1.909   .     S
O494   Zn499   1.983   .     S
O495   Zn500   1.957   .     S
O495   C558    1.271   1_455 S
O496   Zn499   1.909   .     S
O497   Zn500   1.960   .     S
O497   C559    1.288   1_455 S
Br501  N536    1.875   .     S
Br502  C805    1.950   1_545 S
C503   O541    1.289   .     A
C503   C505    1.407   .     S
C504   C512    1.397   .     A
C504   C518    1.402   .     A
C504   C506    1.455   .     S
C505   Br652   1.950   .     S
C505   C607    1.350   .     S
C506   O543    1.299   .     A
C507   C508    1.404   .     S
C507   C855    1.350   1_545 S
C507   H825    1.088   1_545 S
C508   O544    1.297   .     A
C508   O595    1.271   .     S
C509   C511    1.459   .     S
C509   O546    1.306   .     A
C509   O597    1.288   .     S
C510   H529    1.085   .     S
C510   C520    1.398   .     A
C510   C74     1.397   1_556 S
C511   C523    1.391   .     A
C511   C524    1.421   .     A
C512   C513    1.387   .     A
C513   C65     1.403   1_556 S
C513   H82     1.084   1_556 S
C514   C518    1.412   .     A
C514   C65     1.436   1_556 S
C514   C69     1.419   1_556 S
C515   C517    1.486   .     S
C516   O548    1.222   .     D
C516   O538    1.398   .     S
C517   O539    1.223   .     D
C517   O540    1.399   .     S
C518   C522    1.413   .     A
C519   C523    1.385   .     A
C520   C521    1.387   .     A
C520   C69     1.418   1_556 S
C521   C522    1.381   .     A
C521   H528    1.084   .     S
C522   H533    1.083   .     S
C523   H530    1.079   .     S
C524   C566    1.483   .     S
H525   C657    1.088   .     S
H526   O540    1.014   .     S
H527   N535    1.029   .     S
H531   C562    1.084   .     S
H534   O538    1.014   .     S
N535   N536    1.289   .     D
N535   Zn550   2.021   .     S
N536   Zn549   2.021   .     S
O537   Zn549   1.957   .     S
O537   C553    1.280   .     S
O541   Zn550   1.983   .     S
O542   Zn549   1.960   .     S
O542   C556    1.293   .     S
O543   Zn550   1.909   .     S
O544   Zn549   1.983   .     S
O545   Zn550   1.957   .     S
O546   Zn549   1.909   .     S
O547   Zn550   1.960   .     S
Br551  N586    1.875   .     S
Br552  C855    1.950   1_545 S
C553   O591    1.289   .     A
C553   C555    1.407   .     S
C554   C562    1.397   .     A
C554   C568    1.402   .     A
C554   C556    1.455   .     S
C555   Br702   1.950   .     S
C555   C657    1.350   .     S
C556   O593    1.299   .     A
C557   C558    1.404   .     S
C557   C755    1.350   1_645 S
C557   H875    1.088   1_545 S
C558   O594    1.297   .     A
C558   O495    1.271   1_655 S
C559   C561    1.459   .     S
C559   O596    1.306   .     A
C559   O497    1.288   1_655 S
C560   H579    1.085   .     S
C560   C570    1.398   .     A
C560   C124    1.397   1_556 S
C561   C573    1.391   .     A
C561   C574    1.421   .     A
C562   C563    1.387   .     A
C563   C115    1.403   1_556 S
C563   H132    1.084   1_556 S
C564   C568    1.412   .     A
C564   C115    1.436   1_556 S
C564   C119    1.419   1_556 S
C565   C567    1.486   .     S
C566   O598    1.222   .     D
C566   O588    1.398   .     S
C567   O589    1.223   .     D
C567   O590    1.399   .     S
C568   C572    1.413   .     A
C569   C573    1.385   .     A
C570   C571    1.387   .     A
C570   C119    1.418   1_556 S
C571   C572    1.381   .     A
C571   H578    1.084   .     S
C572   H583    1.083   .     S
C573   H580    1.079   .     S
C574   C466    1.483   1_655 S
H575   C707    1.088   .     S
H576   O590    1.014   .     S
H577   N585    1.029   .     S
H581   C462    1.084   1_655 S
H584   O588    1.014   .     S
N585   N586    1.289   .     D
N585   Zn600   2.021   .     S
N586   Zn599   2.021   .     S
O587   Zn599   1.957   .     S
O587   C453    1.280   1_655 S
O591   Zn600   1.983   .     S
O592   Zn599   1.960   .     S
O592   C456    1.293   1_655 S
O593   Zn600   1.909   .     S
O594   Zn599   1.983   .     S
O595   Zn600   1.957   .     S
O596   Zn599   1.909   .     S
O597   Zn600   1.960   .     S
Br601  N636    1.875   .     S
C603   O641    1.289   .     A
C603   C605    1.407   .     S
C603   O737    1.280   1_455 S
C604   C612    1.397   .     A
C604   C618    1.402   .     A
C604   C606    1.455   .     S
C605   Br752   1.950   .     S
C605   C857    1.350   1_455 S
C606   O643    1.299   .     A
C606   O742    1.293   1_455 S
C607   C608    1.404   .     S
C608   O644    1.297   .     A
C608   O695    1.271   .     S
C609   C611    1.459   .     S
C609   O646    1.306   .     A
C609   O697    1.288   .     S
C610   H629    1.085   .     S
C610   C620    1.398   .     A
C610   C174    1.397   1_556 S
C611   C623    1.391   .     A
C611   C624    1.421   .     A
C612   C613    1.387   .     A
C612   H731    1.084   1_455 S
C613   C165    1.403   1_556 S
C613   H182    1.084   1_556 S
C614   C618    1.412   .     A
C614   C165    1.436   1_556 S
C614   C169    1.419   1_556 S
C615   C617    1.486   .     S
C616   O648    1.222   .     D
C616   O638    1.398   .     S
C616   C724    1.483   1_455 S
C617   O639    1.223   .     D
C617   O640    1.399   .     S
C618   C622    1.413   .     A
C619   C623    1.385   .     A
C620   C621    1.387   .     A
C620   C169    1.418   1_556 S
C621   C622    1.381   .     A
C621   H628    1.084   .     S
C622   H633    1.083   .     S
C623   H630    1.079   .     S
C624   C666    1.483   .     S
H625   C757    1.088   .     S
H626   O640    1.014   .     S
H627   N635    1.029   .     S
H631   C662    1.084   .     S
H634   O638    1.014   .     S
N635   N636    1.289   .     D
N635   Zn650   2.021   .     S
N636   Zn649   2.021   .     S
O637   Zn649   1.957   .     S
O637   C653    1.280   .     S
O641   Zn650   1.983   .     S
O642   Zn649   1.960   .     S
O642   C656    1.293   .     S
O643   Zn650   1.909   .     S
O644   Zn649   1.983   .     S
O645   Zn650   1.957   .     S
O645   C708    1.271   1_455 S
O646   Zn649   1.909   .     S
O647   Zn650   1.960   .     S
O647   C709    1.288   1_455 S
Br651  N686    1.875   .     S
C653   O691    1.289   .     A
C653   C655    1.407   .     S
C654   C662    1.397   .     A
C654   C668    1.402   .     A
C654   C656    1.455   .     S
C655   Br802   1.950   .     S
C655   C757    1.350   .     S
C656   O693    1.299   .     A
C657   C658    1.404   .     S
C658   O694    1.297   .     A
C658   O745    1.271   .     S
C659   C661    1.459   .     S
C659   O696    1.306   .     A
C659   O747    1.288   .     S
C660   H679    1.085   .     S
C660   C670    1.398   .     A
C660   C224    1.397   1_556 S
C661   C673    1.391   .     A
C661   C674    1.421   .     A
C662   C663    1.387   .     A
C663   C215    1.403   1_556 S
C663   H232    1.084   1_556 S
C664   C668    1.412   .     A
C664   C215    1.436   1_556 S
C664   C219    1.419   1_556 S
C665   C667    1.486   .     S
C666   O698    1.222   .     D
C666   O688    1.398   .     S
C667   O689    1.223   .     D
C667   O690    1.399   .     S
C668   C672    1.413   .     A
C669   C673    1.385   .     A
C670   C671    1.387   .     A
C670   C219    1.418   1_556 S
C671   C672    1.381   .     A
C671   H678    1.084   .     S
C672   H683    1.083   .     S
C673   H680    1.079   .     S
C674   C716    1.483   .     S
H675   C807    1.088   .     S
H676   O690    1.014   .     S
H677   N685    1.029   .     S
H681   C712    1.084   .     S
H684   O688    1.014   .     S
N685   N686    1.289   .     D
N685   Zn700   2.021   .     S
N686   Zn699   2.021   .     S
O687   Zn699   1.957   .     S
O687   C703    1.280   .     S
O691   Zn700   1.983   .     S
O692   Zn699   1.960   .     S
O692   C706    1.293   .     S
O693   Zn700   1.909   .     S
O694   Zn699   1.983   .     S
O695   Zn700   1.957   .     S
O696   Zn699   1.909   .     S
O697   Zn700   1.960   .     S
Br701  N736    1.875   .     S
C703   O741    1.289   .     A
C703   C705    1.407   .     S
C704   C712    1.397   .     A
C704   C718    1.402   .     A
C704   C706    1.455   .     S
C705   Br852   1.950   .     S
C705   C807    1.350   .     S
C706   O743    1.299   .     A
C707   C708    1.404   .     S
C707   C455    1.350   1_655 S
C708   O744    1.297   .     A
C708   O645    1.271   1_655 S
C709   C711    1.459   .     S
C709   O746    1.306   .     A
C709   O647    1.288   1_655 S
C710   H729    1.085   .     S
C710   C720    1.398   .     A
C710   C274    1.397   1_556 S
C711   C723    1.391   .     A
C711   C724    1.421   .     A
C712   C713    1.387   .     A
C713   C265    1.403   1_556 S
C713   H282    1.084   1_556 S
C714   C718    1.412   .     A
C714   C265    1.436   1_556 S
C714   C269    1.419   1_556 S
C715   C717    1.486   .     S
C716   O748    1.222   .     D
C716   O738    1.398   .     S
C717   O739    1.223   .     D
C717   O740    1.399   .     S
C718   C722    1.413   .     A
C719   C723    1.385   .     A
C720   C721    1.387   .     A
C720   C269    1.418   1_556 S
C721   C722    1.381   .     A
C721   H728    1.084   .     S
C722   H733    1.083   .     S
C723   H730    1.079   .     S
C724   C616    1.483   1_655 S
H725   C857    1.088   .     S
H726   O740    1.014   .     S
H727   N735    1.029   .     S
H731   C612    1.084   1_655 S
H734   O738    1.014   .     S
N735   N736    1.289   .     D
N735   Zn750   2.021   .     S
N736   Zn749   2.021   .     S
O737   Zn749   1.957   .     S
O737   C603    1.280   1_655 S
O741   Zn750   1.983   .     S
O742   Zn749   1.960   .     S
O742   C606    1.293   1_655 S
O743   Zn750   1.909   .     S
O744   Zn749   1.983   .     S
O745   Zn750   1.957   .     S
O746   Zn749   1.909   .     S
O747   Zn750   1.960   .     S
Br751  N786    1.875   .     S
C753   O791    1.289   .     A
C753   C755    1.407   .     S
C753   O887    1.280   1_455 S
C754   C762    1.397   .     A
C754   C768    1.402   .     A
C754   C756    1.455   .     S
C755   Br452   1.950   1_565 S
C755   C557    1.350   1_465 S
C756   O793    1.299   .     A
C756   O892    1.293   1_455 S
C757   C758    1.404   .     S
C758   O794    1.297   .     A
C758   O845    1.271   .     S
C759   C761    1.459   .     S
C759   O796    1.306   .     A
C759   O847    1.288   .     S
C760   H779    1.085   .     S
C760   C770    1.398   .     A
C760   C324    1.397   1_556 S
C761   C773    1.391   .     A
C761   C774    1.421   .     A
C762   C763    1.387   .     A
C762   H881    1.084   1_455 S
C763   C315    1.403   1_556 S
C763   H332    1.084   1_556 S
C764   C768    1.412   .     A
C764   C315    1.436   1_556 S
C764   C319    1.419   1_556 S
C765   C767    1.486   .     S
C766   O798    1.222   .     D
C766   O788    1.398   .     S
C766   C874    1.483   1_455 S
C767   O789    1.223   .     D
C767   O790    1.399   .     S
C768   C772    1.413   .     A
C769   C773    1.385   .     A
C770   C771    1.387   .     A
C770   C319    1.418   1_556 S
C771   C772    1.381   .     A
C771   H778    1.084   .     S
C772   H783    1.083   .     S
C773   H780    1.079   .     S
C774   C816    1.483   .     S
H775   C457    1.088   1_565 S
H776   O790    1.014   .     S
H777   N785    1.029   .     S
H781   C812    1.084   .     S
H784   O788    1.014   .     S
N785   N786    1.289   .     D
N785   Zn800   2.021   .     S
N786   Zn799   2.021   .     S
O787   Zn799   1.957   .     S
O787   C803    1.280   .     S
O791   Zn800   1.983   .     S
O792   Zn799   1.960   .     S
O792   C806    1.293   .     S
O793   Zn800   1.909   .     S
O794   Zn799   1.983   .     S
O795   Zn800   1.957   .     S
O795   C858    1.271   1_455 S
O796   Zn799   1.909   .     S
O797   Zn800   1.960   .     S
O797   C859    1.288   1_455 S
Br801  N836    1.875   .     S
C803   O841    1.289   .     A
C803   C805    1.407   .     S
C804   C812    1.397   .     A
C804   C818    1.402   .     A
C804   C806    1.455   .     S
C805   Br502   1.950   1_565 S
C805   C457    1.350   1_565 S
C806   O843    1.299   .     A
C807   C808    1.404   .     S
C808   O844    1.297   .     A
C808   O895    1.271   .     S
C809   C811    1.459   .     S
C809   O846    1.306   .     A
C809   O897    1.288   .     S
C810   H829    1.085   .     S
C810   C820    1.398   .     A
C810   C374    1.397   1_556 S
C811   C823    1.391   .     A
C811   C824    1.421   .     A
C812   C813    1.387   .     A
C813   C365    1.403   1_556 S
C813   H382    1.084   1_556 S
C814   C818    1.412   .     A
C814   C365    1.436   1_556 S
C814   C369    1.419   1_556 S
C815   C817    1.486   .     S
C816   O848    1.222   .     D
C816   O838    1.398   .     S
C817   O839    1.223   .     D
C817   O840    1.399   .     S
C818   C822    1.413   .     A
C819   C823    1.385   .     A
C820   C821    1.387   .     A
C820   C369    1.418   1_556 S
C821   C822    1.381   .     A
C821   H828    1.084   .     S
C822   H833    1.083   .     S
C823   H830    1.079   .     S
C824   C866    1.483   .     S
H825   C507    1.088   1_565 S
H826   O840    1.014   .     S
H827   N835    1.029   .     S
H831   C862    1.084   .     S
H834   O838    1.014   .     S
N835   N836    1.289   .     D
N835   Zn850   2.021   .     S
N836   Zn849   2.021   .     S
O837   Zn849   1.957   .     S
O837   C853    1.280   .     S
O841   Zn850   1.983   .     S
O842   Zn849   1.960   .     S
O842   C856    1.293   .     S
O843   Zn850   1.909   .     S
O844   Zn849   1.983   .     S
O845   Zn850   1.957   .     S
O846   Zn849   1.909   .     S
O847   Zn850   1.960   .     S
Br851  N886    1.875   .     S
C853   O891    1.289   .     A
C853   C855    1.407   .     S
C854   C862    1.397   .     A
C854   C868    1.402   .     A
C854   C856    1.455   .     S
C855   Br552   1.950   1_565 S
C855   C507    1.350   1_565 S
C856   O893    1.299   .     A
C857   C858    1.404   .     S
C857   C605    1.350   1_655 S
C858   O894    1.297   .     A
C858   O795    1.271   1_655 S
C859   C861    1.459   .     S
C859   O896    1.306   .     A
C859   O797    1.288   1_655 S
C860   H879    1.085   .     S
C860   C870    1.398   .     A
C860   C424    1.397   1_556 S
C861   C873    1.391   .     A
C861   C874    1.421   .     A
C862   C863    1.387   .     A
C863   C415    1.403   1_556 S
C863   H432    1.084   1_556 S
C864   C868    1.412   .     A
C864   C415    1.436   1_556 S
C864   C419    1.419   1_556 S
C865   C867    1.486   .     S
C866   O898    1.222   .     D
C866   O888    1.398   .     S
C867   O889    1.223   .     D
C867   O890    1.399   .     S
C868   C872    1.413   .     A
C869   C873    1.385   .     A
C870   C871    1.387   .     A
C870   C419    1.418   1_556 S
C871   C872    1.381   .     A
C871   H878    1.084   .     S
C872   H883    1.083   .     S
C873   H880    1.079   .     S
C874   C766    1.483   1_655 S
H875   C557    1.088   1_565 S
H876   O890    1.014   .     S
H877   N885    1.029   .     S
H881   C762    1.084   1_655 S
H884   O888    1.014   .     S
N885   N886    1.289   .     D
N885   Zn900   2.021   .     S
N886   Zn899   2.021   .     S
O887   Zn899   1.957   .     S
O887   C753    1.280   1_655 S
O891   Zn900   1.983   .     S
O892   Zn899   1.960   .     S
O892   C756    1.293   1_655 S
O893   Zn900   1.909   .     S
O894   Zn899   1.983   .     S
O895   Zn900   1.957   .     S
O896   Zn899   1.909   .     S
O897   Zn900   1.960   .     S
