data_str_m1_o1_o2_pcu_sym.23
_audit_creation_date              2020-01-03
_audit_creation_method            'Materials Studio'
_symmetry_space_group_name_H-M    'P1'
_symmetry_Int_Tables_number       1
_symmetry_cell_setting            triclinic
loop_
_symmetry_equiv_pos_as_xyz
  x,y,z
_cell_length_a                    36.6554
_cell_length_b                    36.6567
_cell_length_c                    34.6122
_cell_angle_alpha                 89.9995
_cell_angle_beta                  89.9995
_cell_angle_gamma                 89.9777
loop_
_atom_site_label
_atom_site_type_symbol
_atom_site_fract_x
_atom_site_fract_y
_atom_site_fract_z
_atom_site_U_iso_or_equiv
_atom_site_adp_type
_atom_site_occupancy
C1     C     0.22928   0.02616   0.04234   0.00000  Uiso   1.00
C2     C     0.03327   0.25039   0.45920   0.00000  Uiso   1.00
C3     C     0.34814   0.40187   0.74999   0.00000  Uiso   1.00
C4     C     0.40187   0.15187   0.25000   0.00000  Uiso   1.00
C5     C     0.09814   0.34813   0.75000   0.00000  Uiso   1.00
C6     C     0.34814   0.40187   0.25001   0.00000  Uiso   1.00
C7     C     0.15186   0.09813   0.74999   0.00000  Uiso   1.00
C8     C     0.09813   0.15186   0.74999   0.00000  Uiso   1.00
C9     C     0.40187   0.34814   0.25001   0.00000  Uiso   1.00
C10    C     0.15187   0.40187   0.75000   0.00000  Uiso   1.00
C11    C     0.34813   0.09813   0.25000   0.00000  Uiso   1.00
C12    C     0.40187   0.34813   0.74999   0.00000  Uiso   1.00
C13    C     0.24952   0.46673   0.54080   0.00000  Uiso   1.00
C14    C     0.09813   0.15186   0.25001   0.00000  Uiso   1.00
C15    C     0.34813   0.09813   0.75000   0.00000  Uiso   1.00
C16    C     0.15187   0.40187   0.25000   0.00000  Uiso   1.00
C17    C     0.25000   0.00000   0.10283   0.00000  Uiso   1.00
C18    C     0.25000  -0.00000   0.89817   0.00000  Uiso   1.00
C19    C     0.00000   0.25000   0.10183   0.00000  Uiso   1.00
C20    C    -0.00000   0.25000   0.89712   0.00000  Uiso   1.00
C21    C     0.00000   0.25000   0.60288   0.00000  Uiso   1.00
C22    C    -0.00000   0.25000   0.39817   0.00000  Uiso   1.00
C23    C     0.25000   0.00000   0.60183   0.00000  Uiso   1.00
C24    C     0.22267   0.01914   0.45759   0.00000  Uiso   1.00
C25    C     0.25000  -0.00000   0.39712   0.00000  Uiso   1.00
C26    C     0.23096   0.08294   0.01596   0.00000  Uiso   1.00
C27    C     0.32432   0.04150   0.98596   0.00000  Uiso   1.00
C28    C     0.46344   0.17314   0.01403   0.00000  Uiso   1.00
C29    C     0.41607   0.26388   0.98396   0.00000  Uiso   1.00
C30    C     0.26904   0.41705   0.01597   0.00000  Uiso   1.00
C31    C     0.17568   0.45850   0.98597   0.00000  Uiso   1.00
C32    C     0.03657   0.32686   0.01402   0.00000  Uiso   1.00
C33    C     0.08393   0.23612   0.98395   0.00000  Uiso   1.00
C34    C     0.48618   0.33394   0.51605   0.00000  Uiso   1.00
C35    C     0.01908   0.22262   0.54242   0.00000  Uiso   1.00
C36    C     0.07690   0.28650   0.48597   0.00000  Uiso   1.00
C37    C     0.21331   0.42320   0.51403   0.00000  Uiso   1.00
C38    C     0.16609   0.01402   0.48395   0.00000  Uiso   1.00
C39    C     0.01382   0.16606   0.51605   0.00000  Uiso   1.00
C40    C     0.42310   0.21350   0.48598   0.00000  Uiso   1.00
C41    C     0.28669   0.07680   0.51402   0.00000  Uiso   1.00
C42    C     0.33391   0.48598   0.48395   0.00000  Uiso   1.00
C43    C     0.16949   0.03840   0.10138   0.00000  Uiso   1.00
C44    C     0.33008   0.46441   0.89852   0.00000  Uiso   1.00
C45    C     0.04094   0.17283   0.10192   0.00000  Uiso   1.00
C46    C     0.46673   0.24960   0.45920   0.00000  Uiso   1.00
C47    C     0.45701   0.32806   0.89842   0.00000  Uiso   1.00
C48    C     0.33051   0.46160   0.10138   0.00000  Uiso   1.00
C49    C     0.16992   0.03559   0.89852   0.00000  Uiso   1.00
C50    C     0.45906   0.32717   0.10192   0.00000  Uiso   1.00
C51    C     0.04299   0.17194   0.89842   0.00000  Uiso   1.00
C52    C     0.42197   0.29305   0.60158   0.00000  Uiso   1.00
C53    C     0.07714   0.20899   0.39808   0.00000  Uiso   1.00
C54    C     0.29081   0.42275   0.60190   0.00000  Uiso   1.00
C55    C     0.20712   0.07813   0.39843   0.00000  Uiso   1.00
C56    C     0.07803   0.20695   0.60158   0.00000  Uiso   1.00
C57    C     0.25048   0.03327   0.54080   0.00000  Uiso   1.00
C58    C     0.42286   0.29101   0.39808   0.00000  Uiso   1.00
C59    C     0.20919   0.07725   0.60190   0.00000  Uiso   1.00
C60    C     0.29287   0.42187   0.39843   0.00000  Uiso   1.00
C61    C     0.27733   0.48086   0.45759   0.00000  Uiso   1.00
C62    C     0.22732   0.02444   0.08272   0.00000  Uiso   1.00
C63    C     0.28334   0.00011   0.91885   0.00000  Uiso   1.00
C64    C     0.00203   0.21673   0.08114   0.00000  Uiso   1.00
C65    C     0.28317   0.00257   0.95920   0.00000  Uiso   1.00
C66    C     0.47426   0.27117   0.91720   0.00000  Uiso   1.00
C67    C     0.27268   0.47556   0.08272   0.00000  Uiso   1.00
C68    C     0.21666   0.49989   0.91885   0.00000  Uiso   1.00
C69    C     0.49797   0.28327   0.08114   0.00000  Uiso   1.00
C70    C     0.02574   0.22883   0.91720   0.00000  Uiso   1.00
C71    C     0.47884   0.27576   0.58280   0.00000  Uiso   1.00
C72    C     0.03327   0.24794   0.41886   0.00000  Uiso   1.00
C73    C     0.25198   0.46672   0.58114   0.00000  Uiso   1.00
C74    C     0.22429   0.02121   0.41720   0.00000  Uiso   1.00
C75    C     0.02116   0.22424   0.58280   0.00000  Uiso   1.00
C76    C     0.49958   0.21673   0.04080   0.00000  Uiso   1.00
C77    C     0.46673   0.25206   0.41886   0.00000  Uiso   1.00
C78    C     0.24802   0.03328   0.58114   0.00000  Uiso   1.00
C79    C     0.27571   0.47878   0.41720   0.00000  Uiso   1.00
C80    C     0.25000  -0.00000   0.02201   0.00000  Uiso   1.00
C81    C     0.25000  -0.00000   0.97950   0.00000  Uiso   1.00
C82    C     0.00000   0.25000   0.02047   0.00000  Uiso   1.00
C83    C     0.00000   0.25000   0.97794   0.00000  Uiso   1.00
C84    C    -0.00000   0.25000   0.52206   0.00000  Uiso   1.00
C85    C    -0.00000   0.25000   0.47953   0.00000  Uiso   1.00
C86    C     0.25000   0.00000   0.52047   0.00000  Uiso   1.00
C87    C     0.47264   0.26910   0.95759   0.00000  Uiso   1.00
C88    C     0.25000  -0.00000   0.47794   0.00000  Uiso   1.00
C89    C     0.25000  -0.00000   0.35502   0.00000  Uiso   1.00
C90    C     0.25000  -0.00000   0.64460   0.00000  Uiso   1.00
C91    C    -0.00000   0.25000   0.35540   0.00000  Uiso   1.00
C92    C     0.00000   0.25000   0.64498   0.00000  Uiso   1.00
C93    C    -0.00000   0.25000   0.85502   0.00000  Uiso   1.00
C94    C     0.00000   0.25000   0.14460   0.00000  Uiso   1.00
C95    C     0.25000  -0.00000   0.85540   0.00000  Uiso   1.00
C96    C     0.25000  -0.00000   0.14496   0.00000  Uiso   1.00
C97    C     0.17993   0.07006   0.25000   0.00000  Uiso   1.00
C98    C     0.27072   0.47384   0.04234   0.00000  Uiso   1.00
C99    C     0.32007   0.42993   0.75000   0.00000  Uiso   1.00
C100   C     0.42993   0.17993   0.25000   0.00000  Uiso   1.00
C101   C     0.07007   0.32007   0.75000   0.00000  Uiso   1.00
C102   C     0.32007   0.42993   0.25000   0.00000  Uiso   1.00
C103   C     0.17993   0.07006   0.75000   0.00000  Uiso   1.00
C104   C     0.07007   0.32007   0.25000   0.00000  Uiso   1.00
C105   C     0.42993   0.17993   0.75000   0.00000  Uiso   1.00
C106   C     0.17993   0.42993   0.75000   0.00000  Uiso   1.00
C107   C     0.32007   0.07007   0.25000   0.00000  Uiso   1.00
C108   C     0.42993   0.32007   0.75000   0.00000  Uiso   1.00
C109   C     0.21683   0.49743   0.95920   0.00000  Uiso   1.00
C110   C     0.07007   0.17993   0.25000   0.00000  Uiso   1.00
C111   C     0.32007   0.07007   0.75000   0.00000  Uiso   1.00
C112   C     0.17993   0.42993   0.25000   0.00000  Uiso   1.00
C113   C     0.07007   0.17993   0.75000   0.00000  Uiso   1.00
C114   C     0.42993   0.32007   0.25000   0.00000  Uiso   1.00
C115   C     0.12196   0.40477   0.22495   0.00000  Uiso   1.00
C116   C     0.37804   0.09523   0.77505   0.00000  Uiso   1.00
C117   C     0.09650   0.12324   0.22321   0.00000  Uiso   1.00
C118   C     0.40351   0.37676   0.77678   0.00000  Uiso   1.00
C119   C     0.37804   0.09523   0.22495   0.00000  Uiso   1.00
C120   C     0.00042   0.28327   0.04080   0.00000  Uiso   1.00
C121   C     0.12196   0.40477   0.77506   0.00000  Uiso   1.00
C122   C     0.40350   0.37676   0.22321   0.00000  Uiso   1.00
C123   C     0.09649   0.12323   0.77678   0.00000  Uiso   1.00
C124   C     0.12323   0.09649   0.77678   0.00000  Uiso   1.00
C125   C     0.37676   0.40350   0.22321   0.00000  Uiso   1.00
C126   C     0.09523   0.37804   0.77505   0.00000  Uiso   1.00
C127   C     0.40477   0.12196   0.22495   0.00000  Uiso   1.00
C128   C     0.37677   0.40351   0.77678   0.00000  Uiso   1.00
C129   C     0.12324   0.09650   0.22321   0.00000  Uiso   1.00
C130   C     0.40477   0.12196   0.77505   0.00000  Uiso   1.00
C131   C     0.02736   0.23090   0.95758   0.00000  Uiso   1.00
C132   C     0.09523   0.37804   0.22495   0.00000  Uiso   1.00
C133   C     0.37196   0.15477   0.72495   0.00000  Uiso   1.00
C134   C     0.12804   0.34523   0.27505   0.00000  Uiso   1.00
C135   C     0.34650   0.37324   0.72320   0.00000  Uiso   1.00
C136   C     0.15349   0.12675   0.27681   0.00000  Uiso   1.00
C137   C     0.12804   0.34523   0.72495   0.00000  Uiso   1.00
C138   C     0.37196   0.15477   0.27505   0.00000  Uiso   1.00
C139   C     0.15350   0.12675   0.72320   0.00000  Uiso   1.00
C140   C     0.34651   0.37325   0.27681   0.00000  Uiso   1.00
C141   C     0.37325   0.34651   0.27681   0.00000  Uiso   1.00
C142   C     0.48092   0.27738   0.54242   0.00000  Uiso   1.00
C143   C     0.12675   0.15349   0.72320   0.00000  Uiso   1.00
C144   C     0.34523   0.12804   0.27505   0.00000  Uiso   1.00
C145   C     0.15477   0.37196   0.72495   0.00000  Uiso   1.00
C146   C     0.12675   0.15349   0.27681   0.00000  Uiso   1.00
C147   C     0.37325   0.34651   0.72320   0.00000  Uiso   1.00
C148   C     0.15477   0.37196   0.27505   0.00000  Uiso   1.00
C149   C     0.34523   0.12804   0.72495   0.00000  Uiso   1.00
C150   C     0.09813   0.34813   0.25000   0.00000  Uiso   1.00
C151   C     0.40186   0.15187   0.75000   0.00000  Uiso   1.00
C152   C     0.15186   0.09813   0.25001   0.00000  Uiso   1.00
H153   H     0.11918   0.42764   0.20536   0.00000  Uiso   1.00
H154   H     0.37847   0.42532   0.20218   0.00000  Uiso   1.00
H155   H     0.44206   0.30653   0.11718   0.00000  Uiso   1.00
H156   H     0.44783   0.33247   0.07258   0.00000  Uiso   1.00
H157   H     0.06153   0.15698   0.87864   0.00000  Uiso   1.00
H158   H     0.01454   0.16672   0.88854   0.00000  Uiso   1.00
H159   H     0.04702   0.16063   0.92790   0.00000  Uiso   1.00
H160   H     0.40702   0.31160   0.62136   0.00000  Uiso   1.00
H161   H     0.41672   0.26461   0.61147   0.00000  Uiso   1.00
H162   H     0.41066   0.29708   0.57210   0.00000  Uiso   1.00
H163   H     0.10295   0.20716   0.38146   0.00000  Uiso   1.00
H164   H     0.05648   0.19201   0.38282   0.00000  Uiso   1.00
H165   H     0.07236   0.38081   0.79465   0.00000  Uiso   1.00
H166   H     0.08242   0.19776   0.42742   0.00000  Uiso   1.00
H167   H     0.29258   0.39694   0.61853   0.00000  Uiso   1.00
H168   H     0.30786   0.44336   0.61715   0.00000  Uiso   1.00
H169   H     0.30202   0.41742   0.57256   0.00000  Uiso   1.00
H170   H     0.18861   0.09312   0.37865   0.00000  Uiso   1.00
H171   H     0.23558   0.08331   0.38855   0.00000  Uiso   1.00
H172   H     0.20310   0.08944   0.42791   0.00000  Uiso   1.00
H173   H     0.09298   0.18840   0.62135   0.00000  Uiso   1.00
H174   H     0.08328   0.23539   0.61146   0.00000  Uiso   1.00
H175   H     0.08934   0.20292   0.57210   0.00000  Uiso   1.00
H176   H     0.42765   0.11918   0.20536   0.00000  Uiso   1.00
H177   H     0.39705   0.29284   0.38146   0.00000  Uiso   1.00
H178   H     0.44352   0.30798   0.38282   0.00000  Uiso   1.00
H179   H     0.41758   0.30224   0.42742   0.00000  Uiso   1.00
H180   H     0.20742   0.10306   0.61853   0.00000  Uiso   1.00
H181   H     0.19214   0.05664   0.61715   0.00000  Uiso   1.00
H182   H     0.19798   0.08258   0.57256   0.00000  Uiso   1.00
H183   H     0.31139   0.40688   0.37865   0.00000  Uiso   1.00
H184   H     0.26442   0.41669   0.38855   0.00000  Uiso   1.00
H185   H     0.29689   0.41056   0.42791   0.00000  Uiso   1.00
H186   H     0.37849   0.42534   0.79779   0.00000  Uiso   1.00
H187   H     0.12153   0.07468   0.20218   0.00000  Uiso   1.00
H188   H     0.42764   0.11919   0.79465   0.00000  Uiso   1.00
H189   H     0.07235   0.38082   0.20536   0.00000  Uiso   1.00
H190   H     0.36918   0.17764   0.70535   0.00000  Uiso   1.00
H191   H     0.13082   0.32235   0.29464   0.00000  Uiso   1.00
H192   H     0.32467   0.37153   0.70219   0.00000  Uiso   1.00
H193   H     0.38081   0.07236   0.79465   0.00000  Uiso   1.00
H194   H     0.17531   0.12845   0.29783   0.00000  Uiso   1.00
H195   H     0.13082   0.32236   0.70535   0.00000  Uiso   1.00
H196   H     0.36918   0.17764   0.29464   0.00000  Uiso   1.00
H197   H     0.17533   0.12847   0.70219   0.00000  Uiso   1.00
H198   H     0.32469   0.37155   0.29783   0.00000  Uiso   1.00
H199   H     0.37154   0.32469   0.29783   0.00000  Uiso   1.00
H200   H     0.12847   0.17532   0.70218   0.00000  Uiso   1.00
H201   H     0.32235   0.13082   0.29464   0.00000  Uiso   1.00
H202   H     0.17764   0.36919   0.70535   0.00000  Uiso   1.00
H203   H     0.12846   0.17531   0.29783   0.00000  Uiso   1.00
H204   H     0.07468   0.12153   0.20218   0.00000  Uiso   1.00
H205   H     0.37153   0.32468   0.70218   0.00000  Uiso   1.00
H206   H     0.17765   0.36918   0.29464   0.00000  Uiso   1.00
H207   H     0.32236   0.13081   0.70535   0.00000  Uiso   1.00
H208   H     0.25035   0.07748   0.99202   0.00000  Uiso   1.00
H209   H     0.24580   0.09212   0.04234   0.00000  Uiso   1.00
H210   H     0.21312   0.10576   0.00666   0.00000  Uiso   1.00
H211   H     0.30731   0.05206   0.01003   0.00000  Uiso   1.00
H212   H     0.32122   0.05893   0.95977   0.00000  Uiso   1.00
H213   H     0.35321   0.04338   0.99527   0.00000  Uiso   1.00
H214   H     0.45177   0.18950   0.99003   0.00000  Uiso   1.00
H215   H     0.42534   0.37848   0.79780   0.00000  Uiso   1.00
H216   H     0.44586   0.17499   0.04023   0.00000  Uiso   1.00
H217   H     0.46345   0.14422   0.00460   0.00000  Uiso   1.00
H218   H     0.42278   0.24482   0.00785   0.00000  Uiso   1.00
H219   H     0.40779   0.24855   0.95757   0.00000  Uiso   1.00
H220   H     0.39221   0.28025   0.99335   0.00000  Uiso   1.00
H221   H     0.24965   0.42251   0.99202   0.00000  Uiso   1.00
H222   H     0.25420   0.40788   0.04235   0.00000  Uiso   1.00
H223   H     0.28688   0.39424   0.00667   0.00000  Uiso   1.00
H224   H     0.19269   0.44794   0.01004   0.00000  Uiso   1.00
H225   H     0.17878   0.44107   0.95978   0.00000  Uiso   1.00
H226   H     0.38082   0.07236   0.20536   0.00000  Uiso   1.00
H227   H     0.14679   0.45662   0.99528   0.00000  Uiso   1.00
H228   H     0.04823   0.31049   0.99002   0.00000  Uiso   1.00
H229   H     0.05414   0.32501   0.04022   0.00000  Uiso   1.00
H230   H     0.03655   0.35578   0.00459   0.00000  Uiso   1.00
H231   H     0.07723   0.25518   0.00784   0.00000  Uiso   1.00
H232   H     0.09221   0.25145   0.95756   0.00000  Uiso   1.00
H233   H     0.10780   0.21975   0.99334   0.00000  Uiso   1.00
H234   H     0.00524   0.32722   0.49216   0.00000  Uiso   1.00
H235   H     0.00151   0.34221   0.54244   0.00000  Uiso   1.00
H236   H     0.46983   0.35781   0.50666   0.00000  Uiso   1.00
H237   H     0.11919   0.42764   0.79465   0.00000  Uiso   1.00
H238   H     0.06054   0.29818   0.50997   0.00000  Uiso   1.00
H239   H     0.07505   0.30408   0.45977   0.00000  Uiso   1.00
H240   H     0.10581   0.28646   0.49540   0.00000  Uiso   1.00
H241   H     0.20167   0.43958   0.49003   0.00000  Uiso   1.00
H242   H     0.19573   0.42509   0.54023   0.00000  Uiso   1.00
H243   H     0.21327   0.39428   0.50460   0.00000  Uiso   1.00
H244   H     0.17276   0.49494   0.50784   0.00000  Uiso   1.00
H245   H     0.15778   0.49871   0.45756   0.00000  Uiso   1.00
H246   H     0.14225   0.03042   0.49334   0.00000  Uiso   1.00
H247   H     0.49476   0.17277   0.49217   0.00000  Uiso   1.00
H248   H     0.42532   0.37847   0.20218   0.00000  Uiso   1.00
H249   H     0.49849   0.15779   0.54245   0.00000  Uiso   1.00
H250   H     0.03017   0.14218   0.50666   0.00000  Uiso   1.00
H251   H     0.43946   0.20182   0.50998   0.00000  Uiso   1.00
H252   H     0.42495   0.19592   0.45978   0.00000  Uiso   1.00
H253   H     0.39419   0.21354   0.49541   0.00000  Uiso   1.00
H254   H     0.29833   0.06042   0.49002   0.00000  Uiso   1.00
H255   H     0.30427   0.07491   0.54022   0.00000  Uiso   1.00
H256   H     0.28673   0.10572   0.50460   0.00000  Uiso   1.00
H257   H     0.32725   0.00506   0.50783   0.00000  Uiso   1.00
H258   H     0.34222   0.00129   0.45755   0.00000  Uiso   1.00
H259   H     0.07466   0.12152   0.79780   0.00000  Uiso   1.00
H260   H     0.35775   0.46958   0.49334   0.00000  Uiso   1.00
H261   H     0.15349   0.05596   0.12125   0.00000  Uiso   1.00
H262   H     0.16590   0.00965   0.11111   0.00000  Uiso   1.00
H263   H     0.15798   0.04192   0.07193   0.00000  Uiso   1.00
H264   H     0.35582   0.46434   0.88167   0.00000  Uiso   1.00
H265   H     0.31069   0.44565   0.88373   0.00000  Uiso   1.00
H266   H     0.33646   0.45403   0.92796   0.00000  Uiso   1.00
H267   H     0.04276   0.14702   0.11854   0.00000  Uiso   1.00
H268   H     0.05794   0.19347   0.11718   0.00000  Uiso   1.00
H269   H     0.05217   0.16753   0.07258   0.00000  Uiso   1.00
H270   H     0.12151   0.07466   0.79779   0.00000  Uiso   1.00
H271   H     0.43847   0.34302   0.87864   0.00000  Uiso   1.00
H272   H     0.48545   0.33328   0.88854   0.00000  Uiso   1.00
H273   H     0.45298   0.33937   0.92790   0.00000  Uiso   1.00
H274   H     0.34652   0.44404   0.12125   0.00000  Uiso   1.00
H275   H     0.33410   0.49035   0.11111   0.00000  Uiso   1.00
H276   H     0.34202   0.45808   0.07192   0.00000  Uiso   1.00
H277   H     0.14417   0.03566   0.88167   0.00000  Uiso   1.00
H278   H     0.18931   0.05435   0.88373   0.00000  Uiso   1.00
H279   H     0.16354   0.04597   0.92796   0.00000  Uiso   1.00
H280   H     0.45724   0.35298   0.11854   0.00000  Uiso   1.00
O281   O     0.25000  -0.00000   0.25000   0.00000  Uiso   1.00
O282   O     0.25000   0.46964   0.66317   0.00000  Uiso   1.00
O283   O     0.46964   0.25000   0.33683   0.00000  Uiso   1.00
O284   O     0.03036   0.25000   0.66317   0.00000  Uiso   1.00
O285   O     0.00000   0.21964   0.83683   0.00000  Uiso   1.00
O286   O     0.00000   0.28036   0.16317   0.00000  Uiso   1.00
O287   O     0.28036  -0.00000   0.83683   0.00000  Uiso   1.00
O288   O     0.21964  -0.00000   0.16317   0.00000  Uiso   1.00
O289   O     0.00000   0.28036   0.83683   0.00000  Uiso   1.00
O290   O     0.00000   0.21964   0.16317   0.00000  Uiso   1.00
O291   O     0.21964  -0.00000   0.83683   0.00000  Uiso   1.00
O292   O     0.25000  -0.00000   0.75000   0.00000  Uiso   1.00
O293   O     0.28036  -0.00000   0.16317   0.00000  Uiso   1.00
O294   O     0.20725   0.07307   0.27282   0.00000  Uiso   1.00
O295   O     0.29274   0.42693   0.72718   0.00000  Uiso   1.00
O296   O     0.42693   0.20725   0.27282   0.00000  Uiso   1.00
O297   O     0.07307   0.29274   0.72718   0.00000  Uiso   1.00
O298   O     0.29274   0.42693   0.27282   0.00000  Uiso   1.00
O299   O     0.20725   0.07307   0.72718   0.00000  Uiso   1.00
O300   O     0.07307   0.29274   0.27282   0.00000  Uiso   1.00
O301   O     0.42693   0.20725   0.72718   0.00000  Uiso   1.00
O302   O     0.20725   0.42693   0.72718   0.00000  Uiso   1.00
O303   O     0.00000   0.25000   0.25000   0.00000  Uiso   1.00
O304   O     0.29274   0.07307   0.27282   0.00000  Uiso   1.00
O305   O     0.42693   0.29274   0.72718   0.00000  Uiso   1.00
O306   O     0.07307   0.20725   0.27282   0.00000  Uiso   1.00
O307   O     0.29274   0.07307   0.72718   0.00000  Uiso   1.00
O308   O     0.20725   0.42693   0.27282   0.00000  Uiso   1.00
O309   O     0.07307   0.20725   0.72718   0.00000  Uiso   1.00
O310   O     0.42693   0.29274   0.27282   0.00000  Uiso   1.00
O311   O     0.45725   0.32307   0.77282   0.00000  Uiso   1.00
O312   O     0.04274   0.17693   0.22718   0.00000  Uiso   1.00
O313   O     0.17693   0.45725   0.77282   0.00000  Uiso   1.00
O314   O     0.00000   0.25000   0.75000   0.00000  Uiso   1.00
O315   O     0.32307   0.04274   0.22718   0.00000  Uiso   1.00
O316   O     0.04274   0.17693   0.77282   0.00000  Uiso   1.00
O317   O     0.45725   0.32307   0.22718   0.00000  Uiso   1.00
O318   O     0.32307   0.04274   0.77282   0.00000  Uiso   1.00
O319   O     0.17693   0.45725   0.22718   0.00000  Uiso   1.00
O320   O     0.45725   0.17693   0.22718   0.00000  Uiso   1.00
O321   O     0.04274   0.32307   0.77282   0.00000  Uiso   1.00
O322   O     0.17693   0.04274   0.22718   0.00000  Uiso   1.00
O323   O     0.32307   0.45725   0.77282   0.00000  Uiso   1.00
O324   O     0.04274   0.32307   0.22718   0.00000  Uiso   1.00
O325   O     0.25000   0.46964   0.33683   0.00000  Uiso   1.00
O326   O     0.45725   0.17693   0.77282   0.00000  Uiso   1.00
O327   O     0.32307   0.45725   0.22718   0.00000  Uiso   1.00
O328   O     0.17693   0.04274   0.77282   0.00000  Uiso   1.00
O329   O     0.20892   0.05216   0.02294   0.00000  Uiso   1.00
O330   O     0.31614   0.00460   0.97859   0.00000  Uiso   1.00
O331   O     0.49973   0.18369   0.02143   0.00000  Uiso   1.00
O332   O     0.44541   0.28781   0.97695   0.00000  Uiso   1.00
O333   O     0.29108   0.44784   0.02294   0.00000  Uiso   1.00
O334   O     0.18386   0.49540   0.97859   0.00000  Uiso   1.00
O335   O     0.00028   0.31631   0.02143   0.00000  Uiso   1.00
O336   O     0.25000   0.03036   0.66317   0.00000  Uiso   1.00
O337   O     0.05460   0.21219   0.97695   0.00000  Uiso   1.00
O338   O     0.46223   0.30462   0.52305   0.00000  Uiso   1.00
O339   O     0.06631   0.25022   0.47857   0.00000  Uiso   1.00
O340   O     0.24961   0.43369   0.52143   0.00000  Uiso   1.00
O341   O     0.19547   0.03790   0.47696   0.00000  Uiso   1.00
O342   O     0.03777   0.19538   0.52305   0.00000  Uiso   1.00
O343   O     0.43369   0.24978   0.47857   0.00000  Uiso   1.00
O344   O     0.25039   0.06631   0.52143   0.00000  Uiso   1.00
O345   O     0.30453   0.46210   0.47696   0.00000  Uiso   1.00
O346   O     0.20635   0.04944   0.10287   0.00000  Uiso   1.00
O347   O     0.03036   0.25000   0.33683   0.00000  Uiso   1.00
O348   O     0.31652   0.00042   0.89979   0.00000  Uiso   1.00
O349   O     0.00402   0.18361   0.10019   0.00000  Uiso   1.00
O350   O     0.44809   0.29063   0.89701   0.00000  Uiso   1.00
O351   O     0.29365   0.45056   0.10287   0.00000  Uiso   1.00
O352   O     0.18348   0.49958   0.89979   0.00000  Uiso   1.00
O353   O     0.49599   0.31639   0.10019   0.00000  Uiso   1.00
O354   O     0.05191   0.20936   0.89701   0.00000  Uiso   1.00
O355   O     0.45940   0.30194   0.60300   0.00000  Uiso   1.00
O356   O     0.06639   0.24593   0.39981   0.00000  Uiso   1.00
O357   O     0.25391   0.43360   0.60019   0.00000  Uiso   1.00
O358   O     0.46964   0.25000   0.66317   0.00000  Uiso   1.00
O359   O     0.19815   0.04071   0.39701   0.00000  Uiso   1.00
O360   O     0.04060   0.19806   0.60300   0.00000  Uiso   1.00
O361   O     0.43361   0.25407   0.39981   0.00000  Uiso   1.00
O362   O     0.24609   0.06640   0.60019   0.00000  Uiso   1.00
O363   O     0.30185   0.45928   0.39701   0.00000  Uiso   1.00
O364   O     0.25000   0.03036   0.33683   0.00000  Uiso   1.00
Zn365  Zn    0.20660  -0.00000   0.21760   0.00000  Uiso   1.00
Zn366  Zn    0.04340   0.25000   0.28240   0.00000  Uiso   1.00
Zn367  Zn    0.25000   0.45660   0.71760   0.00000  Uiso   1.00
Zn368  Zn    0.25000   0.04340   0.28240   0.00000  Uiso   1.00
Zn369  Zn    0.04340   0.25000   0.71760   0.00000  Uiso   1.00
Zn370  Zn    0.45660   0.25000   0.28240   0.00000  Uiso   1.00
Zn371  Zn    0.25000   0.04340   0.71760   0.00000  Uiso   1.00
Zn372  Zn    0.25000   0.45660   0.28240   0.00000  Uiso   1.00
Zn373  Zn    0.29340  -0.00000   0.78240   0.00000  Uiso   1.00
Zn374  Zn    0.00000   0.20660   0.21760   0.00000  Uiso   1.00
Zn375  Zn   -0.00000   0.29340   0.78240   0.00000  Uiso   1.00
Zn376  Zn    0.29340  -0.00000   0.21760   0.00000  Uiso   1.00
Zn377  Zn    0.20660  -0.00000   0.78240   0.00000  Uiso   1.00
Zn378  Zn   -0.00000   0.29340   0.21760   0.00000  Uiso   1.00
Zn379  Zn    0.00000   0.20660   0.78240   0.00000  Uiso   1.00
Zn380  Zn    0.45660   0.25000   0.71760   0.00000  Uiso   1.00
C381   C     0.72928   0.02616   0.04234   0.00000  Uiso   1.00
C382   C     0.53327   0.25039   0.45920   0.00000  Uiso   1.00
C383   C     0.84814   0.40187   0.74999   0.00000  Uiso   1.00
C384   C     0.90187   0.15187   0.25000   0.00000  Uiso   1.00
C385   C     0.59814   0.34813   0.75000   0.00000  Uiso   1.00
C386   C     0.84814   0.40187   0.25001   0.00000  Uiso   1.00
C387   C     0.65186   0.09813   0.74999   0.00000  Uiso   1.00
C388   C     0.59813   0.15186   0.74999   0.00000  Uiso   1.00
C389   C     0.90187   0.34814   0.25001   0.00000  Uiso   1.00
C390   C     0.65187   0.40187   0.75000   0.00000  Uiso   1.00
C391   C     0.84813   0.09813   0.25000   0.00000  Uiso   1.00
C392   C     0.90187   0.34813   0.74999   0.00000  Uiso   1.00
C393   C     0.74952   0.46673   0.54080   0.00000  Uiso   1.00
C394   C     0.59813   0.15186   0.25001   0.00000  Uiso   1.00
C395   C     0.84813   0.09813   0.75000   0.00000  Uiso   1.00
C396   C     0.65187   0.40187   0.25000   0.00000  Uiso   1.00
C397   C     0.75000   0.00000   0.10283   0.00000  Uiso   1.00
C398   C     0.75000  -0.00000   0.89817   0.00000  Uiso   1.00
C399   C     0.50000   0.25000   0.10183   0.00000  Uiso   1.00
C400   C     0.50000   0.25000   0.89712   0.00000  Uiso   1.00
C401   C     0.50000   0.25000   0.60288   0.00000  Uiso   1.00
C402   C     0.50000   0.25000   0.39817   0.00000  Uiso   1.00
C403   C     0.75000   0.00000   0.60183   0.00000  Uiso   1.00
C404   C     0.72267   0.01914   0.45759   0.00000  Uiso   1.00
C405   C     0.75000  -0.00000   0.39712   0.00000  Uiso   1.00
C406   C     0.73096   0.08294   0.01596   0.00000  Uiso   1.00
C407   C     0.82432   0.04150   0.98596   0.00000  Uiso   1.00
C408   C     0.96344   0.17314   0.01403   0.00000  Uiso   1.00
C409   C     0.91607   0.26388   0.98396   0.00000  Uiso   1.00
C410   C     0.76904   0.41705   0.01597   0.00000  Uiso   1.00
C411   C     0.67568   0.45850   0.98597   0.00000  Uiso   1.00
C412   C     0.53657   0.32686   0.01402   0.00000  Uiso   1.00
C413   C     0.58393   0.23612   0.98395   0.00000  Uiso   1.00
C414   C     0.98618   0.33394   0.51605   0.00000  Uiso   1.00
C415   C     0.51908   0.22262   0.54242   0.00000  Uiso   1.00
C416   C     0.57690   0.28650   0.48597   0.00000  Uiso   1.00
C417   C     0.71331   0.42320   0.51403   0.00000  Uiso   1.00
C418   C     0.66609   0.01402   0.48395   0.00000  Uiso   1.00
C419   C     0.51382   0.16606   0.51605   0.00000  Uiso   1.00
C420   C     0.92310   0.21350   0.48598   0.00000  Uiso   1.00
C421   C     0.78669   0.07680   0.51402   0.00000  Uiso   1.00
C422   C     0.83391   0.48598   0.48395   0.00000  Uiso   1.00
C423   C     0.66949   0.03840   0.10138   0.00000  Uiso   1.00
C424   C     0.83008   0.46441   0.89852   0.00000  Uiso   1.00
C425   C     0.54094   0.17283   0.10192   0.00000  Uiso   1.00
C426   C     0.96673   0.24960   0.45920   0.00000  Uiso   1.00
C427   C     0.95701   0.32806   0.89842   0.00000  Uiso   1.00
C428   C     0.83051   0.46160   0.10138   0.00000  Uiso   1.00
C429   C     0.66992   0.03559   0.89852   0.00000  Uiso   1.00
C430   C     0.95906   0.32717   0.10192   0.00000  Uiso   1.00
C431   C     0.54299   0.17194   0.89842   0.00000  Uiso   1.00
C432   C     0.92197   0.29305   0.60158   0.00000  Uiso   1.00
C433   C     0.57714   0.20899   0.39808   0.00000  Uiso   1.00
C434   C     0.79081   0.42275   0.60190   0.00000  Uiso   1.00
C435   C     0.70712   0.07813   0.39843   0.00000  Uiso   1.00
C436   C     0.57803   0.20695   0.60158   0.00000  Uiso   1.00
C437   C     0.75048   0.03327   0.54080   0.00000  Uiso   1.00
C438   C     0.92286   0.29101   0.39808   0.00000  Uiso   1.00
C439   C     0.70919   0.07725   0.60190   0.00000  Uiso   1.00
C440   C     0.79287   0.42187   0.39843   0.00000  Uiso   1.00
C441   C     0.77733   0.48086   0.45759   0.00000  Uiso   1.00
C442   C     0.72732   0.02444   0.08272   0.00000  Uiso   1.00
C443   C     0.78334   0.00011   0.91885   0.00000  Uiso   1.00
C444   C     0.50203   0.21673   0.08114   0.00000  Uiso   1.00
C445   C     0.78317   0.00257   0.95920   0.00000  Uiso   1.00
C446   C     0.97426   0.27117   0.91720   0.00000  Uiso   1.00
C447   C     0.77268   0.47556   0.08272   0.00000  Uiso   1.00
C448   C     0.71666   0.49989   0.91885   0.00000  Uiso   1.00
C449   C     0.99797   0.28327   0.08114   0.00000  Uiso   1.00
C450   C     0.52574   0.22883   0.91720   0.00000  Uiso   1.00
C451   C     0.97884   0.27576   0.58280   0.00000  Uiso   1.00
C452   C     0.53327   0.24794   0.41886   0.00000  Uiso   1.00
C453   C     0.75198   0.46672   0.58114   0.00000  Uiso   1.00
C454   C     0.72429   0.02121   0.41720   0.00000  Uiso   1.00
C455   C     0.52116   0.22424   0.58280   0.00000  Uiso   1.00
C456   C     0.99958   0.21673   0.04080   0.00000  Uiso   1.00
C457   C     0.96673   0.25206   0.41886   0.00000  Uiso   1.00
C458   C     0.74802   0.03328   0.58114   0.00000  Uiso   1.00
C459   C     0.77571   0.47878   0.41720   0.00000  Uiso   1.00
C460   C     0.75000  -0.00000   0.02201   0.00000  Uiso   1.00
C461   C     0.75000  -0.00000   0.97950   0.00000  Uiso   1.00
C462   C     0.50000   0.25000   0.02047   0.00000  Uiso   1.00
C463   C     0.50000   0.25000   0.97794   0.00000  Uiso   1.00
C464   C     0.50000   0.25000   0.52206   0.00000  Uiso   1.00
C465   C     0.50000   0.25000   0.47953   0.00000  Uiso   1.00
C466   C     0.75000   0.00000   0.52047   0.00000  Uiso   1.00
C467   C     0.97264   0.26910   0.95759   0.00000  Uiso   1.00
C468   C     0.75000  -0.00000   0.47794   0.00000  Uiso   1.00
C469   C     0.75000  -0.00000   0.35502   0.00000  Uiso   1.00
C470   C     0.75000  -0.00000   0.64460   0.00000  Uiso   1.00
C471   C     0.50000   0.25000   0.35540   0.00000  Uiso   1.00
C472   C     0.50000   0.25000   0.64498   0.00000  Uiso   1.00
C473   C     0.50000   0.25000   0.85502   0.00000  Uiso   1.00
C474   C     0.50000   0.25000   0.14460   0.00000  Uiso   1.00
C475   C     0.75000  -0.00000   0.85540   0.00000  Uiso   1.00
C476   C     0.75000  -0.00000   0.14496   0.00000  Uiso   1.00
C477   C     0.67993   0.07006   0.25000   0.00000  Uiso   1.00
C478   C     0.77072   0.47384   0.04234   0.00000  Uiso   1.00
C479   C     0.82007   0.42993   0.75000   0.00000  Uiso   1.00
C480   C     0.92993   0.17993   0.25000   0.00000  Uiso   1.00
C481   C     0.57007   0.32007   0.75000   0.00000  Uiso   1.00
C482   C     0.82007   0.42993   0.25000   0.00000  Uiso   1.00
C483   C     0.67993   0.07006   0.75000   0.00000  Uiso   1.00
C484   C     0.57007   0.32007   0.25000   0.00000  Uiso   1.00
C485   C     0.92993   0.17993   0.75000   0.00000  Uiso   1.00
C486   C     0.67993   0.42993   0.75000   0.00000  Uiso   1.00
C487   C     0.82007   0.07007   0.25000   0.00000  Uiso   1.00
C488   C     0.92993   0.32007   0.75000   0.00000  Uiso   1.00
C489   C     0.71683   0.49743   0.95920   0.00000  Uiso   1.00
C490   C     0.57007   0.17993   0.25000   0.00000  Uiso   1.00
C491   C     0.82007   0.07007   0.75000   0.00000  Uiso   1.00
C492   C     0.67993   0.42993   0.25000   0.00000  Uiso   1.00
C493   C     0.57007   0.17993   0.75000   0.00000  Uiso   1.00
C494   C     0.92993   0.32007   0.25000   0.00000  Uiso   1.00
C495   C     0.62196   0.40477   0.22495   0.00000  Uiso   1.00
C496   C     0.87804   0.09523   0.77505   0.00000  Uiso   1.00
C497   C     0.59650   0.12324   0.22321   0.00000  Uiso   1.00
C498   C     0.90351   0.37676   0.77678   0.00000  Uiso   1.00
C499   C     0.87804   0.09523   0.22495   0.00000  Uiso   1.00
C500   C     0.50042   0.28327   0.04080   0.00000  Uiso   1.00
C501   C     0.62196   0.40477   0.77506   0.00000  Uiso   1.00
C502   C     0.90350   0.37676   0.22321   0.00000  Uiso   1.00
C503   C     0.59649   0.12323   0.77678   0.00000  Uiso   1.00
C504   C     0.62323   0.09649   0.77678   0.00000  Uiso   1.00
C505   C     0.87676   0.40350   0.22321   0.00000  Uiso   1.00
C506   C     0.59523   0.37804   0.77505   0.00000  Uiso   1.00
C507   C     0.90477   0.12196   0.22495   0.00000  Uiso   1.00
C508   C     0.87677   0.40351   0.77678   0.00000  Uiso   1.00
C509   C     0.62324   0.09650   0.22321   0.00000  Uiso   1.00
C510   C     0.90477   0.12196   0.77505   0.00000  Uiso   1.00
C511   C     0.52736   0.23090   0.95758   0.00000  Uiso   1.00
C512   C     0.59523   0.37804   0.22495   0.00000  Uiso   1.00
C513   C     0.87196   0.15477   0.72495   0.00000  Uiso   1.00
C514   C     0.62804   0.34523   0.27505   0.00000  Uiso   1.00
C515   C     0.84650   0.37324   0.72320   0.00000  Uiso   1.00
C516   C     0.65349   0.12675   0.27681   0.00000  Uiso   1.00
C517   C     0.62804   0.34523   0.72495   0.00000  Uiso   1.00
C518   C     0.87196   0.15477   0.27505   0.00000  Uiso   1.00
C519   C     0.65350   0.12675   0.72320   0.00000  Uiso   1.00
C520   C     0.84651   0.37325   0.27681   0.00000  Uiso   1.00
C521   C     0.87325   0.34651   0.27681   0.00000  Uiso   1.00
C522   C     0.98092   0.27738   0.54242   0.00000  Uiso   1.00
C523   C     0.62675   0.15349   0.72320   0.00000  Uiso   1.00
C524   C     0.84523   0.12804   0.27505   0.00000  Uiso   1.00
C525   C     0.65477   0.37196   0.72495   0.00000  Uiso   1.00
C526   C     0.62675   0.15349   0.27681   0.00000  Uiso   1.00
C527   C     0.87325   0.34651   0.72320   0.00000  Uiso   1.00
C528   C     0.65477   0.37196   0.27505   0.00000  Uiso   1.00
C529   C     0.84523   0.12804   0.72495   0.00000  Uiso   1.00
C530   C     0.59813   0.34813   0.25000   0.00000  Uiso   1.00
C531   C     0.90186   0.15187   0.75000   0.00000  Uiso   1.00
C532   C     0.65186   0.09813   0.25001   0.00000  Uiso   1.00
H533   H     0.61918   0.42764   0.20536   0.00000  Uiso   1.00
H534   H     0.87847   0.42532   0.20218   0.00000  Uiso   1.00
H535   H     0.94206   0.30653   0.11718   0.00000  Uiso   1.00
H536   H     0.94783   0.33247   0.07258   0.00000  Uiso   1.00
H537   H     0.56153   0.15698   0.87864   0.00000  Uiso   1.00
H538   H     0.51454   0.16672   0.88854   0.00000  Uiso   1.00
H539   H     0.54702   0.16063   0.92790   0.00000  Uiso   1.00
H540   H     0.90702   0.31160   0.62136   0.00000  Uiso   1.00
H541   H     0.91672   0.26461   0.61147   0.00000  Uiso   1.00
H542   H     0.91066   0.29708   0.57210   0.00000  Uiso   1.00
H543   H     0.60295   0.20716   0.38146   0.00000  Uiso   1.00
H544   H     0.55648   0.19201   0.38282   0.00000  Uiso   1.00
H545   H     0.57236   0.38081   0.79465   0.00000  Uiso   1.00
H546   H     0.58242   0.19776   0.42742   0.00000  Uiso   1.00
H547   H     0.79258   0.39694   0.61853   0.00000  Uiso   1.00
H548   H     0.80786   0.44336   0.61715   0.00000  Uiso   1.00
H549   H     0.80202   0.41742   0.57256   0.00000  Uiso   1.00
H550   H     0.68861   0.09312   0.37865   0.00000  Uiso   1.00
H551   H     0.73558   0.08331   0.38855   0.00000  Uiso   1.00
H552   H     0.70310   0.08944   0.42791   0.00000  Uiso   1.00
H553   H     0.59298   0.18840   0.62135   0.00000  Uiso   1.00
H554   H     0.58328   0.23539   0.61146   0.00000  Uiso   1.00
H555   H     0.58934   0.20292   0.57210   0.00000  Uiso   1.00
H556   H     0.92765   0.11918   0.20536   0.00000  Uiso   1.00
H557   H     0.89705   0.29284   0.38146   0.00000  Uiso   1.00
H558   H     0.94352   0.30798   0.38282   0.00000  Uiso   1.00
H559   H     0.91758   0.30224   0.42742   0.00000  Uiso   1.00
H560   H     0.70742   0.10306   0.61853   0.00000  Uiso   1.00
H561   H     0.69214   0.05664   0.61715   0.00000  Uiso   1.00
H562   H     0.69798   0.08258   0.57256   0.00000  Uiso   1.00
H563   H     0.81139   0.40688   0.37865   0.00000  Uiso   1.00
H564   H     0.76442   0.41669   0.38855   0.00000  Uiso   1.00
H565   H     0.79689   0.41056   0.42791   0.00000  Uiso   1.00
H566   H     0.87849   0.42534   0.79779   0.00000  Uiso   1.00
H567   H     0.62153   0.07468   0.20218   0.00000  Uiso   1.00
H568   H     0.92764   0.11919   0.79465   0.00000  Uiso   1.00
H569   H     0.57235   0.38082   0.20536   0.00000  Uiso   1.00
H570   H     0.86918   0.17764   0.70535   0.00000  Uiso   1.00
H571   H     0.63082   0.32235   0.29464   0.00000  Uiso   1.00
H572   H     0.82467   0.37153   0.70219   0.00000  Uiso   1.00
H573   H     0.88081   0.07236   0.79465   0.00000  Uiso   1.00
H574   H     0.67531   0.12845   0.29783   0.00000  Uiso   1.00
H575   H     0.63082   0.32236   0.70535   0.00000  Uiso   1.00
H576   H     0.86918   0.17764   0.29464   0.00000  Uiso   1.00
H577   H     0.67533   0.12847   0.70219   0.00000  Uiso   1.00
H578   H     0.82469   0.37155   0.29783   0.00000  Uiso   1.00
H579   H     0.87154   0.32469   0.29783   0.00000  Uiso   1.00
H580   H     0.62847   0.17532   0.70218   0.00000  Uiso   1.00
H581   H     0.82235   0.13082   0.29464   0.00000  Uiso   1.00
H582   H     0.67764   0.36919   0.70535   0.00000  Uiso   1.00
H583   H     0.62846   0.17531   0.29783   0.00000  Uiso   1.00
H584   H     0.57468   0.12153   0.20218   0.00000  Uiso   1.00
H585   H     0.87153   0.32468   0.70218   0.00000  Uiso   1.00
H586   H     0.67765   0.36918   0.29464   0.00000  Uiso   1.00
H587   H     0.82236   0.13081   0.70535   0.00000  Uiso   1.00
H588   H     0.75035   0.07748   0.99202   0.00000  Uiso   1.00
H589   H     0.74580   0.09212   0.04234   0.00000  Uiso   1.00
H590   H     0.71312   0.10576   0.00666   0.00000  Uiso   1.00
H591   H     0.80731   0.05206   0.01003   0.00000  Uiso   1.00
H592   H     0.82122   0.05893   0.95977   0.00000  Uiso   1.00
H593   H     0.85321   0.04338   0.99527   0.00000  Uiso   1.00
H594   H     0.95177   0.18950   0.99003   0.00000  Uiso   1.00
H595   H     0.92534   0.37848   0.79780   0.00000  Uiso   1.00
H596   H     0.94586   0.17499   0.04023   0.00000  Uiso   1.00
H597   H     0.96345   0.14422   0.00460   0.00000  Uiso   1.00
H598   H     0.92278   0.24482   0.00785   0.00000  Uiso   1.00
H599   H     0.90779   0.24855   0.95757   0.00000  Uiso   1.00
H600   H     0.89221   0.28025   0.99335   0.00000  Uiso   1.00
H601   H     0.74965   0.42251   0.99202   0.00000  Uiso   1.00
H602   H     0.75420   0.40788   0.04235   0.00000  Uiso   1.00
H603   H     0.78688   0.39424   0.00667   0.00000  Uiso   1.00
H604   H     0.69269   0.44794   0.01004   0.00000  Uiso   1.00
H605   H     0.67878   0.44107   0.95978   0.00000  Uiso   1.00
H606   H     0.88082   0.07236   0.20536   0.00000  Uiso   1.00
H607   H     0.64679   0.45662   0.99528   0.00000  Uiso   1.00
H608   H     0.54823   0.31049   0.99002   0.00000  Uiso   1.00
H609   H     0.55414   0.32501   0.04022   0.00000  Uiso   1.00
H610   H     0.53655   0.35578   0.00459   0.00000  Uiso   1.00
H611   H     0.57723   0.25518   0.00784   0.00000  Uiso   1.00
H612   H     0.59221   0.25145   0.95756   0.00000  Uiso   1.00
H613   H     0.60780   0.21975   0.99334   0.00000  Uiso   1.00
H614   H     0.50524   0.32722   0.49216   0.00000  Uiso   1.00
H615   H     0.50151   0.34221   0.54244   0.00000  Uiso   1.00
H616   H     0.96983   0.35781   0.50666   0.00000  Uiso   1.00
H617   H     0.61919   0.42764   0.79465   0.00000  Uiso   1.00
H618   H     0.56054   0.29818   0.50997   0.00000  Uiso   1.00
H619   H     0.57505   0.30408   0.45977   0.00000  Uiso   1.00
H620   H     0.60581   0.28646   0.49540   0.00000  Uiso   1.00
H621   H     0.70167   0.43958   0.49003   0.00000  Uiso   1.00
H622   H     0.69573   0.42509   0.54023   0.00000  Uiso   1.00
H623   H     0.71327   0.39428   0.50460   0.00000  Uiso   1.00
H624   H     0.67276   0.49494   0.50784   0.00000  Uiso   1.00
H625   H     0.65778   0.49871   0.45756   0.00000  Uiso   1.00
H626   H     0.64225   0.03042   0.49334   0.00000  Uiso   1.00
H627   H     0.99476   0.17277   0.49217   0.00000  Uiso   1.00
H628   H     0.92532   0.37847   0.20218   0.00000  Uiso   1.00
H629   H     0.99849   0.15779   0.54245   0.00000  Uiso   1.00
H630   H     0.53017   0.14218   0.50666   0.00000  Uiso   1.00
H631   H     0.93946   0.20182   0.50998   0.00000  Uiso   1.00
H632   H     0.92495   0.19592   0.45978   0.00000  Uiso   1.00
H633   H     0.89419   0.21354   0.49541   0.00000  Uiso   1.00
H634   H     0.79833   0.06042   0.49002   0.00000  Uiso   1.00
H635   H     0.80427   0.07491   0.54022   0.00000  Uiso   1.00
H636   H     0.78673   0.10572   0.50460   0.00000  Uiso   1.00
H637   H     0.82725   0.00506   0.50783   0.00000  Uiso   1.00
H638   H     0.84222   0.00129   0.45755   0.00000  Uiso   1.00
H639   H     0.57466   0.12152   0.79780   0.00000  Uiso   1.00
H640   H     0.85775   0.46958   0.49334   0.00000  Uiso   1.00
H641   H     0.65349   0.05596   0.12125   0.00000  Uiso   1.00
H642   H     0.66590   0.00965   0.11111   0.00000  Uiso   1.00
H643   H     0.65798   0.04192   0.07193   0.00000  Uiso   1.00
H644   H     0.85582   0.46434   0.88167   0.00000  Uiso   1.00
H645   H     0.81069   0.44565   0.88373   0.00000  Uiso   1.00
H646   H     0.83646   0.45403   0.92796   0.00000  Uiso   1.00
H647   H     0.54276   0.14702   0.11854   0.00000  Uiso   1.00
H648   H     0.55794   0.19347   0.11718   0.00000  Uiso   1.00
H649   H     0.55217   0.16753   0.07258   0.00000  Uiso   1.00
H650   H     0.62151   0.07466   0.79779   0.00000  Uiso   1.00
H651   H     0.93847   0.34302   0.87864   0.00000  Uiso   1.00
H652   H     0.98545   0.33328   0.88854   0.00000  Uiso   1.00
H653   H     0.95298   0.33937   0.92790   0.00000  Uiso   1.00
H654   H     0.84652   0.44404   0.12125   0.00000  Uiso   1.00
H655   H     0.83410   0.49035   0.11111   0.00000  Uiso   1.00
H656   H     0.84202   0.45808   0.07192   0.00000  Uiso   1.00
H657   H     0.64417   0.03566   0.88167   0.00000  Uiso   1.00
H658   H     0.68931   0.05435   0.88373   0.00000  Uiso   1.00
H659   H     0.66354   0.04597   0.92796   0.00000  Uiso   1.00
H660   H     0.95724   0.35298   0.11854   0.00000  Uiso   1.00
O661   O     0.75000  -0.00000   0.25000   0.00000  Uiso   1.00
O662   O     0.75000   0.46964   0.66317   0.00000  Uiso   1.00
O663   O     0.96964   0.25000   0.33683   0.00000  Uiso   1.00
O664   O     0.53036   0.25000   0.66317   0.00000  Uiso   1.00
O665   O     0.50000   0.21964   0.83683   0.00000  Uiso   1.00
O666   O     0.50000   0.28036   0.16317   0.00000  Uiso   1.00
O667   O     0.78036  -0.00000   0.83683   0.00000  Uiso   1.00
O668   O     0.71964  -0.00000   0.16317   0.00000  Uiso   1.00
O669   O     0.50000   0.28036   0.83683   0.00000  Uiso   1.00
O670   O     0.50000   0.21964   0.16317   0.00000  Uiso   1.00
O671   O     0.71964  -0.00000   0.83683   0.00000  Uiso   1.00
O672   O     0.75000  -0.00000   0.75000   0.00000  Uiso   1.00
O673   O     0.78036  -0.00000   0.16317   0.00000  Uiso   1.00
O674   O     0.70725   0.07307   0.27282   0.00000  Uiso   1.00
O675   O     0.79274   0.42693   0.72718   0.00000  Uiso   1.00
O676   O     0.92693   0.20725   0.27282   0.00000  Uiso   1.00
O677   O     0.57307   0.29274   0.72718   0.00000  Uiso   1.00
O678   O     0.79274   0.42693   0.27282   0.00000  Uiso   1.00
O679   O     0.70725   0.07307   0.72718   0.00000  Uiso   1.00
O680   O     0.57307   0.29274   0.27282   0.00000  Uiso   1.00
O681   O     0.92693   0.20725   0.72718   0.00000  Uiso   1.00
O682   O     0.70725   0.42693   0.72718   0.00000  Uiso   1.00
O683   O     0.50000   0.25000   0.25000   0.00000  Uiso   1.00
O684   O     0.79274   0.07307   0.27282   0.00000  Uiso   1.00
O685   O     0.92693   0.29274   0.72718   0.00000  Uiso   1.00
O686   O     0.57307   0.20725   0.27282   0.00000  Uiso   1.00
O687   O     0.79274   0.07307   0.72718   0.00000  Uiso   1.00
O688   O     0.70725   0.42693   0.27282   0.00000  Uiso   1.00
O689   O     0.57307   0.20725   0.72718   0.00000  Uiso   1.00
O690   O     0.92693   0.29274   0.27282   0.00000  Uiso   1.00
O691   O     0.95725   0.32307   0.77282   0.00000  Uiso   1.00
O692   O     0.54274   0.17693   0.22718   0.00000  Uiso   1.00
O693   O     0.67693   0.45725   0.77282   0.00000  Uiso   1.00
O694   O     0.50000   0.25000   0.75000   0.00000  Uiso   1.00
O695   O     0.82307   0.04274   0.22718   0.00000  Uiso   1.00
O696   O     0.54274   0.17693   0.77282   0.00000  Uiso   1.00
O697   O     0.95725   0.32307   0.22718   0.00000  Uiso   1.00
O698   O     0.82307   0.04274   0.77282   0.00000  Uiso   1.00
O699   O     0.67693   0.45725   0.22718   0.00000  Uiso   1.00
O700   O     0.95725   0.17693   0.22718   0.00000  Uiso   1.00
O701   O     0.54274   0.32307   0.77282   0.00000  Uiso   1.00
O702   O     0.67693   0.04274   0.22718   0.00000  Uiso   1.00
O703   O     0.82307   0.45725   0.77282   0.00000  Uiso   1.00
O704   O     0.54274   0.32307   0.22718   0.00000  Uiso   1.00
O705   O     0.75000   0.46964   0.33683   0.00000  Uiso   1.00
O706   O     0.95725   0.17693   0.77282   0.00000  Uiso   1.00
O707   O     0.82307   0.45725   0.22718   0.00000  Uiso   1.00
O708   O     0.67693   0.04274   0.77282   0.00000  Uiso   1.00
O709   O     0.70892   0.05216   0.02294   0.00000  Uiso   1.00
O710   O     0.81614   0.00460   0.97859   0.00000  Uiso   1.00
O711   O     0.99973   0.18369   0.02143   0.00000  Uiso   1.00
O712   O     0.94541   0.28781   0.97695   0.00000  Uiso   1.00
O713   O     0.79108   0.44784   0.02294   0.00000  Uiso   1.00
O714   O     0.68386   0.49540   0.97859   0.00000  Uiso   1.00
O715   O     0.50028   0.31631   0.02143   0.00000  Uiso   1.00
O716   O     0.75000   0.03036   0.66317   0.00000  Uiso   1.00
O717   O     0.55460   0.21219   0.97695   0.00000  Uiso   1.00
O718   O     0.96223   0.30462   0.52305   0.00000  Uiso   1.00
O719   O     0.56631   0.25022   0.47857   0.00000  Uiso   1.00
O720   O     0.74961   0.43369   0.52143   0.00000  Uiso   1.00
O721   O     0.69547   0.03790   0.47696   0.00000  Uiso   1.00
O722   O     0.53777   0.19538   0.52305   0.00000  Uiso   1.00
O723   O     0.93369   0.24978   0.47857   0.00000  Uiso   1.00
O724   O     0.75039   0.06631   0.52143   0.00000  Uiso   1.00
O725   O     0.80453   0.46210   0.47696   0.00000  Uiso   1.00
O726   O     0.70635   0.04944   0.10287   0.00000  Uiso   1.00
O727   O     0.53036   0.25000   0.33683   0.00000  Uiso   1.00
O728   O     0.81652   0.00042   0.89979   0.00000  Uiso   1.00
O729   O     0.50402   0.18361   0.10019   0.00000  Uiso   1.00
O730   O     0.94809   0.29063   0.89701   0.00000  Uiso   1.00
O731   O     0.79365   0.45056   0.10287   0.00000  Uiso   1.00
O732   O     0.68348   0.49958   0.89979   0.00000  Uiso   1.00
O733   O     0.99599   0.31639   0.10019   0.00000  Uiso   1.00
O734   O     0.55191   0.20936   0.89701   0.00000  Uiso   1.00
O735   O     0.95940   0.30194   0.60300   0.00000  Uiso   1.00
O736   O     0.56639   0.24593   0.39981   0.00000  Uiso   1.00
O737   O     0.75391   0.43360   0.60019   0.00000  Uiso   1.00
O738   O     0.96964   0.25000   0.66317   0.00000  Uiso   1.00
O739   O     0.69815   0.04071   0.39701   0.00000  Uiso   1.00
O740   O     0.54060   0.19806   0.60300   0.00000  Uiso   1.00
O741   O     0.93361   0.25407   0.39981   0.00000  Uiso   1.00
O742   O     0.74609   0.06640   0.60019   0.00000  Uiso   1.00
O743   O     0.80185   0.45928   0.39701   0.00000  Uiso   1.00
O744   O     0.75000   0.03036   0.33683   0.00000  Uiso   1.00
Zn745  Zn    0.70660  -0.00000   0.21760   0.00000  Uiso   1.00
Zn746  Zn    0.54340   0.25000   0.28240   0.00000  Uiso   1.00
Zn747  Zn    0.75000   0.45660   0.71760   0.00000  Uiso   1.00
Zn748  Zn    0.75000   0.04340   0.28240   0.00000  Uiso   1.00
Zn749  Zn    0.54340   0.25000   0.71760   0.00000  Uiso   1.00
Zn750  Zn    0.95660   0.25000   0.28240   0.00000  Uiso   1.00
Zn751  Zn    0.75000   0.04340   0.71760   0.00000  Uiso   1.00
Zn752  Zn    0.75000   0.45660   0.28240   0.00000  Uiso   1.00
Zn753  Zn    0.79340  -0.00000   0.78240   0.00000  Uiso   1.00
Zn754  Zn    0.50000   0.20660   0.21760   0.00000  Uiso   1.00
Zn755  Zn    0.50000   0.29340   0.78240   0.00000  Uiso   1.00
Zn756  Zn    0.79340  -0.00000   0.21760   0.00000  Uiso   1.00
Zn757  Zn    0.70660  -0.00000   0.78240   0.00000  Uiso   1.00
Zn758  Zn    0.50000   0.29340   0.21760   0.00000  Uiso   1.00
Zn759  Zn    0.50000   0.20660   0.78240   0.00000  Uiso   1.00
Zn760  Zn    0.95660   0.25000   0.71760   0.00000  Uiso   1.00
C761   C     0.22928   0.52616   0.04234   0.00000  Uiso   1.00
C762   C     0.03327   0.75039   0.45920   0.00000  Uiso   1.00
C763   C     0.34814   0.90187   0.74999   0.00000  Uiso   1.00
C764   C     0.40187   0.65187   0.25000   0.00000  Uiso   1.00
C765   C     0.09814   0.84813   0.75000   0.00000  Uiso   1.00
C766   C     0.34814   0.90187   0.25001   0.00000  Uiso   1.00
C767   C     0.15186   0.59813   0.74999   0.00000  Uiso   1.00
C768   C     0.09813   0.65186   0.74999   0.00000  Uiso   1.00
C769   C     0.40187   0.84814   0.25001   0.00000  Uiso   1.00
C770   C     0.15187   0.90187   0.75000   0.00000  Uiso   1.00
C771   C     0.34813   0.59813   0.25000   0.00000  Uiso   1.00
C772   C     0.40187   0.84813   0.74999   0.00000  Uiso   1.00
C773   C     0.24952   0.96673   0.54080   0.00000  Uiso   1.00
C774   C     0.09813   0.65186   0.25001   0.00000  Uiso   1.00
C775   C     0.34813   0.59813   0.75000   0.00000  Uiso   1.00
C776   C     0.15187   0.90187   0.25000   0.00000  Uiso   1.00
C777   C     0.25000   0.50000   0.10283   0.00000  Uiso   1.00
C778   C     0.25000   0.50000   0.89817   0.00000  Uiso   1.00
C779   C     0.00000   0.75000   0.10183   0.00000  Uiso   1.00
C780   C    -0.00000   0.75000   0.89712   0.00000  Uiso   1.00
C781   C     0.00000   0.75000   0.60288   0.00000  Uiso   1.00
C782   C    -0.00000   0.75000   0.39817   0.00000  Uiso   1.00
C783   C     0.25000   0.50000   0.60183   0.00000  Uiso   1.00
C784   C     0.22267   0.51914   0.45759   0.00000  Uiso   1.00
C785   C     0.25000   0.50000   0.39712   0.00000  Uiso   1.00
C786   C     0.23096   0.58294   0.01596   0.00000  Uiso   1.00
C787   C     0.32432   0.54150   0.98596   0.00000  Uiso   1.00
C788   C     0.46344   0.67314   0.01403   0.00000  Uiso   1.00
C789   C     0.41607   0.76388   0.98396   0.00000  Uiso   1.00
C790   C     0.26904   0.91705   0.01597   0.00000  Uiso   1.00
C791   C     0.17568   0.95850   0.98597   0.00000  Uiso   1.00
C792   C     0.03657   0.82686   0.01402   0.00000  Uiso   1.00
C793   C     0.08393   0.73612   0.98395   0.00000  Uiso   1.00
C794   C     0.48618   0.83394   0.51605   0.00000  Uiso   1.00
C795   C     0.01908   0.72262   0.54242   0.00000  Uiso   1.00
C796   C     0.07690   0.78650   0.48597   0.00000  Uiso   1.00
C797   C     0.21331   0.92320   0.51403   0.00000  Uiso   1.00
C798   C     0.16609   0.51402   0.48395   0.00000  Uiso   1.00
C799   C     0.01382   0.66606   0.51605   0.00000  Uiso   1.00
C800   C     0.42310   0.71350   0.48598   0.00000  Uiso   1.00
C801   C     0.28669   0.57680   0.51402   0.00000  Uiso   1.00
C802   C     0.33391   0.98598   0.48395   0.00000  Uiso   1.00
C803   C     0.16949   0.53840   0.10138   0.00000  Uiso   1.00
C804   C     0.33008   0.96441   0.89852   0.00000  Uiso   1.00
C805   C     0.04094   0.67283   0.10192   0.00000  Uiso   1.00
C806   C     0.46673   0.74960   0.45920   0.00000  Uiso   1.00
C807   C     0.45701   0.82806   0.89842   0.00000  Uiso   1.00
C808   C     0.33051   0.96160   0.10138   0.00000  Uiso   1.00
C809   C     0.16992   0.53559   0.89852   0.00000  Uiso   1.00
C810   C     0.45906   0.82717   0.10192   0.00000  Uiso   1.00
C811   C     0.04299   0.67194   0.89842   0.00000  Uiso   1.00
C812   C     0.42197   0.79305   0.60158   0.00000  Uiso   1.00
C813   C     0.07714   0.70899   0.39808   0.00000  Uiso   1.00
C814   C     0.29081   0.92275   0.60190   0.00000  Uiso   1.00
C815   C     0.20712   0.57813   0.39843   0.00000  Uiso   1.00
C816   C     0.07803   0.70695   0.60158   0.00000  Uiso   1.00
C817   C     0.25048   0.53327   0.54080   0.00000  Uiso   1.00
C818   C     0.42286   0.79101   0.39808   0.00000  Uiso   1.00
C819   C     0.20919   0.57725   0.60190   0.00000  Uiso   1.00
C820   C     0.29287   0.92187   0.39843   0.00000  Uiso   1.00
C821   C     0.27733   0.98086   0.45759   0.00000  Uiso   1.00
C822   C     0.22732   0.52444   0.08272   0.00000  Uiso   1.00
C823   C     0.28334   0.50011   0.91885   0.00000  Uiso   1.00
C824   C     0.00203   0.71673   0.08114   0.00000  Uiso   1.00
C825   C     0.28317   0.50257   0.95920   0.00000  Uiso   1.00
C826   C     0.47426   0.77117   0.91720   0.00000  Uiso   1.00
C827   C     0.27268   0.97556   0.08272   0.00000  Uiso   1.00
C828   C     0.21666   0.99989   0.91885   0.00000  Uiso   1.00
C829   C     0.49797   0.78327   0.08114   0.00000  Uiso   1.00
C830   C     0.02574   0.72883   0.91720   0.00000  Uiso   1.00
C831   C     0.47884   0.77576   0.58280   0.00000  Uiso   1.00
C832   C     0.03327   0.74794   0.41886   0.00000  Uiso   1.00
C833   C     0.25198   0.96672   0.58114   0.00000  Uiso   1.00
C834   C     0.22429   0.52121   0.41720   0.00000  Uiso   1.00
C835   C     0.02116   0.72424   0.58280   0.00000  Uiso   1.00
C836   C     0.49958   0.71673   0.04080   0.00000  Uiso   1.00
C837   C     0.46673   0.75206   0.41886   0.00000  Uiso   1.00
C838   C     0.24802   0.53328   0.58114   0.00000  Uiso   1.00
C839   C     0.27571   0.97878   0.41720   0.00000  Uiso   1.00
C840   C     0.25000   0.50000   0.02201   0.00000  Uiso   1.00
C841   C     0.25000   0.50000   0.97950   0.00000  Uiso   1.00
C842   C     0.00000   0.75000   0.02047   0.00000  Uiso   1.00
C843   C     0.00000   0.75000   0.97794   0.00000  Uiso   1.00
C844   C    -0.00000   0.75000   0.52206   0.00000  Uiso   1.00
C845   C    -0.00000   0.75000   0.47953   0.00000  Uiso   1.00
C846   C     0.25000   0.50000   0.52047   0.00000  Uiso   1.00
C847   C     0.47264   0.76910   0.95759   0.00000  Uiso   1.00
C848   C     0.25000   0.50000   0.47794   0.00000  Uiso   1.00
C849   C     0.25000   0.50000   0.35502   0.00000  Uiso   1.00
C850   C     0.25000   0.50000   0.64460   0.00000  Uiso   1.00
C851   C    -0.00000   0.75000   0.35540   0.00000  Uiso   1.00
C852   C     0.00000   0.75000   0.64498   0.00000  Uiso   1.00
C853   C    -0.00000   0.75000   0.85502   0.00000  Uiso   1.00
C854   C     0.00000   0.75000   0.14460   0.00000  Uiso   1.00
C855   C     0.25000   0.50000   0.85540   0.00000  Uiso   1.00
C856   C     0.25000   0.50000   0.14496   0.00000  Uiso   1.00
C857   C     0.17993   0.57006   0.25000   0.00000  Uiso   1.00
C858   C     0.27072   0.97384   0.04234   0.00000  Uiso   1.00
C859   C     0.32007   0.92993   0.75000   0.00000  Uiso   1.00
C860   C     0.42993   0.67993   0.25000   0.00000  Uiso   1.00
C861   C     0.07007   0.82007   0.75000   0.00000  Uiso   1.00
C862   C     0.32007   0.92993   0.25000   0.00000  Uiso   1.00
C863   C     0.17993   0.57006   0.75000   0.00000  Uiso   1.00
C864   C     0.07007   0.82007   0.25000   0.00000  Uiso   1.00
C865   C     0.42993   0.67993   0.75000   0.00000  Uiso   1.00
C866   C     0.17993   0.92993   0.75000   0.00000  Uiso   1.00
C867   C     0.32007   0.57007   0.25000   0.00000  Uiso   1.00
C868   C     0.42993   0.82007   0.75000   0.00000  Uiso   1.00
C869   C     0.21683   0.99743   0.95920   0.00000  Uiso   1.00
C870   C     0.07007   0.67993   0.25000   0.00000  Uiso   1.00
C871   C     0.32007   0.57007   0.75000   0.00000  Uiso   1.00
C872   C     0.17993   0.92993   0.25000   0.00000  Uiso   1.00
C873   C     0.07007   0.67993   0.75000   0.00000  Uiso   1.00
C874   C     0.42993   0.82007   0.25000   0.00000  Uiso   1.00
C875   C     0.12196   0.90477   0.22495   0.00000  Uiso   1.00
C876   C     0.37804   0.59523   0.77505   0.00000  Uiso   1.00
C877   C     0.09650   0.62324   0.22321   0.00000  Uiso   1.00
C878   C     0.40351   0.87676   0.77678   0.00000  Uiso   1.00
C879   C     0.37804   0.59523   0.22495   0.00000  Uiso   1.00
C880   C     0.00042   0.78327   0.04080   0.00000  Uiso   1.00
C881   C     0.12196   0.90477   0.77506   0.00000  Uiso   1.00
C882   C     0.40350   0.87676   0.22321   0.00000  Uiso   1.00
C883   C     0.09649   0.62323   0.77678   0.00000  Uiso   1.00
C884   C     0.12323   0.59649   0.77678   0.00000  Uiso   1.00
C885   C     0.37676   0.90350   0.22321   0.00000  Uiso   1.00
C886   C     0.09523   0.87804   0.77505   0.00000  Uiso   1.00
C887   C     0.40477   0.62196   0.22495   0.00000  Uiso   1.00
C888   C     0.37677   0.90351   0.77678   0.00000  Uiso   1.00
C889   C     0.12324   0.59650   0.22321   0.00000  Uiso   1.00
C890   C     0.40477   0.62196   0.77505   0.00000  Uiso   1.00
C891   C     0.02736   0.73090   0.95758   0.00000  Uiso   1.00
C892   C     0.09523   0.87804   0.22495   0.00000  Uiso   1.00
C893   C     0.37196   0.65477   0.72495   0.00000  Uiso   1.00
C894   C     0.12804   0.84523   0.27505   0.00000  Uiso   1.00
C895   C     0.34650   0.87324   0.72320   0.00000  Uiso   1.00
C896   C     0.15349   0.62675   0.27681   0.00000  Uiso   1.00
C897   C     0.12804   0.84523   0.72495   0.00000  Uiso   1.00
C898   C     0.37196   0.65477   0.27505   0.00000  Uiso   1.00
C899   C     0.15350   0.62675   0.72320   0.00000  Uiso   1.00
C900   C     0.34651   0.87325   0.27681   0.00000  Uiso   1.00
C901   C     0.37325   0.84651   0.27681   0.00000  Uiso   1.00
C902   C     0.48092   0.77738   0.54242   0.00000  Uiso   1.00
C903   C     0.12675   0.65349   0.72320   0.00000  Uiso   1.00
C904   C     0.34523   0.62804   0.27505   0.00000  Uiso   1.00
C905   C     0.15477   0.87196   0.72495   0.00000  Uiso   1.00
C906   C     0.12675   0.65349   0.27681   0.00000  Uiso   1.00
C907   C     0.37325   0.84651   0.72320   0.00000  Uiso   1.00
C908   C     0.15477   0.87196   0.27505   0.00000  Uiso   1.00
C909   C     0.34523   0.62804   0.72495   0.00000  Uiso   1.00
C910   C     0.09813   0.84813   0.25000   0.00000  Uiso   1.00
C911   C     0.40186   0.65187   0.75000   0.00000  Uiso   1.00
C912   C     0.15186   0.59813   0.25001   0.00000  Uiso   1.00
H913   H     0.11918   0.92764   0.20536   0.00000  Uiso   1.00
H914   H     0.37847   0.92532   0.20218   0.00000  Uiso   1.00
H915   H     0.44206   0.80653   0.11718   0.00000  Uiso   1.00
H916   H     0.44783   0.83247   0.07258   0.00000  Uiso   1.00
H917   H     0.06153   0.65698   0.87864   0.00000  Uiso   1.00
H918   H     0.01454   0.66672   0.88854   0.00000  Uiso   1.00
H919   H     0.04702   0.66063   0.92790   0.00000  Uiso   1.00
H920   H     0.40702   0.81160   0.62136   0.00000  Uiso   1.00
H921   H     0.41672   0.76461   0.61147   0.00000  Uiso   1.00
H922   H     0.41066   0.79708   0.57210   0.00000  Uiso   1.00
H923   H     0.10295   0.70716   0.38146   0.00000  Uiso   1.00
H924   H     0.05648   0.69201   0.38282   0.00000  Uiso   1.00
H925   H     0.07236   0.88081   0.79465   0.00000  Uiso   1.00
H926   H     0.08242   0.69776   0.42742   0.00000  Uiso   1.00
H927   H     0.29258   0.89694   0.61853   0.00000  Uiso   1.00
H928   H     0.30786   0.94336   0.61715   0.00000  Uiso   1.00
H929   H     0.30202   0.91742   0.57256   0.00000  Uiso   1.00
H930   H     0.18861   0.59312   0.37865   0.00000  Uiso   1.00
H931   H     0.23558   0.58331   0.38855   0.00000  Uiso   1.00
H932   H     0.20310   0.58944   0.42791   0.00000  Uiso   1.00
H933   H     0.09298   0.68840   0.62135   0.00000  Uiso   1.00
H934   H     0.08328   0.73539   0.61146   0.00000  Uiso   1.00
H935   H     0.08934   0.70292   0.57210   0.00000  Uiso   1.00
H936   H     0.42765   0.61918   0.20536   0.00000  Uiso   1.00
H937   H     0.39705   0.79284   0.38146   0.00000  Uiso   1.00
H938   H     0.44352   0.80798   0.38282   0.00000  Uiso   1.00
H939   H     0.41758   0.80224   0.42742   0.00000  Uiso   1.00
H940   H     0.20742   0.60306   0.61853   0.00000  Uiso   1.00
H941   H     0.19214   0.55664   0.61715   0.00000  Uiso   1.00
H942   H     0.19798   0.58258   0.57256   0.00000  Uiso   1.00
H943   H     0.31139   0.90688   0.37865   0.00000  Uiso   1.00
H944   H     0.26442   0.91669   0.38855   0.00000  Uiso   1.00
H945   H     0.29689   0.91056   0.42791   0.00000  Uiso   1.00
H946   H     0.37849   0.92534   0.79779   0.00000  Uiso   1.00
H947   H     0.12153   0.57468   0.20218   0.00000  Uiso   1.00
H948   H     0.42764   0.61919   0.79465   0.00000  Uiso   1.00
H949   H     0.07235   0.88082   0.20536   0.00000  Uiso   1.00
H950   H     0.36918   0.67764   0.70535   0.00000  Uiso   1.00
H951   H     0.13082   0.82235   0.29464   0.00000  Uiso   1.00
H952   H     0.32467   0.87153   0.70219   0.00000  Uiso   1.00
H953   H     0.38081   0.57236   0.79465   0.00000  Uiso   1.00
H954   H     0.17531   0.62845   0.29783   0.00000  Uiso   1.00
H955   H     0.13082   0.82236   0.70535   0.00000  Uiso   1.00
H956   H     0.36918   0.67764   0.29464   0.00000  Uiso   1.00
H957   H     0.17533   0.62847   0.70219   0.00000  Uiso   1.00
H958   H     0.32469   0.87155   0.29783   0.00000  Uiso   1.00
H959   H     0.37154   0.82469   0.29783   0.00000  Uiso   1.00
H960   H     0.12847   0.67532   0.70218   0.00000  Uiso   1.00
H961   H     0.32235   0.63082   0.29464   0.00000  Uiso   1.00
H962   H     0.17764   0.86919   0.70535   0.00000  Uiso   1.00
H963   H     0.12846   0.67531   0.29783   0.00000  Uiso   1.00
H964   H     0.07468   0.62153   0.20218   0.00000  Uiso   1.00
H965   H     0.37153   0.82468   0.70218   0.00000  Uiso   1.00
H966   H     0.17765   0.86918   0.29464   0.00000  Uiso   1.00
H967   H     0.32236   0.63081   0.70535   0.00000  Uiso   1.00
H968   H     0.25035   0.57748   0.99202   0.00000  Uiso   1.00
H969   H     0.24580   0.59212   0.04234   0.00000  Uiso   1.00
H970   H     0.21312   0.60576   0.00666   0.00000  Uiso   1.00
H971   H     0.30731   0.55206   0.01003   0.00000  Uiso   1.00
H972   H     0.32122   0.55893   0.95977   0.00000  Uiso   1.00
H973   H     0.35321   0.54338   0.99527   0.00000  Uiso   1.00
H974   H     0.45177   0.68950   0.99003   0.00000  Uiso   1.00
H975   H     0.42534   0.87848   0.79780   0.00000  Uiso   1.00
H976   H     0.44586   0.67499   0.04023   0.00000  Uiso   1.00
H977   H     0.46345   0.64422   0.00460   0.00000  Uiso   1.00
H978   H     0.42278   0.74482   0.00785   0.00000  Uiso   1.00
H979   H     0.40779   0.74855   0.95757   0.00000  Uiso   1.00
H980   H     0.39221   0.78025   0.99335   0.00000  Uiso   1.00
H981   H     0.24965   0.92251   0.99202   0.00000  Uiso   1.00
H982   H     0.25420   0.90788   0.04235   0.00000  Uiso   1.00
H983   H     0.28688   0.89424   0.00667   0.00000  Uiso   1.00
H984   H     0.19269   0.94794   0.01004   0.00000  Uiso   1.00
H985   H     0.17878   0.94107   0.95978   0.00000  Uiso   1.00
H986   H     0.38082   0.57236   0.20536   0.00000  Uiso   1.00
H987   H     0.14679   0.95662   0.99528   0.00000  Uiso   1.00
H988   H     0.04823   0.81049   0.99002   0.00000  Uiso   1.00
H989   H     0.05414   0.82501   0.04022   0.00000  Uiso   1.00
H990   H     0.03655   0.85578   0.00459   0.00000  Uiso   1.00
H991   H     0.07723   0.75518   0.00784   0.00000  Uiso   1.00
H992   H     0.09221   0.75145   0.95756   0.00000  Uiso   1.00
H993   H     0.10780   0.71975   0.99334   0.00000  Uiso   1.00
H994   H     0.00524   0.82722   0.49216   0.00000  Uiso   1.00
H995   H     0.00151   0.84221   0.54244   0.00000  Uiso   1.00
H996   H     0.46983   0.85781   0.50666   0.00000  Uiso   1.00
H997   H     0.11919   0.92764   0.79465   0.00000  Uiso   1.00
H998   H     0.06054   0.79818   0.50997   0.00000  Uiso   1.00
H999   H     0.07505   0.80408   0.45977   0.00000  Uiso   1.00
H1000  H     0.10581   0.78646   0.49540   0.00000  Uiso   1.00
H1001  H     0.20167   0.93958   0.49003   0.00000  Uiso   1.00
H1002  H     0.19573   0.92509   0.54023   0.00000  Uiso   1.00
H1003  H     0.21327   0.89428   0.50460   0.00000  Uiso   1.00
H1004  H     0.17276   0.99494   0.50784   0.00000  Uiso   1.00
H1005  H     0.15778   0.99871   0.45756   0.00000  Uiso   1.00
H1006  H     0.14225   0.53042   0.49334   0.00000  Uiso   1.00
H1007  H     0.49476   0.67277   0.49217   0.00000  Uiso   1.00
H1008  H     0.42532   0.87847   0.20218   0.00000  Uiso   1.00
H1009  H     0.49849   0.65779   0.54245   0.00000  Uiso   1.00
H1010  H     0.03017   0.64218   0.50666   0.00000  Uiso   1.00
H1011  H     0.43946   0.70182   0.50998   0.00000  Uiso   1.00
H1012  H     0.42495   0.69592   0.45978   0.00000  Uiso   1.00
H1013  H     0.39419   0.71354   0.49541   0.00000  Uiso   1.00
H1014  H     0.29833   0.56042   0.49002   0.00000  Uiso   1.00
H1015  H     0.30427   0.57491   0.54022   0.00000  Uiso   1.00
H1016  H     0.28673   0.60572   0.50460   0.00000  Uiso   1.00
H1017  H     0.32725   0.50506   0.50783   0.00000  Uiso   1.00
H1018  H     0.34222   0.50129   0.45755   0.00000  Uiso   1.00
H1019  H     0.07466   0.62152   0.79780   0.00000  Uiso   1.00
H1020  H     0.35775   0.96958   0.49334   0.00000  Uiso   1.00
H1021  H     0.15349   0.55596   0.12125   0.00000  Uiso   1.00
H1022  H     0.16590   0.50965   0.11111   0.00000  Uiso   1.00
H1023  H     0.15798   0.54192   0.07193   0.00000  Uiso   1.00
H1024  H     0.35582   0.96434   0.88167   0.00000  Uiso   1.00
H1025  H     0.31069   0.94565   0.88373   0.00000  Uiso   1.00
H1026  H     0.33646   0.95403   0.92796   0.00000  Uiso   1.00
H1027  H     0.04276   0.64702   0.11854   0.00000  Uiso   1.00
H1028  H     0.05794   0.69347   0.11718   0.00000  Uiso   1.00
H1029  H     0.05217   0.66753   0.07258   0.00000  Uiso   1.00
H1030  H     0.12151   0.57466   0.79779   0.00000  Uiso   1.00
H1031  H     0.43847   0.84302   0.87864   0.00000  Uiso   1.00
H1032  H     0.48545   0.83328   0.88854   0.00000  Uiso   1.00
H1033  H     0.45298   0.83937   0.92790   0.00000  Uiso   1.00
H1034  H     0.34652   0.94404   0.12125   0.00000  Uiso   1.00
H1035  H     0.33410   0.99035   0.11111   0.00000  Uiso   1.00
H1036  H     0.34202   0.95808   0.07192   0.00000  Uiso   1.00
H1037  H     0.14417   0.53566   0.88167   0.00000  Uiso   1.00
H1038  H     0.18931   0.55435   0.88373   0.00000  Uiso   1.00
H1039  H     0.16354   0.54597   0.92796   0.00000  Uiso   1.00
H1040  H     0.45724   0.85298   0.11854   0.00000  Uiso   1.00
O1041  O     0.25000   0.50000   0.25000   0.00000  Uiso   1.00
O1042  O     0.25000   0.96964   0.66317   0.00000  Uiso   1.00
O1043  O     0.46964   0.75000   0.33683   0.00000  Uiso   1.00
O1044  O     0.03036   0.75000   0.66317   0.00000  Uiso   1.00
O1045  O     0.00000   0.71964   0.83683   0.00000  Uiso   1.00
O1046  O     0.00000   0.78036   0.16317   0.00000  Uiso   1.00
O1047  O     0.28036   0.50000   0.83683   0.00000  Uiso   1.00
O1048  O     0.21964   0.50000   0.16317   0.00000  Uiso   1.00
O1049  O     0.00000   0.78036   0.83683   0.00000  Uiso   1.00
O1050  O     0.00000   0.71964   0.16317   0.00000  Uiso   1.00
O1051  O     0.21964   0.50000   0.83683   0.00000  Uiso   1.00
O1052  O     0.25000   0.50000   0.75000   0.00000  Uiso   1.00
O1053  O     0.28036   0.50000   0.16317   0.00000  Uiso   1.00
O1054  O     0.20725   0.57307   0.27282   0.00000  Uiso   1.00
O1055  O     0.29274   0.92693   0.72718   0.00000  Uiso   1.00
O1056  O     0.42693   0.70725   0.27282   0.00000  Uiso   1.00
O1057  O     0.07307   0.79274   0.72718   0.00000  Uiso   1.00
O1058  O     0.29274   0.92693   0.27282   0.00000  Uiso   1.00
O1059  O     0.20725   0.57307   0.72718   0.00000  Uiso   1.00
O1060  O     0.07307   0.79274   0.27282   0.00000  Uiso   1.00
O1061  O     0.42693   0.70725   0.72718   0.00000  Uiso   1.00
O1062  O     0.20725   0.92693   0.72718   0.00000  Uiso   1.00
O1063  O     0.00000   0.75000   0.25000   0.00000  Uiso   1.00
O1064  O     0.29274   0.57307   0.27282   0.00000  Uiso   1.00
O1065  O     0.42693   0.79274   0.72718   0.00000  Uiso   1.00
O1066  O     0.07307   0.70725   0.27282   0.00000  Uiso   1.00
O1067  O     0.29274   0.57307   0.72718   0.00000  Uiso   1.00
O1068  O     0.20725   0.92693   0.27282   0.00000  Uiso   1.00
O1069  O     0.07307   0.70725   0.72718   0.00000  Uiso   1.00
O1070  O     0.42693   0.79274   0.27282   0.00000  Uiso   1.00
O1071  O     0.45725   0.82307   0.77282   0.00000  Uiso   1.00
O1072  O     0.04274   0.67693   0.22718   0.00000  Uiso   1.00
O1073  O     0.17693   0.95725   0.77282   0.00000  Uiso   1.00
O1074  O     0.00000   0.75000   0.75000   0.00000  Uiso   1.00
O1075  O     0.32307   0.54274   0.22718   0.00000  Uiso   1.00
O1076  O     0.04274   0.67693   0.77282   0.00000  Uiso   1.00
O1077  O     0.45725   0.82307   0.22718   0.00000  Uiso   1.00
O1078  O     0.32307   0.54274   0.77282   0.00000  Uiso   1.00
O1079  O     0.17693   0.95725   0.22718   0.00000  Uiso   1.00
O1080  O     0.45725   0.67693   0.22718   0.00000  Uiso   1.00
O1081  O     0.04274   0.82307   0.77282   0.00000  Uiso   1.00
O1082  O     0.17693   0.54274   0.22718   0.00000  Uiso   1.00
O1083  O     0.32307   0.95725   0.77282   0.00000  Uiso   1.00
O1084  O     0.04274   0.82307   0.22718   0.00000  Uiso   1.00
O1085  O     0.25000   0.96964   0.33683   0.00000  Uiso   1.00
O1086  O     0.45725   0.67693   0.77282   0.00000  Uiso   1.00
O1087  O     0.32307   0.95725   0.22718   0.00000  Uiso   1.00
O1088  O     0.17693   0.54274   0.77282   0.00000  Uiso   1.00
O1089  O     0.20892   0.55216   0.02294   0.00000  Uiso   1.00
O1090  O     0.31614   0.50460   0.97859   0.00000  Uiso   1.00
O1091  O     0.49973   0.68369   0.02143   0.00000  Uiso   1.00
O1092  O     0.44541   0.78781   0.97695   0.00000  Uiso   1.00
O1093  O     0.29108   0.94784   0.02294   0.00000  Uiso   1.00
O1094  O     0.18386   0.99540   0.97859   0.00000  Uiso   1.00
O1095  O     0.00028   0.81631   0.02143   0.00000  Uiso   1.00
O1096  O     0.25000   0.53036   0.66317   0.00000  Uiso   1.00
O1097  O     0.05460   0.71219   0.97695   0.00000  Uiso   1.00
O1098  O     0.46223   0.80462   0.52305   0.00000  Uiso   1.00
O1099  O     0.06631   0.75022   0.47857   0.00000  Uiso   1.00
O1100  O     0.24961   0.93369   0.52143   0.00000  Uiso   1.00
O1101  O     0.19547   0.53790   0.47696   0.00000  Uiso   1.00
O1102  O     0.03777   0.69538   0.52305   0.00000  Uiso   1.00
O1103  O     0.43369   0.74978   0.47857   0.00000  Uiso   1.00
O1104  O     0.25039   0.56631   0.52143   0.00000  Uiso   1.00
O1105  O     0.30453   0.96210   0.47696   0.00000  Uiso   1.00
O1106  O     0.20635   0.54944   0.10287   0.00000  Uiso   1.00
O1107  O     0.03036   0.75000   0.33683   0.00000  Uiso   1.00
O1108  O     0.31652   0.50042   0.89979   0.00000  Uiso   1.00
O1109  O     0.00402   0.68361   0.10019   0.00000  Uiso   1.00
O1110  O     0.44809   0.79063   0.89701   0.00000  Uiso   1.00
O1111  O     0.29365   0.95056   0.10287   0.00000  Uiso   1.00
O1112  O     0.18348   0.99958   0.89979   0.00000  Uiso   1.00
O1113  O     0.49599   0.81639   0.10019   0.00000  Uiso   1.00
O1114  O     0.05191   0.70936   0.89701   0.00000  Uiso   1.00
O1115  O     0.45940   0.80194   0.60300   0.00000  Uiso   1.00
O1116  O     0.06639   0.74593   0.39981   0.00000  Uiso   1.00
O1117  O     0.25391   0.93360   0.60019   0.00000  Uiso   1.00
O1118  O     0.46964   0.75000   0.66317   0.00000  Uiso   1.00
O1119  O     0.19815   0.54071   0.39701   0.00000  Uiso   1.00
O1120  O     0.04060   0.69806   0.60300   0.00000  Uiso   1.00
O1121  O     0.43361   0.75407   0.39981   0.00000  Uiso   1.00
O1122  O     0.24609   0.56640   0.60019   0.00000  Uiso   1.00
O1123  O     0.30185   0.95928   0.39701   0.00000  Uiso   1.00
O1124  O     0.25000   0.53036   0.33683   0.00000  Uiso   1.00
Zn1125 Zn    0.20660   0.50000   0.21760   0.00000  Uiso   1.00
Zn1126 Zn    0.04340   0.75000   0.28240   0.00000  Uiso   1.00
Zn1127 Zn    0.25000   0.95660   0.71760   0.00000  Uiso   1.00
Zn1128 Zn    0.25000   0.54340   0.28240   0.00000  Uiso   1.00
Zn1129 Zn    0.04340   0.75000   0.71760   0.00000  Uiso   1.00
Zn1130 Zn    0.45660   0.75000   0.28240   0.00000  Uiso   1.00
Zn1131 Zn    0.25000   0.54340   0.71760   0.00000  Uiso   1.00
Zn1132 Zn    0.25000   0.95660   0.28240   0.00000  Uiso   1.00
Zn1133 Zn    0.29340   0.50000   0.78240   0.00000  Uiso   1.00
Zn1134 Zn    0.00000   0.70660   0.21760   0.00000  Uiso   1.00
Zn1135 Zn   -0.00000   0.79340   0.78240   0.00000  Uiso   1.00
Zn1136 Zn    0.29340   0.50000   0.21760   0.00000  Uiso   1.00
Zn1137 Zn    0.20660   0.50000   0.78240   0.00000  Uiso   1.00
Zn1138 Zn   -0.00000   0.79340   0.21760   0.00000  Uiso   1.00
Zn1139 Zn    0.00000   0.70660   0.78240   0.00000  Uiso   1.00
Zn1140 Zn    0.45660   0.75000   0.71760   0.00000  Uiso   1.00
C1141  C     0.72928   0.52616   0.04234   0.00000  Uiso   1.00
C1142  C     0.53327   0.75039   0.45920   0.00000  Uiso   1.00
C1143  C     0.84814   0.90187   0.74999   0.00000  Uiso   1.00
C1144  C     0.90187   0.65187   0.25000   0.00000  Uiso   1.00
C1145  C     0.59814   0.84813   0.75000   0.00000  Uiso   1.00
C1146  C     0.84814   0.90187   0.25001   0.00000  Uiso   1.00
C1147  C     0.65186   0.59813   0.74999   0.00000  Uiso   1.00
C1148  C     0.59813   0.65186   0.74999   0.00000  Uiso   1.00
C1149  C     0.90187   0.84814   0.25001   0.00000  Uiso   1.00
C1150  C     0.65187   0.90187   0.75000   0.00000  Uiso   1.00
C1151  C     0.84813   0.59813   0.25000   0.00000  Uiso   1.00
C1152  C     0.90187   0.84813   0.74999   0.00000  Uiso   1.00
C1153  C     0.74952   0.96673   0.54080   0.00000  Uiso   1.00
C1154  C     0.59813   0.65186   0.25001   0.00000  Uiso   1.00
C1155  C     0.84813   0.59813   0.75000   0.00000  Uiso   1.00
C1156  C     0.65187   0.90187   0.25000   0.00000  Uiso   1.00
C1157  C     0.75000   0.50000   0.10283   0.00000  Uiso   1.00
C1158  C     0.75000   0.50000   0.89817   0.00000  Uiso   1.00
C1159  C     0.50000   0.75000   0.10183   0.00000  Uiso   1.00
C1160  C     0.50000   0.75000   0.89712   0.00000  Uiso   1.00
C1161  C     0.50000   0.75000   0.60288   0.00000  Uiso   1.00
C1162  C     0.50000   0.75000   0.39817   0.00000  Uiso   1.00
C1163  C     0.75000   0.50000   0.60183   0.00000  Uiso   1.00
C1164  C     0.72267   0.51914   0.45759   0.00000  Uiso   1.00
C1165  C     0.75000   0.50000   0.39712   0.00000  Uiso   1.00
C1166  C     0.73096   0.58294   0.01596   0.00000  Uiso   1.00
C1167  C     0.82432   0.54150   0.98596   0.00000  Uiso   1.00
C1168  C     0.96344   0.67314   0.01403   0.00000  Uiso   1.00
C1169  C     0.91607   0.76388   0.98396   0.00000  Uiso   1.00
C1170  C     0.76904   0.91705   0.01597   0.00000  Uiso   1.00
C1171  C     0.67568   0.95850   0.98597   0.00000  Uiso   1.00
C1172  C     0.53657   0.82686   0.01402   0.00000  Uiso   1.00
C1173  C     0.58393   0.73612   0.98395   0.00000  Uiso   1.00
C1174  C     0.98618   0.83394   0.51605   0.00000  Uiso   1.00
C1175  C     0.51908   0.72262   0.54242   0.00000  Uiso   1.00
C1176  C     0.57690   0.78650   0.48597   0.00000  Uiso   1.00
C1177  C     0.71331   0.92320   0.51403   0.00000  Uiso   1.00
C1178  C     0.66609   0.51402   0.48395   0.00000  Uiso   1.00
C1179  C     0.51382   0.66606   0.51605   0.00000  Uiso   1.00
C1180  C     0.92310   0.71350   0.48598   0.00000  Uiso   1.00
C1181  C     0.78669   0.57680   0.51402   0.00000  Uiso   1.00
C1182  C     0.83391   0.98598   0.48395   0.00000  Uiso   1.00
C1183  C     0.66949   0.53840   0.10138   0.00000  Uiso   1.00
C1184  C     0.83008   0.96441   0.89852   0.00000  Uiso   1.00
C1185  C     0.54094   0.67283   0.10192   0.00000  Uiso   1.00
C1186  C     0.96673   0.74960   0.45920   0.00000  Uiso   1.00
C1187  C     0.95701   0.82806   0.89842   0.00000  Uiso   1.00
C1188  C     0.83051   0.96160   0.10138   0.00000  Uiso   1.00
C1189  C     0.66992   0.53559   0.89852   0.00000  Uiso   1.00
C1190  C     0.95906   0.82717   0.10192   0.00000  Uiso   1.00
C1191  C     0.54299   0.67194   0.89842   0.00000  Uiso   1.00
C1192  C     0.92197   0.79305   0.60158   0.00000  Uiso   1.00
C1193  C     0.57714   0.70899   0.39808   0.00000  Uiso   1.00
C1194  C     0.79081   0.92275   0.60190   0.00000  Uiso   1.00
C1195  C     0.70712   0.57813   0.39843   0.00000  Uiso   1.00
C1196  C     0.57803   0.70695   0.60158   0.00000  Uiso   1.00
C1197  C     0.75048   0.53327   0.54080   0.00000  Uiso   1.00
C1198  C     0.92286   0.79101   0.39808   0.00000  Uiso   1.00
C1199  C     0.70919   0.57725   0.60190   0.00000  Uiso   1.00
C1200  C     0.79287   0.92187   0.39843   0.00000  Uiso   1.00
C1201  C     0.77733   0.98086   0.45759   0.00000  Uiso   1.00
C1202  C     0.72732   0.52444   0.08272   0.00000  Uiso   1.00
C1203  C     0.78334   0.50011   0.91885   0.00000  Uiso   1.00
C1204  C     0.50203   0.71673   0.08114   0.00000  Uiso   1.00
C1205  C     0.78317   0.50257   0.95920   0.00000  Uiso   1.00
C1206  C     0.97426   0.77117   0.91720   0.00000  Uiso   1.00
C1207  C     0.77268   0.97556   0.08272   0.00000  Uiso   1.00
C1208  C     0.71666   0.99989   0.91885   0.00000  Uiso   1.00
C1209  C     0.99797   0.78327   0.08114   0.00000  Uiso   1.00
C1210  C     0.52574   0.72883   0.91720   0.00000  Uiso   1.00
C1211  C     0.97884   0.77576   0.58280   0.00000  Uiso   1.00
C1212  C     0.53327   0.74794   0.41886   0.00000  Uiso   1.00
C1213  C     0.75198   0.96672   0.58114   0.00000  Uiso   1.00
C1214  C     0.72429   0.52121   0.41720   0.00000  Uiso   1.00
C1215  C     0.52116   0.72424   0.58280   0.00000  Uiso   1.00
C1216  C     0.99958   0.71673   0.04080   0.00000  Uiso   1.00
C1217  C     0.96673   0.75206   0.41886   0.00000  Uiso   1.00
C1218  C     0.74802   0.53328   0.58114   0.00000  Uiso   1.00
C1219  C     0.77571   0.97878   0.41720   0.00000  Uiso   1.00
C1220  C     0.75000   0.50000   0.02201   0.00000  Uiso   1.00
C1221  C     0.75000   0.50000   0.97950   0.00000  Uiso   1.00
C1222  C     0.50000   0.75000   0.02047   0.00000  Uiso   1.00
C1223  C     0.50000   0.75000   0.97794   0.00000  Uiso   1.00
C1224  C     0.50000   0.75000   0.52206   0.00000  Uiso   1.00
C1225  C     0.50000   0.75000   0.47953   0.00000  Uiso   1.00
C1226  C     0.75000   0.50000   0.52047   0.00000  Uiso   1.00
C1227  C     0.97264   0.76910   0.95759   0.00000  Uiso   1.00
C1228  C     0.75000   0.50000   0.47794   0.00000  Uiso   1.00
C1229  C     0.75000   0.50000   0.35502   0.00000  Uiso   1.00
C1230  C     0.75000   0.50000   0.64460   0.00000  Uiso   1.00
C1231  C     0.50000   0.75000   0.35540   0.00000  Uiso   1.00
C1232  C     0.50000   0.75000   0.64498   0.00000  Uiso   1.00
C1233  C     0.50000   0.75000   0.85502   0.00000  Uiso   1.00
C1234  C     0.50000   0.75000   0.14460   0.00000  Uiso   1.00
C1235  C     0.75000   0.50000   0.85540   0.00000  Uiso   1.00
C1236  C     0.75000   0.50000   0.14496   0.00000  Uiso   1.00
C1237  C     0.67993   0.57006   0.25000   0.00000  Uiso   1.00
C1238  C     0.77072   0.97384   0.04234   0.00000  Uiso   1.00
C1239  C     0.82007   0.92993   0.75000   0.00000  Uiso   1.00
C1240  C     0.92993   0.67993   0.25000   0.00000  Uiso   1.00
C1241  C     0.57007   0.82007   0.75000   0.00000  Uiso   1.00
C1242  C     0.82007   0.92993   0.25000   0.00000  Uiso   1.00
C1243  C     0.67993   0.57006   0.75000   0.00000  Uiso   1.00
C1244  C     0.57007   0.82007   0.25000   0.00000  Uiso   1.00
C1245  C     0.92993   0.67993   0.75000   0.00000  Uiso   1.00
C1246  C     0.67993   0.92993   0.75000   0.00000  Uiso   1.00
C1247  C     0.82007   0.57007   0.25000   0.00000  Uiso   1.00
C1248  C     0.92993   0.82007   0.75000   0.00000  Uiso   1.00
C1249  C     0.71683   0.99743   0.95920   0.00000  Uiso   1.00
C1250  C     0.57007   0.67993   0.25000   0.00000  Uiso   1.00
C1251  C     0.82007   0.57007   0.75000   0.00000  Uiso   1.00
C1252  C     0.67993   0.92993   0.25000   0.00000  Uiso   1.00
C1253  C     0.57007   0.67993   0.75000   0.00000  Uiso   1.00
C1254  C     0.92993   0.82007   0.25000   0.00000  Uiso   1.00
C1255  C     0.62196   0.90477   0.22495   0.00000  Uiso   1.00
C1256  C     0.87804   0.59523   0.77505   0.00000  Uiso   1.00
C1257  C     0.59650   0.62324   0.22321   0.00000  Uiso   1.00
C1258  C     0.90351   0.87676   0.77678   0.00000  Uiso   1.00
C1259  C     0.87804   0.59523   0.22495   0.00000  Uiso   1.00
C1260  C     0.50042   0.78327   0.04080   0.00000  Uiso   1.00
C1261  C     0.62196   0.90477   0.77506   0.00000  Uiso   1.00
C1262  C     0.90350   0.87676   0.22321   0.00000  Uiso   1.00
C1263  C     0.59649   0.62323   0.77678   0.00000  Uiso   1.00
C1264  C     0.62323   0.59649   0.77678   0.00000  Uiso   1.00
C1265  C     0.87676   0.90350   0.22321   0.00000  Uiso   1.00
C1266  C     0.59523   0.87804   0.77505   0.00000  Uiso   1.00
C1267  C     0.90477   0.62196   0.22495   0.00000  Uiso   1.00
C1268  C     0.87677   0.90351   0.77678   0.00000  Uiso   1.00
C1269  C     0.62324   0.59650   0.22321   0.00000  Uiso   1.00
C1270  C     0.90477   0.62196   0.77505   0.00000  Uiso   1.00
C1271  C     0.52736   0.73090   0.95758   0.00000  Uiso   1.00
C1272  C     0.59523   0.87804   0.22495   0.00000  Uiso   1.00
C1273  C     0.87196   0.65477   0.72495   0.00000  Uiso   1.00
C1274  C     0.62804   0.84523   0.27505   0.00000  Uiso   1.00
C1275  C     0.84650   0.87324   0.72320   0.00000  Uiso   1.00
C1276  C     0.65349   0.62675   0.27681   0.00000  Uiso   1.00
C1277  C     0.62804   0.84523   0.72495   0.00000  Uiso   1.00
C1278  C     0.87196   0.65477   0.27505   0.00000  Uiso   1.00
C1279  C     0.65350   0.62675   0.72320   0.00000  Uiso   1.00
C1280  C     0.84651   0.87325   0.27681   0.00000  Uiso   1.00
C1281  C     0.87325   0.84651   0.27681   0.00000  Uiso   1.00
C1282  C     0.98092   0.77738   0.54242   0.00000  Uiso   1.00
C1283  C     0.62675   0.65349   0.72320   0.00000  Uiso   1.00
C1284  C     0.84523   0.62804   0.27505   0.00000  Uiso   1.00
C1285  C     0.65477   0.87196   0.72495   0.00000  Uiso   1.00
C1286  C     0.62675   0.65349   0.27681   0.00000  Uiso   1.00
C1287  C     0.87325   0.84651   0.72320   0.00000  Uiso   1.00
C1288  C     0.65477   0.87196   0.27505   0.00000  Uiso   1.00
C1289  C     0.84523   0.62804   0.72495   0.00000  Uiso   1.00
C1290  C     0.59813   0.84813   0.25000   0.00000  Uiso   1.00
C1291  C     0.90186   0.65187   0.75000   0.00000  Uiso   1.00
C1292  C     0.65186   0.59813   0.25001   0.00000  Uiso   1.00
H1293  H     0.61918   0.92764   0.20536   0.00000  Uiso   1.00
H1294  H     0.87847   0.92532   0.20218   0.00000  Uiso   1.00
H1295  H     0.94206   0.80653   0.11718   0.00000  Uiso   1.00
H1296  H     0.94783   0.83247   0.07258   0.00000  Uiso   1.00
H1297  H     0.56153   0.65698   0.87864   0.00000  Uiso   1.00
H1298  H     0.51454   0.66672   0.88854   0.00000  Uiso   1.00
H1299  H     0.54702   0.66063   0.92790   0.00000  Uiso   1.00
H1300  H     0.90702   0.81160   0.62136   0.00000  Uiso   1.00
H1301  H     0.91672   0.76461   0.61147   0.00000  Uiso   1.00
H1302  H     0.91066   0.79708   0.57210   0.00000  Uiso   1.00
H1303  H     0.60295   0.70716   0.38146   0.00000  Uiso   1.00
H1304  H     0.55648   0.69201   0.38282   0.00000  Uiso   1.00
H1305  H     0.57236   0.88081   0.79465   0.00000  Uiso   1.00
H1306  H     0.58242   0.69776   0.42742   0.00000  Uiso   1.00
H1307  H     0.79258   0.89694   0.61853   0.00000  Uiso   1.00
H1308  H     0.80786   0.94336   0.61715   0.00000  Uiso   1.00
H1309  H     0.80202   0.91742   0.57256   0.00000  Uiso   1.00
H1310  H     0.68861   0.59312   0.37865   0.00000  Uiso   1.00
H1311  H     0.73558   0.58331   0.38855   0.00000  Uiso   1.00
H1312  H     0.70310   0.58944   0.42791   0.00000  Uiso   1.00
H1313  H     0.59298   0.68840   0.62135   0.00000  Uiso   1.00
H1314  H     0.58328   0.73539   0.61146   0.00000  Uiso   1.00
H1315  H     0.58934   0.70292   0.57210   0.00000  Uiso   1.00
H1316  H     0.92765   0.61918   0.20536   0.00000  Uiso   1.00
H1317  H     0.89705   0.79284   0.38146   0.00000  Uiso   1.00
H1318  H     0.94352   0.80798   0.38282   0.00000  Uiso   1.00
H1319  H     0.91758   0.80224   0.42742   0.00000  Uiso   1.00
H1320  H     0.70742   0.60306   0.61853   0.00000  Uiso   1.00
H1321  H     0.69214   0.55664   0.61715   0.00000  Uiso   1.00
H1322  H     0.69798   0.58258   0.57256   0.00000  Uiso   1.00
H1323  H     0.81139   0.90688   0.37865   0.00000  Uiso   1.00
H1324  H     0.76442   0.91669   0.38855   0.00000  Uiso   1.00
H1325  H     0.79689   0.91056   0.42791   0.00000  Uiso   1.00
H1326  H     0.87849   0.92534   0.79779   0.00000  Uiso   1.00
H1327  H     0.62153   0.57468   0.20218   0.00000  Uiso   1.00
H1328  H     0.92764   0.61919   0.79465   0.00000  Uiso   1.00
H1329  H     0.57235   0.88082   0.20536   0.00000  Uiso   1.00
H1330  H     0.86918   0.67764   0.70535   0.00000  Uiso   1.00
H1331  H     0.63082   0.82235   0.29464   0.00000  Uiso   1.00
H1332  H     0.82467   0.87153   0.70219   0.00000  Uiso   1.00
H1333  H     0.88081   0.57236   0.79465   0.00000  Uiso   1.00
H1334  H     0.67531   0.62845   0.29783   0.00000  Uiso   1.00
H1335  H     0.63082   0.82236   0.70535   0.00000  Uiso   1.00
H1336  H     0.86918   0.67764   0.29464   0.00000  Uiso   1.00
H1337  H     0.67533   0.62847   0.70219   0.00000  Uiso   1.00
H1338  H     0.82469   0.87155   0.29783   0.00000  Uiso   1.00
H1339  H     0.87154   0.82469   0.29783   0.00000  Uiso   1.00
H1340  H     0.62847   0.67532   0.70218   0.00000  Uiso   1.00
H1341  H     0.82235   0.63082   0.29464   0.00000  Uiso   1.00
H1342  H     0.67764   0.86919   0.70535   0.00000  Uiso   1.00
H1343  H     0.62846   0.67531   0.29783   0.00000  Uiso   1.00
H1344  H     0.57468   0.62153   0.20218   0.00000  Uiso   1.00
H1345  H     0.87153   0.82468   0.70218   0.00000  Uiso   1.00
H1346  H     0.67765   0.86918   0.29464   0.00000  Uiso   1.00
H1347  H     0.82236   0.63081   0.70535   0.00000  Uiso   1.00
H1348  H     0.75035   0.57748   0.99202   0.00000  Uiso   1.00
H1349  H     0.74580   0.59212   0.04234   0.00000  Uiso   1.00
H1350  H     0.71312   0.60576   0.00666   0.00000  Uiso   1.00
H1351  H     0.80731   0.55206   0.01003   0.00000  Uiso   1.00
H1352  H     0.82122   0.55893   0.95977   0.00000  Uiso   1.00
H1353  H     0.85321   0.54338   0.99527   0.00000  Uiso   1.00
H1354  H     0.95177   0.68950   0.99003   0.00000  Uiso   1.00
H1355  H     0.92534   0.87848   0.79780   0.00000  Uiso   1.00
H1356  H     0.94586   0.67499   0.04023   0.00000  Uiso   1.00
H1357  H     0.96345   0.64422   0.00460   0.00000  Uiso   1.00
H1358  H     0.92278   0.74482   0.00785   0.00000  Uiso   1.00
H1359  H     0.90779   0.74855   0.95757   0.00000  Uiso   1.00
H1360  H     0.89221   0.78025   0.99335   0.00000  Uiso   1.00
H1361  H     0.74965   0.92251   0.99202   0.00000  Uiso   1.00
H1362  H     0.75420   0.90788   0.04235   0.00000  Uiso   1.00
H1363  H     0.78688   0.89424   0.00667   0.00000  Uiso   1.00
H1364  H     0.69269   0.94794   0.01004   0.00000  Uiso   1.00
H1365  H     0.67878   0.94107   0.95978   0.00000  Uiso   1.00
H1366  H     0.88082   0.57236   0.20536   0.00000  Uiso   1.00
H1367  H     0.64679   0.95662   0.99528   0.00000  Uiso   1.00
H1368  H     0.54823   0.81049   0.99002   0.00000  Uiso   1.00
H1369  H     0.55414   0.82501   0.04022   0.00000  Uiso   1.00
H1370  H     0.53655   0.85578   0.00459   0.00000  Uiso   1.00
H1371  H     0.57723   0.75518   0.00784   0.00000  Uiso   1.00
H1372  H     0.59221   0.75145   0.95756   0.00000  Uiso   1.00
H1373  H     0.60780   0.71975   0.99334   0.00000  Uiso   1.00
H1374  H     0.50524   0.82722   0.49216   0.00000  Uiso   1.00
H1375  H     0.50151   0.84221   0.54244   0.00000  Uiso   1.00
H1376  H     0.96983   0.85781   0.50666   0.00000  Uiso   1.00
H1377  H     0.61919   0.92764   0.79465   0.00000  Uiso   1.00
H1378  H     0.56054   0.79818   0.50997   0.00000  Uiso   1.00
H1379  H     0.57505   0.80408   0.45977   0.00000  Uiso   1.00
H1380  H     0.60581   0.78646   0.49540   0.00000  Uiso   1.00
H1381  H     0.70167   0.93958   0.49003   0.00000  Uiso   1.00
H1382  H     0.69573   0.92509   0.54023   0.00000  Uiso   1.00
H1383  H     0.71327   0.89428   0.50460   0.00000  Uiso   1.00
H1384  H     0.67276   0.99494   0.50784   0.00000  Uiso   1.00
H1385  H     0.65778   0.99871   0.45756   0.00000  Uiso   1.00
H1386  H     0.64225   0.53042   0.49334   0.00000  Uiso   1.00
H1387  H     0.99476   0.67277   0.49217   0.00000  Uiso   1.00
H1388  H     0.92532   0.87847   0.20218   0.00000  Uiso   1.00
H1389  H     0.99849   0.65779   0.54245   0.00000  Uiso   1.00
H1390  H     0.53017   0.64218   0.50666   0.00000  Uiso   1.00
H1391  H     0.93946   0.70182   0.50998   0.00000  Uiso   1.00
H1392  H     0.92495   0.69592   0.45978   0.00000  Uiso   1.00
H1393  H     0.89419   0.71354   0.49541   0.00000  Uiso   1.00
H1394  H     0.79833   0.56042   0.49002   0.00000  Uiso   1.00
H1395  H     0.80427   0.57491   0.54022   0.00000  Uiso   1.00
H1396  H     0.78673   0.60572   0.50460   0.00000  Uiso   1.00
H1397  H     0.82725   0.50506   0.50783   0.00000  Uiso   1.00
H1398  H     0.84222   0.50129   0.45755   0.00000  Uiso   1.00
H1399  H     0.57466   0.62152   0.79780   0.00000  Uiso   1.00
H1400  H     0.85775   0.96958   0.49334   0.00000  Uiso   1.00
H1401  H     0.65349   0.55596   0.12125   0.00000  Uiso   1.00
H1402  H     0.66590   0.50965   0.11111   0.00000  Uiso   1.00
H1403  H     0.65798   0.54192   0.07193   0.00000  Uiso   1.00
H1404  H     0.85582   0.96434   0.88167   0.00000  Uiso   1.00
H1405  H     0.81069   0.94565   0.88373   0.00000  Uiso   1.00
H1406  H     0.83646   0.95403   0.92796   0.00000  Uiso   1.00
H1407  H     0.54276   0.64702   0.11854   0.00000  Uiso   1.00
H1408  H     0.55794   0.69347   0.11718   0.00000  Uiso   1.00
H1409  H     0.55217   0.66753   0.07258   0.00000  Uiso   1.00
H1410  H     0.62151   0.57466   0.79779   0.00000  Uiso   1.00
H1411  H     0.93847   0.84302   0.87864   0.00000  Uiso   1.00
H1412  H     0.98545   0.83328   0.88854   0.00000  Uiso   1.00
H1413  H     0.95298   0.83937   0.92790   0.00000  Uiso   1.00
H1414  H     0.84652   0.94404   0.12125   0.00000  Uiso   1.00
H1415  H     0.83410   0.99035   0.11111   0.00000  Uiso   1.00
H1416  H     0.84202   0.95808   0.07192   0.00000  Uiso   1.00
H1417  H     0.64417   0.53566   0.88167   0.00000  Uiso   1.00
H1418  H     0.68931   0.55435   0.88373   0.00000  Uiso   1.00
H1419  H     0.66354   0.54597   0.92796   0.00000  Uiso   1.00
H1420  H     0.95724   0.85298   0.11854   0.00000  Uiso   1.00
O1421  O     0.75000   0.50000   0.25000   0.00000  Uiso   1.00
O1422  O     0.75000   0.96964   0.66317   0.00000  Uiso   1.00
O1423  O     0.96964   0.75000   0.33683   0.00000  Uiso   1.00
O1424  O     0.53036   0.75000   0.66317   0.00000  Uiso   1.00
O1425  O     0.50000   0.71964   0.83683   0.00000  Uiso   1.00
O1426  O     0.50000   0.78036   0.16317   0.00000  Uiso   1.00
O1427  O     0.78036   0.50000   0.83683   0.00000  Uiso   1.00
O1428  O     0.71964   0.50000   0.16317   0.00000  Uiso   1.00
O1429  O     0.50000   0.78036   0.83683   0.00000  Uiso   1.00
O1430  O     0.50000   0.71964   0.16317   0.00000  Uiso   1.00
O1431  O     0.71964   0.50000   0.83683   0.00000  Uiso   1.00
O1432  O     0.75000   0.50000   0.75000   0.00000  Uiso   1.00
O1433  O     0.78036   0.50000   0.16317   0.00000  Uiso   1.00
O1434  O     0.70725   0.57307   0.27282   0.00000  Uiso   1.00
O1435  O     0.79274   0.92693   0.72718   0.00000  Uiso   1.00
O1436  O     0.92693   0.70725   0.27282   0.00000  Uiso   1.00
O1437  O     0.57307   0.79274   0.72718   0.00000  Uiso   1.00
O1438  O     0.79274   0.92693   0.27282   0.00000  Uiso   1.00
O1439  O     0.70725   0.57307   0.72718   0.00000  Uiso   1.00
O1440  O     0.57307   0.79274   0.27282   0.00000  Uiso   1.00
O1441  O     0.92693   0.70725   0.72718   0.00000  Uiso   1.00
O1442  O     0.70725   0.92693   0.72718   0.00000  Uiso   1.00
O1443  O     0.50000   0.75000   0.25000   0.00000  Uiso   1.00
O1444  O     0.79274   0.57307   0.27282   0.00000  Uiso   1.00
O1445  O     0.92693   0.79274   0.72718   0.00000  Uiso   1.00
O1446  O     0.57307   0.70725   0.27282   0.00000  Uiso   1.00
O1447  O     0.79274   0.57307   0.72718   0.00000  Uiso   1.00
O1448  O     0.70725   0.92693   0.27282   0.00000  Uiso   1.00
O1449  O     0.57307   0.70725   0.72718   0.00000  Uiso   1.00
O1450  O     0.92693   0.79274   0.27282   0.00000  Uiso   1.00
O1451  O     0.95725   0.82307   0.77282   0.00000  Uiso   1.00
O1452  O     0.54274   0.67693   0.22718   0.00000  Uiso   1.00
O1453  O     0.67693   0.95725   0.77282   0.00000  Uiso   1.00
O1454  O     0.50000   0.75000   0.75000   0.00000  Uiso   1.00
O1455  O     0.82307   0.54274   0.22718   0.00000  Uiso   1.00
O1456  O     0.54274   0.67693   0.77282   0.00000  Uiso   1.00
O1457  O     0.95725   0.82307   0.22718   0.00000  Uiso   1.00
O1458  O     0.82307   0.54274   0.77282   0.00000  Uiso   1.00
O1459  O     0.67693   0.95725   0.22718   0.00000  Uiso   1.00
O1460  O     0.95725   0.67693   0.22718   0.00000  Uiso   1.00
O1461  O     0.54274   0.82307   0.77282   0.00000  Uiso   1.00
O1462  O     0.67693   0.54274   0.22718   0.00000  Uiso   1.00
O1463  O     0.82307   0.95725   0.77282   0.00000  Uiso   1.00
O1464  O     0.54274   0.82307   0.22718   0.00000  Uiso   1.00
O1465  O     0.75000   0.96964   0.33683   0.00000  Uiso   1.00
O1466  O     0.95725   0.67693   0.77282   0.00000  Uiso   1.00
O1467  O     0.82307   0.95725   0.22718   0.00000  Uiso   1.00
O1468  O     0.67693   0.54274   0.77282   0.00000  Uiso   1.00
O1469  O     0.70892   0.55216   0.02294   0.00000  Uiso   1.00
O1470  O     0.81614   0.50460   0.97859   0.00000  Uiso   1.00
O1471  O     0.99973   0.68369   0.02143   0.00000  Uiso   1.00
O1472  O     0.94541   0.78781   0.97695   0.00000  Uiso   1.00
O1473  O     0.79108   0.94784   0.02294   0.00000  Uiso   1.00
O1474  O     0.68386   0.99540   0.97859   0.00000  Uiso   1.00
O1475  O     0.50028   0.81631   0.02143   0.00000  Uiso   1.00
O1476  O     0.75000   0.53036   0.66317   0.00000  Uiso   1.00
O1477  O     0.55460   0.71219   0.97695   0.00000  Uiso   1.00
O1478  O     0.96223   0.80462   0.52305   0.00000  Uiso   1.00
O1479  O     0.56631   0.75022   0.47857   0.00000  Uiso   1.00
O1480  O     0.74961   0.93369   0.52143   0.00000  Uiso   1.00
O1481  O     0.69547   0.53790   0.47696   0.00000  Uiso   1.00
O1482  O     0.53777   0.69538   0.52305   0.00000  Uiso   1.00
O1483  O     0.93369   0.74978   0.47857   0.00000  Uiso   1.00
O1484  O     0.75039   0.56631   0.52143   0.00000  Uiso   1.00
O1485  O     0.80453   0.96210   0.47696   0.00000  Uiso   1.00
O1486  O     0.70635   0.54944   0.10287   0.00000  Uiso   1.00
O1487  O     0.53036   0.75000   0.33683   0.00000  Uiso   1.00
O1488  O     0.81652   0.50042   0.89979   0.00000  Uiso   1.00
O1489  O     0.50402   0.68361   0.10019   0.00000  Uiso   1.00
O1490  O     0.94809   0.79063   0.89701   0.00000  Uiso   1.00
O1491  O     0.79365   0.95056   0.10287   0.00000  Uiso   1.00
O1492  O     0.68348   0.99958   0.89979   0.00000  Uiso   1.00
O1493  O     0.99599   0.81639   0.10019   0.00000  Uiso   1.00
O1494  O     0.55191   0.70936   0.89701   0.00000  Uiso   1.00
O1495  O     0.95940   0.80194   0.60300   0.00000  Uiso   1.00
O1496  O     0.56639   0.74593   0.39981   0.00000  Uiso   1.00
O1497  O     0.75391   0.93360   0.60019   0.00000  Uiso   1.00
O1498  O     0.96964   0.75000   0.66317   0.00000  Uiso   1.00
O1499  O     0.69815   0.54071   0.39701   0.00000  Uiso   1.00
O1500  O     0.54060   0.69806   0.60300   0.00000  Uiso   1.00
O1501  O     0.93361   0.75407   0.39981   0.00000  Uiso   1.00
O1502  O     0.74609   0.56640   0.60019   0.00000  Uiso   1.00
O1503  O     0.80185   0.95928   0.39701   0.00000  Uiso   1.00
O1504  O     0.75000   0.53036   0.33683   0.00000  Uiso   1.00
Zn1505 Zn    0.70660   0.50000   0.21760   0.00000  Uiso   1.00
Zn1506 Zn    0.54340   0.75000   0.28240   0.00000  Uiso   1.00
Zn1507 Zn    0.75000   0.95660   0.71760   0.00000  Uiso   1.00
Zn1508 Zn    0.75000   0.54340   0.28240   0.00000  Uiso   1.00
Zn1509 Zn    0.54340   0.75000   0.71760   0.00000  Uiso   1.00
Zn1510 Zn    0.95660   0.75000   0.28240   0.00000  Uiso   1.00
Zn1511 Zn    0.75000   0.54340   0.71760   0.00000  Uiso   1.00
Zn1512 Zn    0.75000   0.95660   0.28240   0.00000  Uiso   1.00
Zn1513 Zn    0.79340   0.50000   0.78240   0.00000  Uiso   1.00
Zn1514 Zn    0.50000   0.70660   0.21760   0.00000  Uiso   1.00
Zn1515 Zn    0.50000   0.79340   0.78240   0.00000  Uiso   1.00
Zn1516 Zn    0.79340   0.50000   0.21760   0.00000  Uiso   1.00
Zn1517 Zn    0.70660   0.50000   0.78240   0.00000  Uiso   1.00
Zn1518 Zn    0.50000   0.79340   0.21760   0.00000  Uiso   1.00
Zn1519 Zn    0.50000   0.70660   0.78240   0.00000  Uiso   1.00
Zn1520 Zn    0.95660   0.75000   0.71760   0.00000  Uiso   1.00
loop_
_geom_bond_atom_site_label_1
_geom_bond_atom_site_label_2
_geom_bond_distance
_geom_bond_site_symmetry_2
_ccdc_geom_bond_type
C1     O329    1.384   .     S
C1     C62     1.401   .     A
C1     C80     1.411   .     S
C2     O339    1.384   .     S
C2     C72     1.399   .     A
C2     C85     1.408   .     S
C3     C128    1.402   .     A
C3     C99     1.455   .     S
C3     C135    1.402   .     A
C4     C127    1.402   .     A
C4     C138    1.402   .     A
C4     C100    1.455   .     S
C5     C126    1.402   .     A
C5     C101    1.455   .     S
C5     C137    1.402   .     A
C6     C125    1.402   .     A
C6     C102    1.455   .     S
C6     C140    1.402   .     A
C7     C103    1.455   .     S
C7     C124    1.402   .     A
C7     C139    1.402   .     A
C8     C123    1.402   .     A
C8     C143    1.402   .     A
C8     C113    1.455   .     S
C9     C114    1.455   .     S
C9     C122    1.402   .     A
C9     C141    1.402   .     A
C10    C106    1.455   .     S
C10    C121    1.402   .     A
C10    C145    1.402   .     A
C11    C119    1.402   .     A
C11    C144    1.402   .     A
C11    C107    1.455   .     S
C12    C108    1.455   .     S
C12    C147    1.402   .     A
C12    C118    1.402   .     A
C13    O340    1.384   .     S
C13    C73     1.399   .     A
C13    C846    1.408   .     S
C14    C117    1.402   .     A
C14    C110    1.455   .     S
C14    C146    1.402   .     A
C15    C149    1.402   .     A
C15    C116    1.402   .     A
C15    C111    1.455   .     S
C16    C115    1.402   .     A
C16    C112    1.455   .     S
C16    C148    1.402   .     A
C17    C62     1.406   .     A
C17    C96     1.458   .     S
C17    C827    1.406   1_545 S
C18    C828    1.416   1_545 A
C18    C95     1.480   .     S
C18    C63     1.416   .     S
C19    C94     1.481   .     S
C19    C64     1.416   .     A
C19    C449    1.416   1_455 S
C20    C446    1.405   1_455 A
C20    C93     1.457   .     S
C20    C70     1.405   .     S
C21    C92     1.457   .     S
C21    C75     1.405   .     A
C21    C451    1.405   1_455 S
C22    C91     1.481   .     S
C22    C457    1.416   1_455 A
C22    C72     1.416   .     S
C23    C90     1.481   .     S
C23    C78     1.416   .     A
C23    C833    1.416   1_545 S
C24    O341    1.384   .     S
C24    C88     1.411   .     A
C24    C74     1.401   .     A
C25    C89     1.457   .     S
C25    C839    1.405   1_545 A
C25    C74     1.405   .     S
C26    H210    1.109   .     S
C26    O329    1.409   .     S
C26    H209    1.115   .     S
C26    H208    1.110   1_554 S
C27    O330    1.409   .     S
C27    H212    1.115   .     S
C27    H213    1.109   .     S
C27    H211    1.110   1_556 S
C28    H216    1.115   .     S
C28    H217    1.109   .     S
C28    O331    1.409   .     S
C28    H214    1.110   1_554 S
C29    O332    1.409   .     S
C29    H220    1.109   .     S
C29    H219    1.115   .     S
C29    H218    1.110   1_556 S
C30    H222    1.115   .     S
C30    O333    1.409   .     S
C30    H223    1.109   .     S
C30    H221    1.110   1_554 S
C31    O334    1.409   .     S
C31    H225    1.115   .     S
C31    H227    1.109   .     S
C31    H224    1.110   1_556 S
C32    O335    1.409   .     S
C32    H230    1.109   .     S
C32    H229    1.115   .     S
C32    H228    1.110   1_554 S
C33    H232    1.115   .     S
C33    O337    1.409   .     S
C33    H233    1.109   .     S
C33    H231    1.110   1_556 S
C34    H236    1.109   .     S
C34    O338    1.409   .     S
C34    H614    1.110   .     S
C34    H615    1.115   .     S
C35    O342    1.384   .     S
C35    C75     1.401   .     A
C35    C84     1.411   .     S
C36    H239    1.115   .     S
C36    H238    1.110   .     S
C36    H240    1.109   .     S
C36    O339    1.409   .     S
C37    H241    1.110   .     S
C37    O340    1.409   .     S
C37    H243    1.109   .     S
C37    H242    1.115   .     S
C38    O341    1.409   .     S
C38    H246    1.109   .     S
C38    H1004   1.110   1_545 S
C38    H1005   1.115   1_545 S
C39    O342    1.409   .     S
C39    H250    1.109   .     S
C39    H627    1.110   1_455 S
C39    H629    1.115   1_455 S
C40    H251    1.110   .     S
C40    O343    1.409   .     S
C40    H252    1.115   .     S
C40    H253    1.109   .     S
C41    H256    1.109   .     S
C41    O344    1.409   .     S
C41    H255    1.115   .     S
C41    H254    1.110   .     S
C42    H260    1.109   .     S
C42    O345    1.409   .     S
C42    H1017   1.110   .     S
C42    H1018   1.115   .     S
C43    H262    1.114   .     S
C43    H263    1.111   .     S
C43    H261    1.109   .     S
C43    O346    1.412   .     S
C44    H265    1.114   .     S
C44    H266    1.112   .     S
C44    H264    1.109   .     S
C44    O1108   1.411   .     S
C45    H267    1.109   .     S
C45    H269    1.113   .     S
C45    O349    1.411   .     S
C45    H268    1.114   .     S
C46    O343    1.384   .     S
C46    C77     1.399   .     A
C46    C465    1.408   .     A
C47    H272    1.114   .     S
C47    O350    1.411   .     S
C47    H271    1.109   .     S
C47    H273    1.111   .     S
C48    H274    1.109   .     S
C48    O351    1.412   .     S
C48    H276    1.111   .     S
C48    H275    1.114   .     S
C49    H277    1.109   .     S
C49    H279    1.112   .     S
C49    H278    1.114   .     S
C49    O1112   1.411   1_545 S
C50    H280    1.109   .     S
C50    O353    1.411   .     S
C50    H155    1.114   .     S
C50    H156    1.113   .     S
C51    H157    1.109   .     S
C51    H158    1.114   .     S
C51    O354    1.411   .     S
C51    H159    1.111   .     S
C52    H161    1.114   .     S
C52    H160    1.109   .     S
C52    O355    1.411   .     S
C52    H162    1.111   .     S
C53    H163    1.109   .     S
C53    H166    1.113   .     S
C53    H164    1.114   .     S
C53    O356    1.411   .     S
C54    H167    1.109   .     S
C54    H169    1.113   .     S
C54    H168    1.114   .     S
C54    O357    1.411   .     S
C55    H172    1.111   .     S
C55    O359    1.411   .     S
C55    H171    1.114   .     S
C55    H170    1.109   .     S
C56    H174    1.114   .     S
C56    O360    1.411   .     S
C56    H173    1.109   .     S
C56    H175    1.111   .     S
C57    C78     1.399   .     A
C57    O344    1.384   .     S
C57    C86     1.408   .     A
C58    H178    1.114   .     S
C58    H179    1.113   .     S
C58    H177    1.109   .     S
C58    O361    1.411   .     S
C59    H182    1.113   .     S
C59    H180    1.109   .     S
C59    O362    1.411   .     S
C59    H181    1.114   .     S
C60    H184    1.114   .     S
C60    H185    1.111   .     S
C60    O363    1.411   .     S
C60    H183    1.109   .     S
C61    O345    1.384   .     S
C61    C79     1.401   .     A
C61    C848    1.411   .     S
C62    O346    1.385   .     S
C63    C65     1.399   .     A
C63    O348    1.383   .     S
C64    O349    1.383   .     S
C64    C456    1.399   1_455 S
C65    O330    1.384   .     S
C65    C81     1.408   .     S
C66    C400    1.405   .     A
C66    O350    1.385   .     S
C66    C87     1.401   .     A
C67    C98     1.401   .     A
C67    O351    1.385   .     S
C67    C777    1.406   .     S
C68    C778    1.416   .     A
C68    O352    1.383   .     S
C68    C109    1.399   .     A
C69    O353    1.383   .     S
C69    C399    1.416   .     S
C69    C500    1.399   .     S
C70    O354    1.385   .     S
C70    C131    1.401   .     A
C71    O355    1.385   .     S
C71    C142    1.401   .     A
C71    C401    1.405   .     S
C72    O356    1.383   .     S
C73    O357    1.383   .     S
C73    C783    1.416   .     S
C74    O359    1.385   .     S
C75    O360    1.385   .     S
C76    O331    1.384   .     S
C76    C444    1.399   .     S
C76    C462    1.408   .     S
C77    O361    1.383   .     S
C77    C402    1.416   .     A
C78    O362    1.383   .     S
C79    O363    1.385   .     S
C79    C785    1.405   .     A
C80    C858    1.411   1_545 A
C80    C81     1.471   1_554 S
C81    C869    1.408   1_545 A
C81    C80     1.471   1_556 S
C82    C120    1.408   .     A
C82    C456    1.408   1_455 S
C82    C83     1.472   1_554 S
C83    C131    1.411   .     A
C83    C82     1.472   1_556 S
C83    C467    1.411   1_455 S
C84    C522    1.411   1_455 A
C84    C85     1.472   .     S
C85    C426    1.408   1_455 A
C86    C88     1.472   .     S
C86    C773    1.408   1_545 S
C87    O332    1.384   .     S
C87    C463    1.411   .     S
C88    C821    1.411   1_545 S
C89    O1085   1.279   1_545 A
C89    O364    1.279   .     S
C90    O336    1.285   .     A
C90    O1042   1.285   1_545 S
C91    O663    1.285   1_455 A
C91    O347    1.285   .     S
C92    O284    1.279   .     A
C92    O738    1.279   1_455 S
C93    O285    1.279   .     S
C93    O289    1.279   .     S
C94    O290    1.285   .     A
C94    O286    1.285   .     A
C95    O287    1.285   .     S
C95    O291    1.285   .     S
C96    O288    1.279   .     S
C96    O293    1.279   .     S
C97    O294    1.280   .     A
C97    C152    1.455   .     S
C97    O322    1.280   .     A
C98    O333    1.384   .     S
C98    C840    1.411   .     A
C99    O295    1.280   .     A
C99    O323    1.280   .     A
C100   O296    1.280   .     A
C100   O320    1.280   .     A
C101   O297    1.280   .     A
C101   O321    1.280   .     A
C102   O327    1.280   .     A
C102   O298    1.280   .     A
C103   O299    1.280   .     A
C103   O328    1.280   .     A
C104   C150    1.455   .     S
C104   O300    1.280   .     A
C104   O324    1.280   .     A
C105   C151    1.455   .     S
C105   O301    1.280   .     A
C105   O326    1.280   .     A
C106   O302    1.280   .     A
C106   O313    1.280   .     A
C107   O315    1.280   .     A
C107   O304    1.280   .     A
C108   O311    1.280   .     A
C108   O305    1.280   .     A
C109   O334    1.384   .     S
C109   C841    1.408   .     A
C110   O312    1.280   .     A
C110   O306    1.280   .     A
C111   O307    1.280   .     A
C111   O318    1.280   .     A
C112   O319    1.280   .     A
C112   O308    1.280   .     A
C113   O309    1.280   .     A
C113   O316    1.280   .     A
C114   O317    1.280   .     A
C114   O310    1.280   .     A
C115   H153    1.083   .     S
C115   C132    1.386   .     A
C116   C130    1.386   .     A
C116   H193    1.083   .     S
C117   C129    1.386   .     A
C117   H204    1.083   .     S
C118   H215    1.083   .     S
C118   C128    1.386   .     A
C119   H226    1.083   .     S
C119   C127    1.386   .     A
C120   O335    1.384   .     S
C120   C449    1.399   1_455 S
C121   C126    1.386   .     A
C121   H237    1.083   .     S
C122   C125    1.386   .     A
C122   H248    1.083   .     S
C123   H259    1.083   .     S
C123   C124    1.386   .     A
C124   H270    1.083   .     S
C125   H154    1.083   .     S
C126   H165    1.083   .     S
C127   H176    1.083   .     S
C128   H186    1.083   .     S
C129   C152    1.402   .     A
C129   H187    1.083   .     S
C130   C151    1.402   .     A
C130   H188    1.083   .     S
C131   O337    1.384   .     S
C132   C150    1.402   .     A
C132   H189    1.083   .     S
C133   C151    1.402   .     A
C133   H190    1.083   .     S
C133   C149    1.386   .     A
C134   H191    1.083   .     S
C134   C150    1.402   .     A
C134   C148    1.386   .     A
C135   H192    1.083   .     S
C135   C147    1.386   .     A
C136   C152    1.402   .     A
C136   C146    1.386   .     A
C136   H194    1.083   .     S
C137   H195    1.083   .     S
C137   C145    1.386   .     A
C138   H196    1.083   .     S
C138   C144    1.386   .     A
C139   C143    1.386   .     A
C139   H197    1.083   .     S
C140   H198    1.083   .     S
C140   C141    1.386   .     A
C141   H199    1.083   .     S
C142   C464    1.411   .     A
C142   O338    1.384   .     S
C143   H200    1.083   .     S
C144   H201    1.083   .     S
C145   H202    1.083   .     S
C146   H203    1.083   .     S
C147   H205    1.083   .     S
C148   H206    1.083   .     S
C149   H207    1.083   .     S
H208   C26     1.110   1_556 S
H211   C27     1.110   1_554 S
H214   C28     1.110   1_556 S
H218   C29     1.110   1_554 S
H221   C30     1.110   1_556 S
H224   C31     1.110   1_554 S
H228   C32     1.110   1_556 S
H231   C33     1.110   1_554 S
H234   C414    1.110   1_455 S
H235   C414    1.115   1_455 S
H244   C798    1.110   .     S
H245   C798    1.115   .     S
H247   C419    1.110   .     S
H249   C419    1.115   .     S
H257   C802    1.110   1_545 S
H258   C802    1.115   1_545 S
O281   Zn1132  1.946   1_545 S
O281   Zn365   1.946   .     S
O281   Zn368   1.946   .     S
O281   Zn376   1.946   .     S
O282   Zn367   1.944   .     S
O282   C850    1.285   .     S
O283   C471    1.285   .     A
O283   Zn370   1.944   .     S
O284   Zn369   1.944   .     S
O285   Zn379   1.944   .     S
O286   Zn378   1.944   .     S
O287   Zn373   1.944   .     S
O288   Zn365   1.944   .     S
O289   Zn375   1.944   .     S
O290   Zn374   1.944   .     S
O291   Zn377   1.944   .     S
O292   Zn371   1.946   .     S
O292   Zn373   1.946   .     S
O292   Zn377   1.946   .     S
O292   Zn1127  1.946   1_545 S
O293   Zn376   1.944   .     S
O294   Zn368   1.936   .     S
O295   Zn367   1.936   .     S
O296   Zn370   1.936   .     S
O297   Zn369   1.936   .     S
O298   Zn372   1.936   .     S
O299   Zn371   1.936   .     S
O300   Zn366   1.936   .     S
O301   Zn380   1.936   .     S
O302   Zn367   1.936   .     S
O303   Zn366   1.946   .     S
O303   Zn374   1.946   .     S
O303   Zn750   1.946   1_455 S
O303   Zn378   1.946   .     S
O304   Zn368   1.936   .     S
O305   Zn380   1.936   .     S
O306   Zn366   1.936   .     S
O307   Zn371   1.936   .     S
O308   Zn372   1.936   .     S
O309   Zn369   1.936   .     S
O310   Zn370   1.936   .     S
O311   Zn755   1.936   .     S
O312   Zn374   1.936   .     S
O313   Zn1137  1.936   .     S
O314   Zn379   1.946   .     S
O314   Zn369   1.946   .     S
O314   Zn375   1.946   .     S
O314   Zn760   1.946   1_455 S
O315   Zn376   1.936   .     S
O316   Zn379   1.936   .     S
O317   Zn758   1.936   .     S
O318   Zn373   1.936   .     S
O319   Zn1125  1.936   .     S
O320   Zn754   1.936   .     S
O321   Zn375   1.936   .     S
O322   Zn365   1.936   .     S
O323   Zn1133  1.936   .     S
O324   Zn378   1.936   .     S
O325   C849    1.279   .     A
O325   Zn372   1.944   .     S
O326   Zn759   1.936   .     S
O327   Zn1136  1.936   .     S
O328   Zn377   1.936   .     S
O336   Zn371   1.944   .     S
O347   Zn366   1.944   .     S
O348   C804    1.411   1_545 S
O352   C809    1.411   .     S
O358   Zn380   1.944   .     S
O358   C472    1.279   .     S
O364   Zn368   1.944   .     S
Zn365  O1079   1.936   1_545 S
Zn367  O1052   1.946   .     S
Zn370  O683    1.946   .     S
Zn372  O1041   1.946   .     S
Zn373  O1083   1.936   1_545 S
Zn374  O700    1.936   1_455 S
Zn375  O691    1.936   1_455 S
Zn376  O1087   1.936   1_545 S
Zn377  O1073   1.936   1_545 S
Zn378  O697    1.936   1_455 S
Zn379  O706    1.936   1_455 S
Zn380  O694    1.946   .     S
C381   O709    1.384   .     S
C381   C442    1.401   .     A
C381   C460    1.411   .     S
C382   O719    1.384   .     S
C382   C452    1.399   .     A
C382   C465    1.408   .     S
C383   C508    1.402   .     A
C383   C479    1.455   .     S
C383   C515    1.402   .     A
C384   C507    1.402   .     A
C384   C518    1.402   .     A
C384   C480    1.455   .     S
C385   C506    1.402   .     A
C385   C481    1.455   .     S
C385   C517    1.402   .     A
C386   C505    1.402   .     A
C386   C482    1.455   .     S
C386   C520    1.402   .     A
C387   C483    1.455   .     S
C387   C504    1.402   .     A
C387   C519    1.402   .     A
C388   C503    1.402   .     A
C388   C523    1.402   .     A
C388   C493    1.455   .     S
C389   C494    1.455   .     S
C389   C502    1.402   .     A
C389   C521    1.402   .     A
C390   C486    1.455   .     S
C390   C501    1.402   .     A
C390   C525    1.402   .     A
C391   C499    1.402   .     A
C391   C524    1.402   .     A
C391   C487    1.455   .     S
C392   C488    1.455   .     S
C392   C527    1.402   .     A
C392   C498    1.402   .     A
C393   O720    1.384   .     S
C393   C453    1.399   .     A
C393   C1226   1.408   .     S
C394   C497    1.402   .     A
C394   C490    1.455   .     S
C394   C526    1.402   .     A
C395   C529    1.402   .     A
C395   C496    1.402   .     A
C395   C491    1.455   .     S
C396   C495    1.402   .     A
C396   C492    1.455   .     S
C396   C528    1.402   .     A
C397   C442    1.406   .     A
C397   C476    1.458   .     S
C397   C1207   1.406   1_545 S
C398   C1208   1.416   1_545 A
C398   C475    1.480   .     S
C398   C443    1.416   .     S
C399   C474    1.481   .     S
C399   C444    1.416   .     A
C400   C473    1.457   .     S
C400   C450    1.405   .     S
C401   C472    1.457   .     S
C401   C455    1.405   .     A
C402   C471    1.481   .     S
C402   C452    1.416   .     S
C403   C470    1.481   .     S
C403   C458    1.416   .     A
C403   C1213   1.416   1_545 S
C404   O721    1.384   .     S
C404   C468    1.411   .     A
C404   C454    1.401   .     A
C405   C469    1.457   .     S
C405   C1219   1.405   1_545 A
C405   C454    1.405   .     S
C406   H590    1.109   .     S
C406   O709    1.409   .     S
C406   H589    1.115   .     S
C406   H588    1.110   1_554 S
C407   O710    1.409   .     S
C407   H592    1.115   .     S
C407   H593    1.109   .     S
C407   H591    1.110   1_556 S
C408   H596    1.115   .     S
C408   H597    1.109   .     S
C408   O711    1.409   .     S
C408   H594    1.110   1_554 S
C409   O712    1.409   .     S
C409   H600    1.109   .     S
C409   H599    1.115   .     S
C409   H598    1.110   1_556 S
C410   H602    1.115   .     S
C410   O713    1.409   .     S
C410   H603    1.109   .     S
C410   H601    1.110   1_554 S
C411   O714    1.409   .     S
C411   H605    1.115   .     S
C411   H607    1.109   .     S
C411   H604    1.110   1_556 S
C412   O715    1.409   .     S
C412   H610    1.109   .     S
C412   H609    1.115   .     S
C412   H608    1.110   1_554 S
C413   H612    1.115   .     S
C413   O717    1.409   .     S
C413   H613    1.109   .     S
C413   H611    1.110   1_556 S
C414   H616    1.109   .     S
C414   O718    1.409   .     S
C414   H234    1.110   1_655 S
C414   H235    1.115   1_655 S
C415   O722    1.384   .     S
C415   C455    1.401   .     A
C415   C464    1.411   .     S
C416   H619    1.115   .     S
C416   H618    1.110   .     S
C416   H620    1.109   .     S
C416   O719    1.409   .     S
C417   H621    1.110   .     S
C417   O720    1.409   .     S
C417   H623    1.109   .     S
C417   H622    1.115   .     S
C418   O721    1.409   .     S
C418   H626    1.109   .     S
C418   H1384   1.110   1_545 S
C418   H1385   1.115   1_545 S
C419   O722    1.409   .     S
C419   H630    1.109   .     S
C420   H631    1.110   .     S
C420   O723    1.409   .     S
C420   H632    1.115   .     S
C420   H633    1.109   .     S
C421   H636    1.109   .     S
C421   O724    1.409   .     S
C421   H635    1.115   .     S
C421   H634    1.110   .     S
C422   H640    1.109   .     S
C422   O725    1.409   .     S
C422   H1397   1.110   .     S
C422   H1398   1.115   .     S
C423   H642    1.114   .     S
C423   H643    1.111   .     S
C423   H641    1.109   .     S
C423   O726    1.412   .     S
C424   H645    1.114   .     S
C424   H646    1.112   .     S
C424   H644    1.109   .     S
C424   O1488   1.411   .     S
C425   H647    1.109   .     S
C425   H649    1.113   .     S
C425   O729    1.411   .     S
C425   H648    1.114   .     S
C426   O723    1.384   .     S
C426   C457    1.399   .     A
C426   C85     1.408   1_655 A
C427   H652    1.114   .     S
C427   O730    1.411   .     S
C427   H651    1.109   .     S
C427   H653    1.111   .     S
C428   H654    1.109   .     S
C428   O731    1.412   .     S
C428   H656    1.111   .     S
C428   H655    1.114   .     S
C429   H657    1.109   .     S
C429   H659    1.112   .     S
C429   H658    1.114   .     S
C429   O1492   1.411   1_545 S
C430   H660    1.109   .     S
C430   O733    1.411   .     S
C430   H535    1.114   .     S
C430   H536    1.113   .     S
C431   H537    1.109   .     S
C431   H538    1.114   .     S
C431   O734    1.411   .     S
C431   H539    1.111   .     S
C432   H541    1.114   .     S
C432   H540    1.109   .     S
C432   O735    1.411   .     S
C432   H542    1.111   .     S
C433   H543    1.109   .     S
C433   H546    1.113   .     S
C433   H544    1.114   .     S
C433   O736    1.411   .     S
C434   H547    1.109   .     S
C434   H549    1.113   .     S
C434   H548    1.114   .     S
C434   O737    1.411   .     S
C435   H552    1.111   .     S
C435   O739    1.411   .     S
C435   H551    1.114   .     S
C435   H550    1.109   .     S
C436   H554    1.114   .     S
C436   O740    1.411   .     S
C436   H553    1.109   .     S
C436   H555    1.111   .     S
C437   C458    1.399   .     A
C437   O724    1.384   .     S
C437   C466    1.408   .     A
C438   H558    1.114   .     S
C438   H559    1.113   .     S
C438   H557    1.109   .     S
C438   O741    1.411   .     S
C439   H562    1.113   .     S
C439   H560    1.109   .     S
C439   O742    1.411   .     S
C439   H561    1.114   .     S
C440   H564    1.114   .     S
C440   H565    1.111   .     S
C440   O743    1.411   .     S
C440   H563    1.109   .     S
C441   O725    1.384   .     S
C441   C459    1.401   .     A
C441   C1228   1.411   .     S
C442   O726    1.385   .     S
C443   C445    1.399   .     A
C443   O728    1.383   .     S
C444   O729    1.383   .     S
C445   O710    1.384   .     S
C445   C461    1.408   .     S
C446   C20     1.405   1_655 A
C446   O730    1.385   .     S
C446   C467    1.401   .     A
C447   C478    1.401   .     A
C447   O731    1.385   .     S
C447   C1157   1.406   .     S
C448   C1158   1.416   .     A
C448   O732    1.383   .     S
C448   C489    1.399   .     A
C449   O733    1.383   .     S
C449   C19     1.416   1_655 S
C449   C120    1.399   1_655 S
C450   O734    1.385   .     S
C450   C511    1.401   .     A
C451   O735    1.385   .     S
C451   C522    1.401   .     A
C451   C21     1.405   1_655 S
C452   O736    1.383   .     S
C453   O737    1.383   .     S
C453   C1163   1.416   .     S
C454   O739    1.385   .     S
C455   O740    1.385   .     S
C456   O711    1.384   .     S
C456   C64     1.399   1_655 S
C456   C82     1.408   1_655 S
C457   O741    1.383   .     S
C457   C22     1.416   1_655 A
C458   O742    1.383   .     S
C459   O743    1.385   .     S
C459   C1165   1.405   .     A
C460   C1238   1.411   1_545 A
C460   C461    1.471   1_554 S
C461   C1249   1.408   1_545 A
C461   C460    1.471   1_556 S
C462   C500    1.408   .     A
C462   C463    1.472   1_554 S
C463   C511    1.411   .     A
C463   C462    1.472   1_556 S
C464   C465    1.472   .     S
C466   C468    1.472   .     S
C466   C1153   1.408   1_545 S
C467   O712    1.384   .     S
C467   C83     1.411   1_655 S
C468   C1201   1.411   1_545 S
C469   O1465   1.279   1_545 A
C469   O744    1.279   .     S
C470   O716    1.285   .     A
C470   O1422   1.285   1_545 S
C471   O727    1.285   .     S
C472   O664    1.279   .     A
C473   O665    1.279   .     S
C473   O669    1.279   .     S
C474   O670    1.285   .     A
C474   O666    1.285   .     A
C475   O667    1.285   .     S
C475   O671    1.285   .     S
C476   O668    1.279   .     S
C476   O673    1.279   .     S
C477   O674    1.280   .     A
C477   C532    1.455   .     S
C477   O702    1.280   .     A
C478   O713    1.384   .     S
C478   C1220   1.411   .     A
C479   O675    1.280   .     A
C479   O703    1.280   .     A
C480   O676    1.280   .     A
C480   O700    1.280   .     A
C481   O677    1.280   .     A
C481   O701    1.280   .     A
C482   O707    1.280   .     A
C482   O678    1.280   .     A
C483   O679    1.280   .     A
C483   O708    1.280   .     A
C484   C530    1.455   .     S
C484   O680    1.280   .     A
C484   O704    1.280   .     A
C485   C531    1.455   .     S
C485   O681    1.280   .     A
C485   O706    1.280   .     A
C486   O682    1.280   .     A
C486   O693    1.280   .     A
C487   O695    1.280   .     A
C487   O684    1.280   .     A
C488   O691    1.280   .     A
C488   O685    1.280   .     A
C489   O714    1.384   .     S
C489   C1221   1.408   .     A
C490   O692    1.280   .     A
C490   O686    1.280   .     A
C491   O687    1.280   .     A
C491   O698    1.280   .     A
C492   O699    1.280   .     A
C492   O688    1.280   .     A
C493   O689    1.280   .     A
C493   O696    1.280   .     A
C494   O697    1.280   .     A
C494   O690    1.280   .     A
C495   H533    1.083   .     S
C495   C512    1.386   .     A
C496   C510    1.386   .     A
C496   H573    1.083   .     S
C497   C509    1.386   .     A
C497   H584    1.083   .     S
C498   H595    1.083   .     S
C498   C508    1.386   .     A
C499   H606    1.083   .     S
C499   C507    1.386   .     A
C500   O715    1.384   .     S
C501   C506    1.386   .     A
C501   H617    1.083   .     S
C502   C505    1.386   .     A
C502   H628    1.083   .     S
C503   H639    1.083   .     S
C503   C504    1.386   .     A
C504   H650    1.083   .     S
C505   H534    1.083   .     S
C506   H545    1.083   .     S
C507   H556    1.083   .     S
C508   H566    1.083   .     S
C509   C532    1.402   .     A
C509   H567    1.083   .     S
C510   C531    1.402   .     A
C510   H568    1.083   .     S
C511   O717    1.384   .     S
C512   C530    1.402   .     A
C512   H569    1.083   .     S
C513   C531    1.402   .     A
C513   H570    1.083   .     S
C513   C529    1.386   .     A
C514   H571    1.083   .     S
C514   C530    1.402   .     A
C514   C528    1.386   .     A
C515   H572    1.083   .     S
C515   C527    1.386   .     A
C516   C532    1.402   .     A
C516   C526    1.386   .     A
C516   H574    1.083   .     S
C517   H575    1.083   .     S
C517   C525    1.386   .     A
C518   H576    1.083   .     S
C518   C524    1.386   .     A
C519   C523    1.386   .     A
C519   H577    1.083   .     S
C520   H578    1.083   .     S
C520   C521    1.386   .     A
C521   H579    1.083   .     S
C522   C84     1.411   1_655 A
C522   O718    1.384   .     S
C523   H580    1.083   .     S
C524   H581    1.083   .     S
C525   H582    1.083   .     S
C526   H583    1.083   .     S
C527   H585    1.083   .     S
C528   H586    1.083   .     S
C529   H587    1.083   .     S
H588   C406    1.110   1_556 S
H591   C407    1.110   1_554 S
H594   C408    1.110   1_556 S
H598   C409    1.110   1_554 S
H601   C410    1.110   1_556 S
H604   C411    1.110   1_554 S
H608   C412    1.110   1_556 S
H611   C413    1.110   1_554 S
H624   C1178   1.110   .     S
H625   C1178   1.115   .     S
H627   C39     1.110   1_655 S
H629   C39     1.115   1_655 S
H637   C1182   1.110   1_545 S
H638   C1182   1.115   1_545 S
O661   Zn1512  1.946   1_545 S
O661   Zn745   1.946   .     S
O661   Zn748   1.946   .     S
O661   Zn756   1.946   .     S
O662   Zn747   1.944   .     S
O662   C1230   1.285   .     S
O663   C91     1.285   1_655 A
O663   Zn750   1.944   .     S
O664   Zn749   1.944   .     S
O665   Zn759   1.944   .     S
O666   Zn758   1.944   .     S
O667   Zn753   1.944   .     S
O668   Zn745   1.944   .     S
O669   Zn755   1.944   .     S
O670   Zn754   1.944   .     S
O671   Zn757   1.944   .     S
O672   Zn751   1.946   .     S
O672   Zn753   1.946   .     S
O672   Zn757   1.946   .     S
O672   Zn1507  1.946   1_545 S
O673   Zn756   1.944   .     S
O674   Zn748   1.936   .     S
O675   Zn747   1.936   .     S
O676   Zn750   1.936   .     S
O677   Zn749   1.936   .     S
O678   Zn752   1.936   .     S
O679   Zn751   1.936   .     S
O680   Zn746   1.936   .     S
O681   Zn760   1.936   .     S
O682   Zn747   1.936   .     S
O683   Zn746   1.946   .     S
O683   Zn754   1.946   .     S
O683   Zn758   1.946   .     S
O684   Zn748   1.936   .     S
O685   Zn760   1.936   .     S
O686   Zn746   1.936   .     S
O687   Zn751   1.936   .     S
O688   Zn752   1.936   .     S
O689   Zn749   1.936   .     S
O690   Zn750   1.936   .     S
O691   Zn375   1.936   1_655 S
O692   Zn754   1.936   .     S
O693   Zn1517  1.936   .     S
O694   Zn759   1.946   .     S
O694   Zn749   1.946   .     S
O694   Zn755   1.946   .     S
O695   Zn756   1.936   .     S
O696   Zn759   1.936   .     S
O697   Zn378   1.936   1_655 S
O698   Zn753   1.936   .     S
O699   Zn1505  1.936   .     S
O700   Zn374   1.936   1_655 S
O701   Zn755   1.936   .     S
O702   Zn745   1.936   .     S
O703   Zn1513  1.936   .     S
O704   Zn758   1.936   .     S
O705   C1229   1.279   .     A
O705   Zn752   1.944   .     S
O706   Zn379   1.936   1_655 S
O707   Zn1516  1.936   .     S
O708   Zn757   1.936   .     S
O716   Zn751   1.944   .     S
O727   Zn746   1.944   .     S
O728   C1184   1.411   1_545 S
O732   C1189   1.411   .     S
O738   Zn760   1.944   .     S
O738   C92     1.279   1_655 S
O744   Zn748   1.944   .     S
Zn745  O1459   1.936   1_545 S
Zn747  O1432   1.946   .     S
Zn750  O303    1.946   1_655 S
Zn752  O1421   1.946   .     S
Zn753  O1463   1.936   1_545 S
Zn756  O1467   1.936   1_545 S
Zn757  O1453   1.936   1_545 S
Zn760  O314    1.946   1_655 S
C761   O1089   1.384   .     S
C761   C822    1.401   .     A
C761   C840    1.411   .     S
C762   O1099   1.384   .     S
C762   C832    1.399   .     A
C762   C845    1.408   .     S
C763   C888    1.402   .     A
C763   C859    1.455   .     S
C763   C895    1.402   .     A
C764   C887    1.402   .     A
C764   C898    1.402   .     A
C764   C860    1.455   .     S
C765   C886    1.402   .     A
C765   C861    1.455   .     S
C765   C897    1.402   .     A
C766   C885    1.402   .     A
C766   C862    1.455   .     S
C766   C900    1.402   .     A
C767   C863    1.455   .     S
C767   C884    1.402   .     A
C767   C899    1.402   .     A
C768   C883    1.402   .     A
C768   C903    1.402   .     A
C768   C873    1.455   .     S
C769   C874    1.455   .     S
C769   C882    1.402   .     A
C769   C901    1.402   .     A
C770   C866    1.455   .     S
C770   C881    1.402   .     A
C770   C905    1.402   .     A
C771   C879    1.402   .     A
C771   C904    1.402   .     A
C771   C867    1.455   .     S
C772   C868    1.455   .     S
C772   C907    1.402   .     A
C772   C878    1.402   .     A
C773   O1100   1.384   .     S
C773   C833    1.399   .     A
C773   C86     1.408   1_565 S
C774   C877    1.402   .     A
C774   C870    1.455   .     S
C774   C906    1.402   .     A
C775   C909    1.402   .     A
C775   C876    1.402   .     A
C775   C871    1.455   .     S
C776   C875    1.402   .     A
C776   C872    1.455   .     S
C776   C908    1.402   .     A
C777   C822    1.406   .     A
C777   C856    1.458   .     S
C778   C855    1.480   .     S
C778   C823    1.416   .     S
C779   C854    1.481   .     S
C779   C824    1.416   .     A
C779   C1209   1.416   1_455 S
C780   C1206   1.405   1_455 A
C780   C853    1.457   .     S
C780   C830    1.405   .     S
C781   C852    1.457   .     S
C781   C835    1.405   .     A
C781   C1211   1.405   1_455 S
C782   C851    1.481   .     S
C782   C1217   1.416   1_455 A
C782   C832    1.416   .     S
C783   C850    1.481   .     S
C783   C838    1.416   .     A
C784   O1101   1.384   .     S
C784   C848    1.411   .     A
C784   C834    1.401   .     A
C785   C849    1.457   .     S
C785   C834    1.405   .     S
C786   H970    1.109   .     S
C786   O1089   1.409   .     S
C786   H969    1.115   .     S
C786   H968    1.110   1_554 S
C787   O1090   1.409   .     S
C787   H972    1.115   .     S
C787   H973    1.109   .     S
C787   H971    1.110   1_556 S
C788   H976    1.115   .     S
C788   H977    1.109   .     S
C788   O1091   1.409   .     S
C788   H974    1.110   1_554 S
C789   O1092   1.409   .     S
C789   H980    1.109   .     S
C789   H979    1.115   .     S
C789   H978    1.110   1_556 S
C790   H982    1.115   .     S
C790   O1093   1.409   .     S
C790   H983    1.109   .     S
C790   H981    1.110   1_554 S
C791   O1094   1.409   .     S
C791   H985    1.115   .     S
C791   H987    1.109   .     S
C791   H984    1.110   1_556 S
C792   O1095   1.409   .     S
C792   H990    1.109   .     S
C792   H989    1.115   .     S
C792   H988    1.110   1_554 S
C793   H992    1.115   .     S
C793   O1097   1.409   .     S
C793   H993    1.109   .     S
C793   H991    1.110   1_556 S
C794   H996    1.109   .     S
C794   O1098   1.409   .     S
C794   H1374   1.110   .     S
C794   H1375   1.115   .     S
C795   O1102   1.384   .     S
C795   C835    1.401   .     A
C795   C844    1.411   .     S
C796   H999    1.115   .     S
C796   H998    1.110   .     S
C796   H1000   1.109   .     S
C796   O1099   1.409   .     S
C797   H1001   1.110   .     S
C797   O1100   1.409   .     S
C797   H1003   1.109   .     S
C797   H1002   1.115   .     S
C798   O1101   1.409   .     S
C798   H1006   1.109   .     S
C799   O1102   1.409   .     S
C799   H1010   1.109   .     S
C799   H1387   1.110   1_455 S
C799   H1389   1.115   1_455 S
C800   H1011   1.110   .     S
C800   O1103   1.409   .     S
C800   H1012   1.115   .     S
C800   H1013   1.109   .     S
C801   H1016   1.109   .     S
C801   O1104   1.409   .     S
C801   H1015   1.115   .     S
C801   H1014   1.110   .     S
C802   H1020   1.109   .     S
C802   O1105   1.409   .     S
C802   H257    1.110   1_565 S
C802   H258    1.115   1_565 S
C803   H1022   1.114   .     S
C803   H1023   1.111   .     S
C803   H1021   1.109   .     S
C803   O1106   1.412   .     S
C804   H1025   1.114   .     S
C804   H1026   1.112   .     S
C804   H1024   1.109   .     S
C804   O348    1.411   1_565 S
C805   H1027   1.109   .     S
C805   H1029   1.113   .     S
C805   O1109   1.411   .     S
C805   H1028   1.114   .     S
C806   O1103   1.384   .     S
C806   C837    1.399   .     A
C806   C1225   1.408   .     A
C807   H1032   1.114   .     S
C807   O1110   1.411   .     S
C807   H1031   1.109   .     S
C807   H1033   1.111   .     S
C808   H1034   1.109   .     S
C808   O1111   1.412   .     S
C808   H1036   1.111   .     S
C808   H1035   1.114   .     S
C809   H1037   1.109   .     S
C809   H1039   1.112   .     S
C809   H1038   1.114   .     S
C810   H1040   1.109   .     S
C810   O1113   1.411   .     S
C810   H915    1.114   .     S
C810   H916    1.113   .     S
C811   H917    1.109   .     S
C811   H918    1.114   .     S
C811   O1114   1.411   .     S
C811   H919    1.111   .     S
C812   H921    1.114   .     S
C812   H920    1.109   .     S
C812   O1115   1.411   .     S
C812   H922    1.111   .     S
C813   H923    1.109   .     S
C813   H926    1.113   .     S
C813   H924    1.114   .     S
C813   O1116   1.411   .     S
C814   H927    1.109   .     S
C814   H929    1.113   .     S
C814   H928    1.114   .     S
C814   O1117   1.411   .     S
C815   H932    1.111   .     S
C815   O1119   1.411   .     S
C815   H931    1.114   .     S
C815   H930    1.109   .     S
C816   H934    1.114   .     S
C816   O1120   1.411   .     S
C816   H933    1.109   .     S
C816   H935    1.111   .     S
C817   C838    1.399   .     A
C817   O1104   1.384   .     S
C817   C846    1.408   .     A
C818   H938    1.114   .     S
C818   H939    1.113   .     S
C818   H937    1.109   .     S
C818   O1121   1.411   .     S
C819   H942    1.113   .     S
C819   H940    1.109   .     S
C819   O1122   1.411   .     S
C819   H941    1.114   .     S
C820   H944    1.114   .     S
C820   H945    1.111   .     S
C820   O1123   1.411   .     S
C820   H943    1.109   .     S
C821   O1105   1.384   .     S
C821   C839    1.401   .     A
C821   C88     1.411   1_565 S
C822   O1106   1.385   .     S
C823   C825    1.399   .     A
C823   O1108   1.383   .     S
C824   O1109   1.383   .     S
C824   C1216   1.399   1_455 S
C825   O1090   1.384   .     S
C825   C841    1.408   .     S
C826   C1160   1.405   .     A
C826   O1110   1.385   .     S
C826   C847    1.401   .     A
C827   C858    1.401   .     A
C827   O1111   1.385   .     S
C827   C17     1.406   1_565 S
C828   C18     1.416   1_565 A
C828   O1112   1.383   .     S
C828   C869    1.399   .     A
C829   O1113   1.383   .     S
C829   C1159   1.416   .     S
C829   C1260   1.399   .     S
C830   O1114   1.385   .     S
C830   C891    1.401   .     A
C831   O1115   1.385   .     S
C831   C902    1.401   .     A
C831   C1161   1.405   .     S
C832   O1116   1.383   .     S
C833   O1117   1.383   .     S
C833   C23     1.416   1_565 S
C834   O1119   1.385   .     S
C835   O1120   1.385   .     S
C836   O1091   1.384   .     S
C836   C1204   1.399   .     S
C836   C1222   1.408   .     S
C837   O1121   1.383   .     S
C837   C1162   1.416   .     A
C838   O1122   1.383   .     S
C839   O1123   1.385   .     S
C839   C25     1.405   1_565 A
C840   C841    1.471   1_554 S
C841   C840    1.471   1_556 S
C842   C880    1.408   .     A
C842   C1216   1.408   1_455 S
C842   C843    1.472   1_554 S
C843   C891    1.411   .     A
C843   C842    1.472   1_556 S
C843   C1227   1.411   1_455 S
C844   C1282   1.411   1_455 A
C844   C845    1.472   .     S
C845   C1186   1.408   1_455 A
C846   C848    1.472   .     S
C847   O1092   1.384   .     S
C847   C1223   1.411   .     S
C849   O1124   1.279   .     S
C850   O1096   1.285   .     A
C851   O1423   1.285   1_455 A
C851   O1107   1.285   .     S
C852   O1044   1.279   .     A
C852   O1498   1.279   1_455 S
C853   O1045   1.279   .     S
C853   O1049   1.279   .     S
C854   O1050   1.285   .     A
C854   O1046   1.285   .     A
C855   O1047   1.285   .     S
C855   O1051   1.285   .     S
C856   O1048   1.279   .     S
C856   O1053   1.279   .     S
C857   O1054   1.280   .     A
C857   C912    1.455   .     S
C857   O1082   1.280   .     A
C858   O1093   1.384   .     S
C858   C80     1.411   1_565 A
C859   O1055   1.280   .     A
C859   O1083   1.280   .     A
C860   O1056   1.280   .     A
C860   O1080   1.280   .     A
C861   O1057   1.280   .     A
C861   O1081   1.280   .     A
C862   O1087   1.280   .     A
C862   O1058   1.280   .     A
C863   O1059   1.280   .     A
C863   O1088   1.280   .     A
C864   C910    1.455   .     S
C864   O1060   1.280   .     A
C864   O1084   1.280   .     A
C865   C911    1.455   .     S
C865   O1061   1.280   .     A
C865   O1086   1.280   .     A
C866   O1062   1.280   .     A
C866   O1073   1.280   .     A
C867   O1075   1.280   .     A
C867   O1064   1.280   .     A
C868   O1071   1.280   .     A
C868   O1065   1.280   .     A
C869   O1094   1.384   .     S
C869   C81     1.408   1_565 A
C870   O1072   1.280   .     A
C870   O1066   1.280   .     A
C871   O1067   1.280   .     A
C871   O1078   1.280   .     A
C872   O1079   1.280   .     A
C872   O1068   1.280   .     A
C873   O1069   1.280   .     A
C873   O1076   1.280   .     A
C874   O1077   1.280   .     A
C874   O1070   1.280   .     A
C875   H913    1.083   .     S
C875   C892    1.386   .     A
C876   C890    1.386   .     A
C876   H953    1.083   .     S
C877   C889    1.386   .     A
C877   H964    1.083   .     S
C878   H975    1.083   .     S
C878   C888    1.386   .     A
C879   H986    1.083   .     S
C879   C887    1.386   .     A
C880   O1095   1.384   .     S
C880   C1209   1.399   1_455 S
C881   C886    1.386   .     A
C881   H997    1.083   .     S
C882   C885    1.386   .     A
C882   H1008   1.083   .     S
C883   H1019   1.083   .     S
C883   C884    1.386   .     A
C884   H1030   1.083   .     S
C885   H914    1.083   .     S
C886   H925    1.083   .     S
C887   H936    1.083   .     S
C888   H946    1.083   .     S
C889   C912    1.402   .     A
C889   H947    1.083   .     S
C890   C911    1.402   .     A
C890   H948    1.083   .     S
C891   O1097   1.384   .     S
C892   C910    1.402   .     A
C892   H949    1.083   .     S
C893   C911    1.402   .     A
C893   H950    1.083   .     S
C893   C909    1.386   .     A
C894   H951    1.083   .     S
C894   C910    1.402   .     A
C894   C908    1.386   .     A
C895   H952    1.083   .     S
C895   C907    1.386   .     A
C896   C912    1.402   .     A
C896   C906    1.386   .     A
C896   H954    1.083   .     S
C897   H955    1.083   .     S
C897   C905    1.386   .     A
C898   H956    1.083   .     S
C898   C904    1.386   .     A
C899   C903    1.386   .     A
C899   H957    1.083   .     S
C900   H958    1.083   .     S
C900   C901    1.386   .     A
C901   H959    1.083   .     S
C902   C1224   1.411   .     A
C902   O1098   1.384   .     S
C903   H960    1.083   .     S
C904   H961    1.083   .     S
C905   H962    1.083   .     S
C906   H963    1.083   .     S
C907   H965    1.083   .     S
C908   H966    1.083   .     S
C909   H967    1.083   .     S
H968   C786    1.110   1_556 S
H971   C787    1.110   1_554 S
H974   C788    1.110   1_556 S
H978   C789    1.110   1_554 S
H981   C790    1.110   1_556 S
H984   C791    1.110   1_554 S
H988   C792    1.110   1_556 S
H991   C793    1.110   1_554 S
H994   C1174   1.110   1_455 S
H995   C1174   1.115   1_455 S
H1004  C38     1.110   1_565 S
H1005  C38     1.115   1_565 S
H1007  C1179   1.110   .     S
H1009  C1179   1.115   .     S
O1041  Zn1125  1.946   .     S
O1041  Zn1128  1.946   .     S
O1041  Zn1136  1.946   .     S
O1042  Zn1127  1.944   .     S
O1042  C90     1.285   1_565 S
O1043  C1231   1.285   .     A
O1043  Zn1130  1.944   .     S
O1044  Zn1129  1.944   .     S
O1045  Zn1139  1.944   .     S
O1046  Zn1138  1.944   .     S
O1047  Zn1133  1.944   .     S
O1048  Zn1125  1.944   .     S
O1049  Zn1135  1.944   .     S
O1050  Zn1134  1.944   .     S
O1051  Zn1137  1.944   .     S
O1052  Zn1131  1.946   .     S
O1052  Zn1133  1.946   .     S
O1052  Zn1137  1.946   .     S
O1053  Zn1136  1.944   .     S
O1054  Zn1128  1.936   .     S
O1055  Zn1127  1.936   .     S
O1056  Zn1130  1.936   .     S
O1057  Zn1129  1.936   .     S
O1058  Zn1132  1.936   .     S
O1059  Zn1131  1.936   .     S
O1060  Zn1126  1.936   .     S
O1061  Zn1140  1.936   .     S
O1062  Zn1127  1.936   .     S
O1063  Zn1126  1.946   .     S
O1063  Zn1134  1.946   .     S
O1063  Zn1510  1.946   1_455 S
O1063  Zn1138  1.946   .     S
O1064  Zn1128  1.936   .     S
O1065  Zn1140  1.936   .     S
O1066  Zn1126  1.936   .     S
O1067  Zn1131  1.936   .     S
O1068  Zn1132  1.936   .     S
O1069  Zn1129  1.936   .     S
O1070  Zn1130  1.936   .     S
O1071  Zn1515  1.936   .     S
O1072  Zn1134  1.936   .     S
O1073  Zn377   1.936   1_565 S
O1074  Zn1139  1.946   .     S
O1074  Zn1129  1.946   .     S
O1074  Zn1135  1.946   .     S
O1074  Zn1520  1.946   1_455 S
O1075  Zn1136  1.936   .     S
O1076  Zn1139  1.936   .     S
O1077  Zn1518  1.936   .     S
O1078  Zn1133  1.936   .     S
O1079  Zn365   1.936   1_565 S
O1080  Zn1514  1.936   .     S
O1081  Zn1135  1.936   .     S
O1082  Zn1125  1.936   .     S
O1083  Zn373   1.936   1_565 S
O1084  Zn1138  1.936   .     S
O1085  C89     1.279   1_565 A
O1085  Zn1132  1.944   .     S
O1086  Zn1519  1.936   .     S
O1087  Zn376   1.936   1_565 S
O1088  Zn1137  1.936   .     S
O1096  Zn1131  1.944   .     S
O1107  Zn1126  1.944   .     S
O1112  C49     1.411   1_565 S
O1118  Zn1140  1.944   .     S
O1118  C1232   1.279   .     S
O1124  Zn1128  1.944   .     S
Zn1127 O292    1.946   1_565 S
Zn1130 O1443   1.946   .     S
Zn1132 O281    1.946   1_565 S
Zn1134 O1460   1.936   1_455 S
Zn1135 O1451   1.936   1_455 S
Zn1138 O1457   1.936   1_455 S
Zn1139 O1466   1.936   1_455 S
Zn1140 O1454   1.946   .     S
C1141  O1469   1.384   .     S
C1141  C1202   1.401   .     A
C1141  C1220   1.411   .     S
C1142  O1479   1.384   .     S
C1142  C1212   1.399   .     A
C1142  C1225   1.408   .     S
C1143  C1268   1.402   .     A
C1143  C1239   1.455   .     S
C1143  C1275   1.402   .     A
C1144  C1267   1.402   .     A
C1144  C1278   1.402   .     A
C1144  C1240   1.455   .     S
C1145  C1266   1.402   .     A
C1145  C1241   1.455   .     S
C1145  C1277   1.402   .     A
C1146  C1265   1.402   .     A
C1146  C1242   1.455   .     S
C1146  C1280   1.402   .     A
C1147  C1243   1.455   .     S
C1147  C1264   1.402   .     A
C1147  C1279   1.402   .     A
C1148  C1263   1.402   .     A
C1148  C1283   1.402   .     A
C1148  C1253   1.455   .     S
C1149  C1254   1.455   .     S
C1149  C1262   1.402   .     A
C1149  C1281   1.402   .     A
C1150  C1246   1.455   .     S
C1150  C1261   1.402   .     A
C1150  C1285   1.402   .     A
C1151  C1259   1.402   .     A
C1151  C1284   1.402   .     A
C1151  C1247   1.455   .     S
C1152  C1248   1.455   .     S
C1152  C1287   1.402   .     A
C1152  C1258   1.402   .     A
C1153  O1480   1.384   .     S
C1153  C1213   1.399   .     A
C1153  C466    1.408   1_565 S
C1154  C1257   1.402   .     A
C1154  C1250   1.455   .     S
C1154  C1286   1.402   .     A
C1155  C1289   1.402   .     A
C1155  C1256   1.402   .     A
C1155  C1251   1.455   .     S
C1156  C1255   1.402   .     A
C1156  C1252   1.455   .     S
C1156  C1288   1.402   .     A
C1157  C1202   1.406   .     A
C1157  C1236   1.458   .     S
C1158  C1235   1.480   .     S
C1158  C1203   1.416   .     S
C1159  C1234   1.481   .     S
C1159  C1204   1.416   .     A
C1160  C1233   1.457   .     S
C1160  C1210   1.405   .     S
C1161  C1232   1.457   .     S
C1161  C1215   1.405   .     A
C1162  C1231   1.481   .     S
C1162  C1212   1.416   .     S
C1163  C1230   1.481   .     S
C1163  C1218   1.416   .     A
C1164  O1481   1.384   .     S
C1164  C1228   1.411   .     A
C1164  C1214   1.401   .     A
C1165  C1229   1.457   .     S
C1165  C1214   1.405   .     S
C1166  H1350   1.109   .     S
C1166  O1469   1.409   .     S
C1166  H1349   1.115   .     S
C1166  H1348   1.110   1_554 S
C1167  O1470   1.409   .     S
C1167  H1352   1.115   .     S
C1167  H1353   1.109   .     S
C1167  H1351   1.110   1_556 S
C1168  H1356   1.115   .     S
C1168  H1357   1.109   .     S
C1168  O1471   1.409   .     S
C1168  H1354   1.110   1_554 S
C1169  O1472   1.409   .     S
C1169  H1360   1.109   .     S
C1169  H1359   1.115   .     S
C1169  H1358   1.110   1_556 S
C1170  H1362   1.115   .     S
C1170  O1473   1.409   .     S
C1170  H1363   1.109   .     S
C1170  H1361   1.110   1_554 S
C1171  O1474   1.409   .     S
C1171  H1365   1.115   .     S
C1171  H1367   1.109   .     S
C1171  H1364   1.110   1_556 S
C1172  O1475   1.409   .     S
C1172  H1370   1.109   .     S
C1172  H1369   1.115   .     S
C1172  H1368   1.110   1_554 S
C1173  H1372   1.115   .     S
C1173  O1477   1.409   .     S
C1173  H1373   1.109   .     S
C1173  H1371   1.110   1_556 S
C1174  H1376   1.109   .     S
C1174  O1478   1.409   .     S
C1174  H994    1.110   1_655 S
C1174  H995    1.115   1_655 S
C1175  O1482   1.384   .     S
C1175  C1215   1.401   .     A
C1175  C1224   1.411   .     S
C1176  H1379   1.115   .     S
C1176  H1378   1.110   .     S
C1176  H1380   1.109   .     S
C1176  O1479   1.409   .     S
C1177  H1381   1.110   .     S
C1177  O1480   1.409   .     S
C1177  H1383   1.109   .     S
C1177  H1382   1.115   .     S
C1178  O1481   1.409   .     S
C1178  H1386   1.109   .     S
C1179  O1482   1.409   .     S
C1179  H1390   1.109   .     S
C1180  H1391   1.110   .     S
C1180  O1483   1.409   .     S
C1180  H1392   1.115   .     S
C1180  H1393   1.109   .     S
C1181  H1396   1.109   .     S
C1181  O1484   1.409   .     S
C1181  H1395   1.115   .     S
C1181  H1394   1.110   .     S
C1182  H1400   1.109   .     S
C1182  O1485   1.409   .     S
C1182  H637    1.110   1_565 S
C1182  H638    1.115   1_565 S
C1183  H1402   1.114   .     S
C1183  H1403   1.111   .     S
C1183  H1401   1.109   .     S
C1183  O1486   1.412   .     S
C1184  H1405   1.114   .     S
C1184  H1406   1.112   .     S
C1184  H1404   1.109   .     S
C1184  O728    1.411   1_565 S
C1185  H1407   1.109   .     S
C1185  H1409   1.113   .     S
C1185  O1489   1.411   .     S
C1185  H1408   1.114   .     S
C1186  O1483   1.384   .     S
C1186  C1217   1.399   .     A
C1186  C845    1.408   1_655 A
C1187  H1412   1.114   .     S
C1187  O1490   1.411   .     S
C1187  H1411   1.109   .     S
C1187  H1413   1.111   .     S
C1188  H1414   1.109   .     S
C1188  O1491   1.412   .     S
C1188  H1416   1.111   .     S
C1188  H1415   1.114   .     S
C1189  H1417   1.109   .     S
C1189  H1419   1.112   .     S
C1189  H1418   1.114   .     S
C1190  H1420   1.109   .     S
C1190  O1493   1.411   .     S
C1190  H1295   1.114   .     S
C1190  H1296   1.113   .     S
C1191  H1297   1.109   .     S
C1191  H1298   1.114   .     S
C1191  O1494   1.411   .     S
C1191  H1299   1.111   .     S
C1192  H1301   1.114   .     S
C1192  H1300   1.109   .     S
C1192  O1495   1.411   .     S
C1192  H1302   1.111   .     S
C1193  H1303   1.109   .     S
C1193  H1306   1.113   .     S
C1193  H1304   1.114   .     S
C1193  O1496   1.411   .     S
C1194  H1307   1.109   .     S
C1194  H1309   1.113   .     S
C1194  H1308   1.114   .     S
C1194  O1497   1.411   .     S
C1195  H1312   1.111   .     S
C1195  O1499   1.411   .     S
C1195  H1311   1.114   .     S
C1195  H1310   1.109   .     S
C1196  H1314   1.114   .     S
C1196  O1500   1.411   .     S
C1196  H1313   1.109   .     S
C1196  H1315   1.111   .     S
C1197  C1218   1.399   .     A
C1197  O1484   1.384   .     S
C1197  C1226   1.408   .     A
C1198  H1318   1.114   .     S
C1198  H1319   1.113   .     S
C1198  H1317   1.109   .     S
C1198  O1501   1.411   .     S
C1199  H1322   1.113   .     S
C1199  H1320   1.109   .     S
C1199  O1502   1.411   .     S
C1199  H1321   1.114   .     S
C1200  H1324   1.114   .     S
C1200  H1325   1.111   .     S
C1200  O1503   1.411   .     S
C1200  H1323   1.109   .     S
C1201  O1485   1.384   .     S
C1201  C1219   1.401   .     A
C1201  C468    1.411   1_565 S
C1202  O1486   1.385   .     S
C1203  C1205   1.399   .     A
C1203  O1488   1.383   .     S
C1204  O1489   1.383   .     S
C1205  O1470   1.384   .     S
C1205  C1221   1.408   .     S
C1206  C780    1.405   1_655 A
C1206  O1490   1.385   .     S
C1206  C1227   1.401   .     A
C1207  C1238   1.401   .     A
C1207  O1491   1.385   .     S
C1207  C397    1.406   1_565 S
C1208  C398    1.416   1_565 A
C1208  O1492   1.383   .     S
C1208  C1249   1.399   .     A
C1209  O1493   1.383   .     S
C1209  C779    1.416   1_655 S
C1209  C880    1.399   1_655 S
C1210  O1494   1.385   .     S
C1210  C1271   1.401   .     A
C1211  O1495   1.385   .     S
C1211  C1282   1.401   .     A
C1211  C781    1.405   1_655 S
C1212  O1496   1.383   .     S
C1213  O1497   1.383   .     S
C1213  C403    1.416   1_565 S
C1214  O1499   1.385   .     S
C1215  O1500   1.385   .     S
C1216  O1471   1.384   .     S
C1216  C824    1.399   1_655 S
C1216  C842    1.408   1_655 S
C1217  O1501   1.383   .     S
C1217  C782    1.416   1_655 A
C1218  O1502   1.383   .     S
C1219  O1503   1.385   .     S
C1219  C405    1.405   1_565 A
C1220  C1221   1.471   1_554 S
C1221  C1220   1.471   1_556 S
C1222  C1260   1.408   .     A
C1222  C1223   1.472   1_554 S
C1223  C1271   1.411   .     A
C1223  C1222   1.472   1_556 S
C1224  C1225   1.472   .     S
C1226  C1228   1.472   .     S
C1227  O1472   1.384   .     S
C1227  C843    1.411   1_655 S
C1229  O1504   1.279   .     S
C1230  O1476   1.285   .     A
C1231  O1487   1.285   .     S
C1232  O1424   1.279   .     A
C1233  O1425   1.279   .     S
C1233  O1429   1.279   .     S
C1234  O1430   1.285   .     A
C1234  O1426   1.285   .     A
C1235  O1427   1.285   .     S
C1235  O1431   1.285   .     S
C1236  O1428   1.279   .     S
C1236  O1433   1.279   .     S
C1237  O1434   1.280   .     A
C1237  C1292   1.455   .     S
C1237  O1462   1.280   .     A
C1238  O1473   1.384   .     S
C1238  C460    1.411   1_565 A
C1239  O1435   1.280   .     A
C1239  O1463   1.280   .     A
C1240  O1436   1.280   .     A
C1240  O1460   1.280   .     A
C1241  O1437   1.280   .     A
C1241  O1461   1.280   .     A
C1242  O1467   1.280   .     A
C1242  O1438   1.280   .     A
C1243  O1439   1.280   .     A
C1243  O1468   1.280   .     A
C1244  C1290   1.455   .     S
C1244  O1440   1.280   .     A
C1244  O1464   1.280   .     A
C1245  C1291   1.455   .     S
C1245  O1441   1.280   .     A
C1245  O1466   1.280   .     A
C1246  O1442   1.280   .     A
C1246  O1453   1.280   .     A
C1247  O1455   1.280   .     A
C1247  O1444   1.280   .     A
C1248  O1451   1.280   .     A
C1248  O1445   1.280   .     A
C1249  O1474   1.384   .     S
C1249  C461    1.408   1_565 A
C1250  O1452   1.280   .     A
C1250  O1446   1.280   .     A
C1251  O1447   1.280   .     A
C1251  O1458   1.280   .     A
C1252  O1459   1.280   .     A
C1252  O1448   1.280   .     A
C1253  O1449   1.280   .     A
C1253  O1456   1.280   .     A
C1254  O1457   1.280   .     A
C1254  O1450   1.280   .     A
C1255  H1293   1.083   .     S
C1255  C1272   1.386   .     A
C1256  C1270   1.386   .     A
C1256  H1333   1.083   .     S
C1257  C1269   1.386   .     A
C1257  H1344   1.083   .     S
C1258  H1355   1.083   .     S
C1258  C1268   1.386   .     A
C1259  H1366   1.083   .     S
C1259  C1267   1.386   .     A
C1260  O1475   1.384   .     S
C1261  C1266   1.386   .     A
C1261  H1377   1.083   .     S
C1262  C1265   1.386   .     A
C1262  H1388   1.083   .     S
C1263  H1399   1.083   .     S
C1263  C1264   1.386   .     A
C1264  H1410   1.083   .     S
C1265  H1294   1.083   .     S
C1266  H1305   1.083   .     S
C1267  H1316   1.083   .     S
C1268  H1326   1.083   .     S
C1269  C1292   1.402   .     A
C1269  H1327   1.083   .     S
C1270  C1291   1.402   .     A
C1270  H1328   1.083   .     S
C1271  O1477   1.384   .     S
C1272  C1290   1.402   .     A
C1272  H1329   1.083   .     S
C1273  C1291   1.402   .     A
C1273  H1330   1.083   .     S
C1273  C1289   1.386   .     A
C1274  H1331   1.083   .     S
C1274  C1290   1.402   .     A
C1274  C1288   1.386   .     A
C1275  H1332   1.083   .     S
C1275  C1287   1.386   .     A
C1276  C1292   1.402   .     A
C1276  C1286   1.386   .     A
C1276  H1334   1.083   .     S
C1277  H1335   1.083   .     S
C1277  C1285   1.386   .     A
C1278  H1336   1.083   .     S
C1278  C1284   1.386   .     A
C1279  C1283   1.386   .     A
C1279  H1337   1.083   .     S
C1280  H1338   1.083   .     S
C1280  C1281   1.386   .     A
C1281  H1339   1.083   .     S
C1282  C844    1.411   1_655 A
C1282  O1478   1.384   .     S
C1283  H1340   1.083   .     S
C1284  H1341   1.083   .     S
C1285  H1342   1.083   .     S
C1286  H1343   1.083   .     S
C1287  H1345   1.083   .     S
C1288  H1346   1.083   .     S
C1289  H1347   1.083   .     S
H1348  C1166   1.110   1_556 S
H1351  C1167   1.110   1_554 S
H1354  C1168   1.110   1_556 S
H1358  C1169   1.110   1_554 S
H1361  C1170   1.110   1_556 S
H1364  C1171   1.110   1_554 S
H1368  C1172   1.110   1_556 S
H1371  C1173   1.110   1_554 S
H1384  C418    1.110   1_565 S
H1385  C418    1.115   1_565 S
H1387  C799    1.110   1_655 S
H1389  C799    1.115   1_655 S
O1421  Zn1505  1.946   .     S
O1421  Zn1508  1.946   .     S
O1421  Zn1516  1.946   .     S
O1422  Zn1507  1.944   .     S
O1422  C470    1.285   1_565 S
O1423  C851    1.285   1_655 A
O1423  Zn1510  1.944   .     S
O1424  Zn1509  1.944   .     S
O1425  Zn1519  1.944   .     S
O1426  Zn1518  1.944   .     S
O1427  Zn1513  1.944   .     S
O1428  Zn1505  1.944   .     S
O1429  Zn1515  1.944   .     S
O1430  Zn1514  1.944   .     S
O1431  Zn1517  1.944   .     S
O1432  Zn1511  1.946   .     S
O1432  Zn1513  1.946   .     S
O1432  Zn1517  1.946   .     S
O1433  Zn1516  1.944   .     S
O1434  Zn1508  1.936   .     S
O1435  Zn1507  1.936   .     S
O1436  Zn1510  1.936   .     S
O1437  Zn1509  1.936   .     S
O1438  Zn1512  1.936   .     S
O1439  Zn1511  1.936   .     S
O1440  Zn1506  1.936   .     S
O1441  Zn1520  1.936   .     S
O1442  Zn1507  1.936   .     S
O1443  Zn1506  1.946   .     S
O1443  Zn1514  1.946   .     S
O1443  Zn1518  1.946   .     S
O1444  Zn1508  1.936   .     S
O1445  Zn1520  1.936   .     S
O1446  Zn1506  1.936   .     S
O1447  Zn1511  1.936   .     S
O1448  Zn1512  1.936   .     S
O1449  Zn1509  1.936   .     S
O1450  Zn1510  1.936   .     S
O1451  Zn1135  1.936   1_655 S
O1452  Zn1514  1.936   .     S
O1453  Zn757   1.936   1_565 S
O1454  Zn1519  1.946   .     S
O1454  Zn1509  1.946   .     S
O1454  Zn1515  1.946   .     S
O1455  Zn1516  1.936   .     S
O1456  Zn1519  1.936   .     S
O1457  Zn1138  1.936   1_655 S
O1458  Zn1513  1.936   .     S
O1459  Zn745   1.936   1_565 S
O1460  Zn1134  1.936   1_655 S
O1461  Zn1515  1.936   .     S
O1462  Zn1505  1.936   .     S
O1463  Zn753   1.936   1_565 S
O1464  Zn1518  1.936   .     S
O1465  C469    1.279   1_565 A
O1465  Zn1512  1.944   .     S
O1466  Zn1139  1.936   1_655 S
O1467  Zn756   1.936   1_565 S
O1468  Zn1517  1.936   .     S
O1476  Zn1511  1.944   .     S
O1487  Zn1506  1.944   .     S
O1492  C429    1.411   1_565 S
O1498  Zn1520  1.944   .     S
O1498  C852    1.279   1_655 S
O1504  Zn1508  1.944   .     S
Zn1507 O672    1.946   1_565 S
Zn1510 O1063   1.946   1_655 S
Zn1512 O661    1.946   1_565 S
Zn1520 O1074   1.946   1_655 S
