data_str_m3_o2_o10_pcu_sym.13
_audit_creation_date              2020-01-03
_audit_creation_method            'Materials Studio'
_symmetry_space_group_name_H-M    'P1'
_symmetry_Int_Tables_number       1
_symmetry_cell_setting            triclinic
loop_
_symmetry_equiv_pos_as_xyz
  x,y,z
_cell_length_a                    25.7522
_cell_length_b                    29.9575
_cell_length_c                    28.3848
_cell_angle_alpha                 89.7729
_cell_angle_beta                  98.4117
_cell_angle_gamma                 90.3403
loop_
_atom_site_label
_atom_site_type_symbol
_atom_site_fract_x
_atom_site_fract_y
_atom_site_fract_z
_atom_site_U_iso_or_equiv
_atom_site_adp_type
_atom_site_occupancy
C1     C     0.16762   0.16383   0.25019   0.00000  Uiso   1.00
C2     C     0.12632   0.23007   0.44256   0.00000  Uiso   1.00
C3     C     0.16804   0.24917   0.02686   0.00000  Uiso   1.00
C4     C     0.16801   0.24926   0.47353   0.00000  Uiso   1.00
C5     C     0.06704   0.24971   0.23760   0.00000  Uiso   1.00
C6     C     0.26628   0.25010   0.26240   0.00000  Uiso   1.00
C7     C     0.01207   0.24862   0.23091   0.00000  Uiso   1.00
C8     C     0.32124   0.25080   0.26908   0.00000  Uiso   1.00
C9     C     0.16628   0.04578   0.29100   0.00000  Uiso   1.00
C10    C     0.15932   0.45401   0.20906   0.00000  Uiso   1.00
C11    C     0.16185   0.09169   0.29061   0.00000  Uiso   1.00
C12    C     0.16744   0.33611   0.25000   0.00000  Uiso   1.00
C13    C     0.15469   0.40807   0.20876   0.00000  Uiso   1.00
C14    C     0.17261   0.11593   0.25092   0.00000  Uiso   1.00
C15    C     0.17206   0.38393   0.25026   0.00000  Uiso   1.00
C16    C     0.18978   0.09431   0.21240   0.00000  Uiso   1.00
C17    C     0.19557   0.40554   0.29163   0.00000  Uiso   1.00
C18    C     0.19508   0.04845   0.21315   0.00000  Uiso   1.00
C19    C     0.20100   0.45143   0.29170   0.00000  Uiso   1.00
C20    C     0.18243   0.02406   0.25207   0.00000  Uiso   1.00
C21    C     0.18212   0.47579   0.25065   0.00000  Uiso   1.00
C22    C     0.26718   0.32396   0.13163   0.00000  Uiso   1.00
C23    C     0.14410   0.21451   0.04985   0.00000  Uiso   1.00
C24    C     0.27826   0.37088   0.11480   0.00000  Uiso   1.00
C25    C     0.07215   0.16770   0.37395   0.00000  Uiso   1.00
C26    C     0.01603   0.16595   0.38501   0.00000  Uiso   1.00
C27    C     0.20910   0.26886   0.45269   0.00000  Uiso   1.00
C28    C     0.14356   0.21572   0.09933   0.00000  Uiso   1.00
C29    C     0.20745   0.26917   0.40290   0.00000  Uiso   1.00
C30    C     0.19167   0.28357   0.10547   0.00000  Uiso   1.00
C31    C     0.12687   0.22930   0.39269   0.00000  Uiso   1.00
C32    C     0.19144   0.28413   0.05555   0.00000  Uiso   1.00
H33    H     0.32495   0.24577   0.19469   0.00000  Uiso   1.00
H34    H     0.21933   0.46795   0.32381   0.00000  Uiso   1.00
H35    H     0.12618   0.18628   0.02995   0.00000  Uiso   1.00
H36    H     0.24268   0.28363   0.47460   0.00000  Uiso   1.00
H37    H     0.12474   0.18895   0.11628   0.00000  Uiso   1.00
H38    H     0.23916   0.28466   0.38754   0.00000  Uiso   1.00
H39    H     0.20866   0.31231   0.03948   0.00000  Uiso   1.00
H40    H     0.09287   0.21645   0.45678   0.00000  Uiso   1.00
H41    H     0.28416   0.29911   0.10901   0.00000  Uiso   1.00
H42    H     0.28826   0.31992   0.16838   0.00000  Uiso   1.00
H43    H     0.25808   0.37624   0.07794   0.00000  Uiso   1.00
H44    H     0.00831   0.25361   0.30529   0.00000  Uiso   1.00
H45    H     0.26411   0.39593   0.13866   0.00000  Uiso   1.00
H46    H     0.32115   0.37555   0.11537   0.00000  Uiso   1.00
H47    H     0.09936   0.15250   0.40384   0.00000  Uiso   1.00
H48    H     0.07397   0.14642   0.34232   0.00000  Uiso   1.00
H49    H     0.32179   0.17806   0.35386   0.00000  Uiso   1.00
H50    H     0.00542   0.13103   0.39300   0.00000  Uiso   1.00
H51    H     0.01204   0.18714   0.41624   0.00000  Uiso   1.00
H52    H     0.15563   0.02721   0.32102   0.00000  Uiso   1.00
H53    H     0.14373   0.47254   0.17734   0.00000  Uiso   1.00
H54    H     0.14918   0.10804   0.32086   0.00000  Uiso   1.00
H55    H     0.13656   0.39153   0.17657   0.00000  Uiso   1.00
H56    H     0.19932   0.11276   0.18187   0.00000  Uiso   1.00
H57    H     0.21013   0.38697   0.32363   0.00000  Uiso   1.00
H58    H     0.20834   0.03198   0.18319   0.00000  Uiso   1.00
N59    N     0.16667   0.24999   0.12623   0.00000  Uiso   1.00
N60    N     0.16667   0.25001   0.37376   0.00000  Uiso   1.00
O61    O     0.16667   0.18453   0.28974   0.00000  Uiso   1.00
O62    O     0.08493   0.21195   0.36194   0.00000  Uiso   1.00
O63    O     0.16666   0.31546   0.21026   0.00000  Uiso   1.00
O64    O     0.16667   0.18453   0.21026   0.00000  Uiso   1.00
O65    O     0.16666   0.31547   0.28974   0.00000  Uiso   1.00
O66    O     0.09058   0.25000   0.28044   0.00000  Uiso   1.00
O67    O     0.24275   0.25000   0.21955   0.00000  Uiso   1.00
O68    O     0.09058   0.24999   0.20096   0.00000  Uiso   1.00
O69    O     0.24275   0.25000   0.29903   0.00000  Uiso   1.00
O70    O     0.21275   0.31894   0.13323   0.00000  Uiso   1.00
Zn71   Zn    0.16667   0.25000   0.30307   0.00000  Uiso   1.00
Zn72   Zn    0.16667   0.24999   0.19693   0.00000  Uiso   1.00
C73    C     0.50096   0.16383   0.25019   0.00000  Uiso   1.00
C74    C     0.45966   0.23007   0.44256   0.00000  Uiso   1.00
C75    C     0.50138   0.24917   0.02686   0.00000  Uiso   1.00
C76    C     0.50134   0.24926   0.47353   0.00000  Uiso   1.00
C77    C     0.40038   0.24971   0.23760   0.00000  Uiso   1.00
C78    C     0.59961   0.25010   0.26240   0.00000  Uiso   1.00
C79    C     0.34540   0.24862   0.23091   0.00000  Uiso   1.00
C80    C     0.65458   0.25080   0.26908   0.00000  Uiso   1.00
C81    C     0.49962   0.04578   0.29100   0.00000  Uiso   1.00
C82    C     0.49266   0.45401   0.20906   0.00000  Uiso   1.00
C83    C     0.49518   0.09169   0.29061   0.00000  Uiso   1.00
C84    C     0.50077   0.33611   0.25000   0.00000  Uiso   1.00
C85    C     0.48802   0.40807   0.20876   0.00000  Uiso   1.00
C86    C     0.50594   0.11593   0.25092   0.00000  Uiso   1.00
C87    C     0.50540   0.38393   0.25026   0.00000  Uiso   1.00
C88    C     0.52311   0.09431   0.21240   0.00000  Uiso   1.00
C89    C     0.52891   0.40554   0.29163   0.00000  Uiso   1.00
C90    C     0.52841   0.04845   0.21315   0.00000  Uiso   1.00
C91    C     0.53433   0.45143   0.29170   0.00000  Uiso   1.00
C92    C     0.51576   0.02406   0.25207   0.00000  Uiso   1.00
C93    C     0.51545   0.47579   0.25065   0.00000  Uiso   1.00
C94    C     0.60052   0.32396   0.13163   0.00000  Uiso   1.00
C95    C     0.47743   0.21451   0.04985   0.00000  Uiso   1.00
C96    C     0.61160   0.37088   0.11480   0.00000  Uiso   1.00
C97    C     0.40548   0.16770   0.37395   0.00000  Uiso   1.00
C98    C     0.34936   0.16595   0.38501   0.00000  Uiso   1.00
C99    C     0.54243   0.26886   0.45269   0.00000  Uiso   1.00
C100   C     0.47689   0.21572   0.09933   0.00000  Uiso   1.00
C101   C     0.54079   0.26917   0.40290   0.00000  Uiso   1.00
C102   C     0.52500   0.28357   0.10547   0.00000  Uiso   1.00
C103   C     0.46020   0.22930   0.39269   0.00000  Uiso   1.00
C104   C     0.52477   0.28413   0.05555   0.00000  Uiso   1.00
H105   H     0.65829   0.24577   0.19469   0.00000  Uiso   1.00
H106   H     0.55266   0.46795   0.32381   0.00000  Uiso   1.00
H107   H     0.45951   0.18628   0.02995   0.00000  Uiso   1.00
H108   H     0.57601   0.28363   0.47460   0.00000  Uiso   1.00
H109   H     0.45807   0.18895   0.11628   0.00000  Uiso   1.00
H110   H     0.57249   0.28466   0.38754   0.00000  Uiso   1.00
H111   H     0.54199   0.31231   0.03948   0.00000  Uiso   1.00
H112   H     0.42620   0.21645   0.45678   0.00000  Uiso   1.00
H113   H     0.61750   0.29911   0.10901   0.00000  Uiso   1.00
H114   H     0.62160   0.31992   0.16838   0.00000  Uiso   1.00
H115   H     0.59142   0.37624   0.07794   0.00000  Uiso   1.00
H116   H     0.34164   0.25361   0.30529   0.00000  Uiso   1.00
H117   H     0.59744   0.39593   0.13866   0.00000  Uiso   1.00
H118   H     0.65449   0.37555   0.11537   0.00000  Uiso   1.00
H119   H     0.43269   0.15250   0.40384   0.00000  Uiso   1.00
H120   H     0.40730   0.14642   0.34232   0.00000  Uiso   1.00
H121   H     0.65512   0.17806   0.35386   0.00000  Uiso   1.00
H122   H     0.33875   0.13103   0.39300   0.00000  Uiso   1.00
H123   H     0.34538   0.18714   0.41624   0.00000  Uiso   1.00
H124   H     0.48896   0.02721   0.32102   0.00000  Uiso   1.00
H125   H     0.47706   0.47254   0.17734   0.00000  Uiso   1.00
H126   H     0.48251   0.10804   0.32086   0.00000  Uiso   1.00
H127   H     0.46990   0.39153   0.17657   0.00000  Uiso   1.00
H128   H     0.53266   0.11276   0.18187   0.00000  Uiso   1.00
H129   H     0.54346   0.38697   0.32363   0.00000  Uiso   1.00
H130   H     0.54168   0.03198   0.18319   0.00000  Uiso   1.00
N131   N     0.50000   0.24999   0.12623   0.00000  Uiso   1.00
N132   N     0.50000   0.25001   0.37376   0.00000  Uiso   1.00
O133   O     0.50000   0.18453   0.28974   0.00000  Uiso   1.00
O134   O     0.41826   0.21195   0.36194   0.00000  Uiso   1.00
O135   O     0.50000   0.31546   0.21026   0.00000  Uiso   1.00
O136   O     0.50000   0.18453   0.21026   0.00000  Uiso   1.00
O137   O     0.50000   0.31547   0.28974   0.00000  Uiso   1.00
O138   O     0.42392   0.25000   0.28044   0.00000  Uiso   1.00
O139   O     0.57608   0.25000   0.21955   0.00000  Uiso   1.00
O140   O     0.42392   0.24999   0.20096   0.00000  Uiso   1.00
O141   O     0.57608   0.25000   0.29903   0.00000  Uiso   1.00
O142   O     0.54609   0.31894   0.13323   0.00000  Uiso   1.00
Zn143  Zn    0.50000   0.25000   0.30307   0.00000  Uiso   1.00
Zn144  Zn    0.50000   0.24999   0.19693   0.00000  Uiso   1.00
C145   C     0.83429   0.16383   0.25019   0.00000  Uiso   1.00
C146   C     0.79299   0.23007   0.44256   0.00000  Uiso   1.00
C147   C     0.83471   0.24917   0.02686   0.00000  Uiso   1.00
C148   C     0.83467   0.24926   0.47353   0.00000  Uiso   1.00
C149   C     0.73371   0.24971   0.23760   0.00000  Uiso   1.00
C150   C     0.93295   0.25010   0.26240   0.00000  Uiso   1.00
C151   C     0.67873   0.24862   0.23091   0.00000  Uiso   1.00
C152   C     0.98791   0.25080   0.26908   0.00000  Uiso   1.00
C153   C     0.83295   0.04578   0.29100   0.00000  Uiso   1.00
C154   C     0.82599   0.45401   0.20906   0.00000  Uiso   1.00
C155   C     0.82852   0.09169   0.29061   0.00000  Uiso   1.00
C156   C     0.83411   0.33611   0.25000   0.00000  Uiso   1.00
C157   C     0.82136   0.40807   0.20876   0.00000  Uiso   1.00
C158   C     0.83927   0.11593   0.25092   0.00000  Uiso   1.00
C159   C     0.83873   0.38393   0.25026   0.00000  Uiso   1.00
C160   C     0.85644   0.09431   0.21240   0.00000  Uiso   1.00
C161   C     0.86224   0.40554   0.29163   0.00000  Uiso   1.00
C162   C     0.86174   0.04845   0.21315   0.00000  Uiso   1.00
C163   C     0.86766   0.45143   0.29170   0.00000  Uiso   1.00
C164   C     0.84910   0.02406   0.25207   0.00000  Uiso   1.00
C165   C     0.84879   0.47579   0.25065   0.00000  Uiso   1.00
C166   C     0.93385   0.32396   0.13163   0.00000  Uiso   1.00
C167   C     0.81076   0.21451   0.04985   0.00000  Uiso   1.00
C168   C     0.94493   0.37088   0.11480   0.00000  Uiso   1.00
C169   C     0.73882   0.16770   0.37395   0.00000  Uiso   1.00
C170   C     0.68270   0.16595   0.38501   0.00000  Uiso   1.00
C171   C     0.87576   0.26886   0.45269   0.00000  Uiso   1.00
C172   C     0.81022   0.21572   0.09933   0.00000  Uiso   1.00
C173   C     0.87412   0.26917   0.40290   0.00000  Uiso   1.00
C174   C     0.85834   0.28357   0.10547   0.00000  Uiso   1.00
C175   C     0.79353   0.22930   0.39269   0.00000  Uiso   1.00
C176   C     0.85810   0.28413   0.05555   0.00000  Uiso   1.00
H177   H     0.99162   0.24577   0.19469   0.00000  Uiso   1.00
H178   H     0.88599   0.46795   0.32381   0.00000  Uiso   1.00
H179   H     0.79285   0.18628   0.02995   0.00000  Uiso   1.00
H180   H     0.90935   0.28363   0.47460   0.00000  Uiso   1.00
H181   H     0.79140   0.18895   0.11628   0.00000  Uiso   1.00
H182   H     0.90582   0.28466   0.38754   0.00000  Uiso   1.00
H183   H     0.87533   0.31231   0.03948   0.00000  Uiso   1.00
H184   H     0.75953   0.21645   0.45678   0.00000  Uiso   1.00
H185   H     0.95083   0.29911   0.10901   0.00000  Uiso   1.00
H186   H     0.95493   0.31992   0.16838   0.00000  Uiso   1.00
H187   H     0.92475   0.37624   0.07794   0.00000  Uiso   1.00
H188   H     0.67497   0.25361   0.30529   0.00000  Uiso   1.00
H189   H     0.93078   0.39593   0.13866   0.00000  Uiso   1.00
H190   H     0.98782   0.37555   0.11537   0.00000  Uiso   1.00
H191   H     0.76603   0.15250   0.40384   0.00000  Uiso   1.00
H192   H     0.74063   0.14642   0.34232   0.00000  Uiso   1.00
H193   H     0.98846   0.17806   0.35386   0.00000  Uiso   1.00
H194   H     0.67208   0.13103   0.39300   0.00000  Uiso   1.00
H195   H     0.67871   0.18714   0.41624   0.00000  Uiso   1.00
H196   H     0.82230   0.02721   0.32102   0.00000  Uiso   1.00
H197   H     0.81040   0.47254   0.17734   0.00000  Uiso   1.00
H198   H     0.81585   0.10804   0.32086   0.00000  Uiso   1.00
H199   H     0.80323   0.39153   0.17657   0.00000  Uiso   1.00
H200   H     0.86599   0.11276   0.18187   0.00000  Uiso   1.00
H201   H     0.87679   0.38697   0.32363   0.00000  Uiso   1.00
H202   H     0.87501   0.03198   0.18319   0.00000  Uiso   1.00
N203   N     0.83333   0.24999   0.12623   0.00000  Uiso   1.00
N204   N     0.83333   0.25001   0.37376   0.00000  Uiso   1.00
O205   O     0.83334   0.18453   0.28974   0.00000  Uiso   1.00
O206   O     0.75160   0.21195   0.36194   0.00000  Uiso   1.00
O207   O     0.83333   0.31546   0.21026   0.00000  Uiso   1.00
O208   O     0.83334   0.18453   0.21026   0.00000  Uiso   1.00
O209   O     0.83333   0.31547   0.28974   0.00000  Uiso   1.00
O210   O     0.75725   0.25000   0.28044   0.00000  Uiso   1.00
O211   O     0.90942   0.25000   0.21955   0.00000  Uiso   1.00
O212   O     0.75725   0.24999   0.20096   0.00000  Uiso   1.00
O213   O     0.90942   0.25000   0.29903   0.00000  Uiso   1.00
O214   O     0.87942   0.31894   0.13323   0.00000  Uiso   1.00
Zn215  Zn    0.83333   0.25000   0.30307   0.00000  Uiso   1.00
Zn216  Zn    0.83333   0.24999   0.19693   0.00000  Uiso   1.00
C217   C     0.16762   0.66383   0.25019   0.00000  Uiso   1.00
C218   C     0.12632   0.73007   0.44256   0.00000  Uiso   1.00
C219   C     0.16804   0.74917   0.02686   0.00000  Uiso   1.00
C220   C     0.16801   0.74926   0.47353   0.00000  Uiso   1.00
C221   C     0.06704   0.74971   0.23760   0.00000  Uiso   1.00
C222   C     0.26628   0.75010   0.26240   0.00000  Uiso   1.00
C223   C     0.01207   0.74862   0.23091   0.00000  Uiso   1.00
C224   C     0.32124   0.75080   0.26908   0.00000  Uiso   1.00
C225   C     0.16628   0.54578   0.29100   0.00000  Uiso   1.00
C226   C     0.15932   0.95401   0.20906   0.00000  Uiso   1.00
C227   C     0.16185   0.59169   0.29061   0.00000  Uiso   1.00
C228   C     0.16744   0.83611   0.25000   0.00000  Uiso   1.00
C229   C     0.15469   0.90807   0.20876   0.00000  Uiso   1.00
C230   C     0.17261   0.61593   0.25092   0.00000  Uiso   1.00
C231   C     0.17206   0.88393   0.25026   0.00000  Uiso   1.00
C232   C     0.18978   0.59431   0.21240   0.00000  Uiso   1.00
C233   C     0.19557   0.90554   0.29163   0.00000  Uiso   1.00
C234   C     0.19508   0.54845   0.21315   0.00000  Uiso   1.00
C235   C     0.20100   0.95143   0.29170   0.00000  Uiso   1.00
C236   C     0.18243   0.52406   0.25207   0.00000  Uiso   1.00
C237   C     0.18212   0.97579   0.25065   0.00000  Uiso   1.00
C238   C     0.26718   0.82396   0.13163   0.00000  Uiso   1.00
C239   C     0.14410   0.71451   0.04985   0.00000  Uiso   1.00
C240   C     0.27826   0.87088   0.11480   0.00000  Uiso   1.00
C241   C     0.07215   0.66770   0.37395   0.00000  Uiso   1.00
C242   C     0.01603   0.66595   0.38501   0.00000  Uiso   1.00
C243   C     0.20910   0.76886   0.45269   0.00000  Uiso   1.00
C244   C     0.14356   0.71572   0.09933   0.00000  Uiso   1.00
C245   C     0.20745   0.76917   0.40290   0.00000  Uiso   1.00
C246   C     0.19167   0.78357   0.10547   0.00000  Uiso   1.00
C247   C     0.12687   0.72930   0.39269   0.00000  Uiso   1.00
C248   C     0.19144   0.78413   0.05555   0.00000  Uiso   1.00
H249   H     0.32495   0.74577   0.19469   0.00000  Uiso   1.00
H250   H     0.21933   0.96795   0.32381   0.00000  Uiso   1.00
H251   H     0.12618   0.68628   0.02995   0.00000  Uiso   1.00
H252   H     0.24268   0.78363   0.47460   0.00000  Uiso   1.00
H253   H     0.12474   0.68895   0.11628   0.00000  Uiso   1.00
H254   H     0.23916   0.78466   0.38754   0.00000  Uiso   1.00
H255   H     0.20866   0.81231   0.03948   0.00000  Uiso   1.00
H256   H     0.09287   0.71645   0.45678   0.00000  Uiso   1.00
H257   H     0.28416   0.79911   0.10901   0.00000  Uiso   1.00
H258   H     0.28826   0.81992   0.16838   0.00000  Uiso   1.00
H259   H     0.25808   0.87624   0.07794   0.00000  Uiso   1.00
H260   H     0.00831   0.75361   0.30529   0.00000  Uiso   1.00
H261   H     0.26411   0.89593   0.13866   0.00000  Uiso   1.00
H262   H     0.32115   0.87555   0.11537   0.00000  Uiso   1.00
H263   H     0.09936   0.65250   0.40384   0.00000  Uiso   1.00
H264   H     0.07397   0.64642   0.34232   0.00000  Uiso   1.00
H265   H     0.32179   0.67806   0.35386   0.00000  Uiso   1.00
H266   H     0.00542   0.63103   0.39300   0.00000  Uiso   1.00
H267   H     0.01204   0.68714   0.41624   0.00000  Uiso   1.00
H268   H     0.15563   0.52721   0.32102   0.00000  Uiso   1.00
H269   H     0.14373   0.97254   0.17734   0.00000  Uiso   1.00
H270   H     0.14918   0.60804   0.32086   0.00000  Uiso   1.00
H271   H     0.13656   0.89153   0.17657   0.00000  Uiso   1.00
H272   H     0.19932   0.61276   0.18187   0.00000  Uiso   1.00
H273   H     0.21013   0.88697   0.32363   0.00000  Uiso   1.00
H274   H     0.20834   0.53198   0.18319   0.00000  Uiso   1.00
N275   N     0.16667   0.74999   0.12623   0.00000  Uiso   1.00
N276   N     0.16667   0.75001   0.37376   0.00000  Uiso   1.00
O277   O     0.16667   0.68453   0.28974   0.00000  Uiso   1.00
O278   O     0.08493   0.71195   0.36194   0.00000  Uiso   1.00
O279   O     0.16666   0.81546   0.21026   0.00000  Uiso   1.00
O280   O     0.16667   0.68453   0.21026   0.00000  Uiso   1.00
O281   O     0.16666   0.81547   0.28974   0.00000  Uiso   1.00
O282   O     0.09058   0.75000   0.28044   0.00000  Uiso   1.00
O283   O     0.24275   0.75000   0.21955   0.00000  Uiso   1.00
O284   O     0.09058   0.74999   0.20096   0.00000  Uiso   1.00
O285   O     0.24275   0.75000   0.29903   0.00000  Uiso   1.00
O286   O     0.21275   0.81894   0.13323   0.00000  Uiso   1.00
Zn287  Zn    0.16667   0.75000   0.30307   0.00000  Uiso   1.00
Zn288  Zn    0.16667   0.74999   0.19693   0.00000  Uiso   1.00
C289   C     0.50096   0.66383   0.25019   0.00000  Uiso   1.00
C290   C     0.45966   0.73007   0.44256   0.00000  Uiso   1.00
C291   C     0.50138   0.74917   0.02686   0.00000  Uiso   1.00
C292   C     0.50134   0.74926   0.47353   0.00000  Uiso   1.00
C293   C     0.40038   0.74971   0.23760   0.00000  Uiso   1.00
C294   C     0.59961   0.75010   0.26240   0.00000  Uiso   1.00
C295   C     0.34540   0.74862   0.23091   0.00000  Uiso   1.00
C296   C     0.65458   0.75080   0.26908   0.00000  Uiso   1.00
C297   C     0.49962   0.54578   0.29100   0.00000  Uiso   1.00
C298   C     0.49266   0.95401   0.20906   0.00000  Uiso   1.00
C299   C     0.49518   0.59169   0.29061   0.00000  Uiso   1.00
C300   C     0.50077   0.83611   0.25000   0.00000  Uiso   1.00
C301   C     0.48802   0.90807   0.20876   0.00000  Uiso   1.00
C302   C     0.50594   0.61593   0.25092   0.00000  Uiso   1.00
C303   C     0.50540   0.88393   0.25026   0.00000  Uiso   1.00
C304   C     0.52311   0.59431   0.21240   0.00000  Uiso   1.00
C305   C     0.52891   0.90554   0.29163   0.00000  Uiso   1.00
C306   C     0.52841   0.54845   0.21315   0.00000  Uiso   1.00
C307   C     0.53433   0.95143   0.29170   0.00000  Uiso   1.00
C308   C     0.51576   0.52406   0.25207   0.00000  Uiso   1.00
C309   C     0.51545   0.97579   0.25065   0.00000  Uiso   1.00
C310   C     0.60052   0.82396   0.13163   0.00000  Uiso   1.00
C311   C     0.47743   0.71451   0.04985   0.00000  Uiso   1.00
C312   C     0.61160   0.87088   0.11480   0.00000  Uiso   1.00
C313   C     0.40548   0.66770   0.37395   0.00000  Uiso   1.00
C314   C     0.34936   0.66595   0.38501   0.00000  Uiso   1.00
C315   C     0.54243   0.76886   0.45269   0.00000  Uiso   1.00
C316   C     0.47689   0.71572   0.09933   0.00000  Uiso   1.00
C317   C     0.54079   0.76917   0.40290   0.00000  Uiso   1.00
C318   C     0.52500   0.78357   0.10547   0.00000  Uiso   1.00
C319   C     0.46020   0.72930   0.39269   0.00000  Uiso   1.00
C320   C     0.52477   0.78413   0.05555   0.00000  Uiso   1.00
H321   H     0.65829   0.74577   0.19469   0.00000  Uiso   1.00
H322   H     0.55266   0.96795   0.32381   0.00000  Uiso   1.00
H323   H     0.45951   0.68628   0.02995   0.00000  Uiso   1.00
H324   H     0.57601   0.78363   0.47460   0.00000  Uiso   1.00
H325   H     0.45807   0.68895   0.11628   0.00000  Uiso   1.00
H326   H     0.57249   0.78466   0.38754   0.00000  Uiso   1.00
H327   H     0.54199   0.81231   0.03948   0.00000  Uiso   1.00
H328   H     0.42620   0.71645   0.45678   0.00000  Uiso   1.00
H329   H     0.61750   0.79911   0.10901   0.00000  Uiso   1.00
H330   H     0.62160   0.81992   0.16838   0.00000  Uiso   1.00
H331   H     0.59142   0.87624   0.07794   0.00000  Uiso   1.00
H332   H     0.34164   0.75361   0.30529   0.00000  Uiso   1.00
H333   H     0.59744   0.89593   0.13866   0.00000  Uiso   1.00
H334   H     0.65449   0.87555   0.11537   0.00000  Uiso   1.00
H335   H     0.43269   0.65250   0.40384   0.00000  Uiso   1.00
H336   H     0.40730   0.64642   0.34232   0.00000  Uiso   1.00
H337   H     0.65512   0.67806   0.35386   0.00000  Uiso   1.00
H338   H     0.33875   0.63103   0.39300   0.00000  Uiso   1.00
H339   H     0.34538   0.68714   0.41624   0.00000  Uiso   1.00
H340   H     0.48896   0.52721   0.32102   0.00000  Uiso   1.00
H341   H     0.47706   0.97254   0.17734   0.00000  Uiso   1.00
H342   H     0.48251   0.60804   0.32086   0.00000  Uiso   1.00
H343   H     0.46990   0.89153   0.17657   0.00000  Uiso   1.00
H344   H     0.53266   0.61276   0.18187   0.00000  Uiso   1.00
H345   H     0.54346   0.88697   0.32363   0.00000  Uiso   1.00
H346   H     0.54168   0.53198   0.18319   0.00000  Uiso   1.00
N347   N     0.50000   0.74999   0.12623   0.00000  Uiso   1.00
N348   N     0.50000   0.75001   0.37376   0.00000  Uiso   1.00
O349   O     0.50000   0.68453   0.28974   0.00000  Uiso   1.00
O350   O     0.41826   0.71195   0.36194   0.00000  Uiso   1.00
O351   O     0.50000   0.81546   0.21026   0.00000  Uiso   1.00
O352   O     0.50000   0.68453   0.21026   0.00000  Uiso   1.00
O353   O     0.50000   0.81547   0.28974   0.00000  Uiso   1.00
O354   O     0.42392   0.75000   0.28044   0.00000  Uiso   1.00
O355   O     0.57608   0.75000   0.21955   0.00000  Uiso   1.00
O356   O     0.42392   0.74999   0.20096   0.00000  Uiso   1.00
O357   O     0.57608   0.75000   0.29903   0.00000  Uiso   1.00
O358   O     0.54609   0.81894   0.13323   0.00000  Uiso   1.00
Zn359  Zn    0.50000   0.75000   0.30307   0.00000  Uiso   1.00
Zn360  Zn    0.50000   0.74999   0.19693   0.00000  Uiso   1.00
C361   C     0.83429   0.66383   0.25019   0.00000  Uiso   1.00
C362   C     0.79299   0.73007   0.44256   0.00000  Uiso   1.00
C363   C     0.83471   0.74917   0.02686   0.00000  Uiso   1.00
C364   C     0.83467   0.74926   0.47353   0.00000  Uiso   1.00
C365   C     0.73371   0.74971   0.23760   0.00000  Uiso   1.00
C366   C     0.93295   0.75010   0.26240   0.00000  Uiso   1.00
C367   C     0.67873   0.74862   0.23091   0.00000  Uiso   1.00
C368   C     0.98791   0.75080   0.26908   0.00000  Uiso   1.00
C369   C     0.83295   0.54578   0.29100   0.00000  Uiso   1.00
C370   C     0.82599   0.95401   0.20906   0.00000  Uiso   1.00
C371   C     0.82852   0.59169   0.29061   0.00000  Uiso   1.00
C372   C     0.83411   0.83611   0.25000   0.00000  Uiso   1.00
C373   C     0.82136   0.90807   0.20876   0.00000  Uiso   1.00
C374   C     0.83927   0.61593   0.25092   0.00000  Uiso   1.00
C375   C     0.83873   0.88393   0.25026   0.00000  Uiso   1.00
C376   C     0.85644   0.59431   0.21240   0.00000  Uiso   1.00
C377   C     0.86224   0.90554   0.29163   0.00000  Uiso   1.00
C378   C     0.86174   0.54845   0.21315   0.00000  Uiso   1.00
C379   C     0.86766   0.95143   0.29170   0.00000  Uiso   1.00
C380   C     0.84910   0.52406   0.25207   0.00000  Uiso   1.00
C381   C     0.84879   0.97579   0.25065   0.00000  Uiso   1.00
C382   C     0.93385   0.82396   0.13163   0.00000  Uiso   1.00
C383   C     0.81076   0.71451   0.04985   0.00000  Uiso   1.00
C384   C     0.94493   0.87088   0.11480   0.00000  Uiso   1.00
C385   C     0.73882   0.66770   0.37395   0.00000  Uiso   1.00
C386   C     0.68270   0.66595   0.38501   0.00000  Uiso   1.00
C387   C     0.87576   0.76886   0.45269   0.00000  Uiso   1.00
C388   C     0.81022   0.71572   0.09933   0.00000  Uiso   1.00
C389   C     0.87412   0.76917   0.40290   0.00000  Uiso   1.00
C390   C     0.85834   0.78357   0.10547   0.00000  Uiso   1.00
C391   C     0.79353   0.72930   0.39269   0.00000  Uiso   1.00
C392   C     0.85810   0.78413   0.05555   0.00000  Uiso   1.00
H393   H     0.99162   0.74577   0.19469   0.00000  Uiso   1.00
H394   H     0.88599   0.96795   0.32381   0.00000  Uiso   1.00
H395   H     0.79285   0.68628   0.02995   0.00000  Uiso   1.00
H396   H     0.90935   0.78363   0.47460   0.00000  Uiso   1.00
H397   H     0.79140   0.68895   0.11628   0.00000  Uiso   1.00
H398   H     0.90582   0.78466   0.38754   0.00000  Uiso   1.00
H399   H     0.87533   0.81231   0.03948   0.00000  Uiso   1.00
H400   H     0.75953   0.71645   0.45678   0.00000  Uiso   1.00
H401   H     0.95083   0.79911   0.10901   0.00000  Uiso   1.00
H402   H     0.95493   0.81992   0.16838   0.00000  Uiso   1.00
H403   H     0.92475   0.87624   0.07794   0.00000  Uiso   1.00
H404   H     0.67497   0.75361   0.30529   0.00000  Uiso   1.00
H405   H     0.93078   0.89593   0.13866   0.00000  Uiso   1.00
H406   H     0.98782   0.87555   0.11537   0.00000  Uiso   1.00
H407   H     0.76603   0.65250   0.40384   0.00000  Uiso   1.00
H408   H     0.74063   0.64642   0.34232   0.00000  Uiso   1.00
H409   H     0.98846   0.67806   0.35386   0.00000  Uiso   1.00
H410   H     0.67208   0.63103   0.39300   0.00000  Uiso   1.00
H411   H     0.67871   0.68714   0.41624   0.00000  Uiso   1.00
H412   H     0.82230   0.52721   0.32102   0.00000  Uiso   1.00
H413   H     0.81040   0.97254   0.17734   0.00000  Uiso   1.00
H414   H     0.81585   0.60804   0.32086   0.00000  Uiso   1.00
H415   H     0.80323   0.89153   0.17657   0.00000  Uiso   1.00
H416   H     0.86599   0.61276   0.18187   0.00000  Uiso   1.00
H417   H     0.87679   0.88697   0.32363   0.00000  Uiso   1.00
H418   H     0.87501   0.53198   0.18319   0.00000  Uiso   1.00
N419   N     0.83333   0.74999   0.12623   0.00000  Uiso   1.00
N420   N     0.83333   0.75001   0.37376   0.00000  Uiso   1.00
O421   O     0.83334   0.68453   0.28974   0.00000  Uiso   1.00
O422   O     0.75160   0.71195   0.36194   0.00000  Uiso   1.00
O423   O     0.83333   0.81546   0.21026   0.00000  Uiso   1.00
O424   O     0.83334   0.68453   0.21026   0.00000  Uiso   1.00
O425   O     0.83333   0.81547   0.28974   0.00000  Uiso   1.00
O426   O     0.75725   0.75000   0.28044   0.00000  Uiso   1.00
O427   O     0.90942   0.75000   0.21955   0.00000  Uiso   1.00
O428   O     0.75725   0.74999   0.20096   0.00000  Uiso   1.00
O429   O     0.90942   0.75000   0.29903   0.00000  Uiso   1.00
O430   O     0.87942   0.81894   0.13323   0.00000  Uiso   1.00
Zn431  Zn    0.83333   0.75000   0.30307   0.00000  Uiso   1.00
Zn432  Zn    0.83333   0.74999   0.19693   0.00000  Uiso   1.00
C433   C     0.16762   0.16383   0.75019   0.00000  Uiso   1.00
C434   C     0.12632   0.23007   0.94256   0.00000  Uiso   1.00
C435   C     0.16804   0.24917   0.52686   0.00000  Uiso   1.00
C436   C     0.16801   0.24926   0.97353   0.00000  Uiso   1.00
C437   C     0.06704   0.24971   0.73760   0.00000  Uiso   1.00
C438   C     0.26628   0.25010   0.76240   0.00000  Uiso   1.00
C439   C     0.01207   0.24862   0.73091   0.00000  Uiso   1.00
C440   C     0.32124   0.25080   0.76908   0.00000  Uiso   1.00
C441   C     0.16628   0.04578   0.79100   0.00000  Uiso   1.00
C442   C     0.15932   0.45401   0.70906   0.00000  Uiso   1.00
C443   C     0.16185   0.09169   0.79061   0.00000  Uiso   1.00
C444   C     0.16744   0.33611   0.75000   0.00000  Uiso   1.00
C445   C     0.15469   0.40807   0.70876   0.00000  Uiso   1.00
C446   C     0.17261   0.11593   0.75092   0.00000  Uiso   1.00
C447   C     0.17206   0.38393   0.75026   0.00000  Uiso   1.00
C448   C     0.18978   0.09431   0.71240   0.00000  Uiso   1.00
C449   C     0.19557   0.40554   0.79163   0.00000  Uiso   1.00
C450   C     0.19508   0.04845   0.71315   0.00000  Uiso   1.00
C451   C     0.20100   0.45143   0.79170   0.00000  Uiso   1.00
C452   C     0.18243   0.02406   0.75207   0.00000  Uiso   1.00
C453   C     0.18212   0.47579   0.75065   0.00000  Uiso   1.00
C454   C     0.26718   0.32396   0.63163   0.00000  Uiso   1.00
C455   C     0.14410   0.21451   0.54985   0.00000  Uiso   1.00
C456   C     0.27826   0.37088   0.61480   0.00000  Uiso   1.00
C457   C     0.07215   0.16770   0.87395   0.00000  Uiso   1.00
C458   C     0.01603   0.16595   0.88501   0.00000  Uiso   1.00
C459   C     0.20910   0.26886   0.95269   0.00000  Uiso   1.00
C460   C     0.14356   0.21572   0.59933   0.00000  Uiso   1.00
C461   C     0.20745   0.26917   0.90290   0.00000  Uiso   1.00
C462   C     0.19167   0.28357   0.60547   0.00000  Uiso   1.00
C463   C     0.12687   0.22930   0.89269   0.00000  Uiso   1.00
C464   C     0.19144   0.28413   0.55555   0.00000  Uiso   1.00
H465   H     0.32495   0.24577   0.69469   0.00000  Uiso   1.00
H466   H     0.21933   0.46795   0.82381   0.00000  Uiso   1.00
H467   H     0.12618   0.18628   0.52995   0.00000  Uiso   1.00
H468   H     0.24268   0.28363   0.97460   0.00000  Uiso   1.00
H469   H     0.12474   0.18895   0.61628   0.00000  Uiso   1.00
H470   H     0.23916   0.28466   0.88754   0.00000  Uiso   1.00
H471   H     0.20866   0.31231   0.53948   0.00000  Uiso   1.00
H472   H     0.09287   0.21645   0.95678   0.00000  Uiso   1.00
H473   H     0.28416   0.29911   0.60901   0.00000  Uiso   1.00
H474   H     0.28826   0.31992   0.66838   0.00000  Uiso   1.00
H475   H     0.25808   0.37624   0.57794   0.00000  Uiso   1.00
H476   H     0.00831   0.25361   0.80529   0.00000  Uiso   1.00
H477   H     0.26411   0.39593   0.63866   0.00000  Uiso   1.00
H478   H     0.32115   0.37555   0.61537   0.00000  Uiso   1.00
H479   H     0.09936   0.15250   0.90384   0.00000  Uiso   1.00
H480   H     0.07397   0.14642   0.84232   0.00000  Uiso   1.00
H481   H     0.32179   0.17806   0.85386   0.00000  Uiso   1.00
H482   H     0.00542   0.13103   0.89300   0.00000  Uiso   1.00
H483   H     0.01204   0.18714   0.91624   0.00000  Uiso   1.00
H484   H     0.15563   0.02721   0.82102   0.00000  Uiso   1.00
H485   H     0.14373   0.47254   0.67734   0.00000  Uiso   1.00
H486   H     0.14918   0.10804   0.82086   0.00000  Uiso   1.00
H487   H     0.13656   0.39153   0.67657   0.00000  Uiso   1.00
H488   H     0.19932   0.11276   0.68187   0.00000  Uiso   1.00
H489   H     0.21013   0.38697   0.82363   0.00000  Uiso   1.00
H490   H     0.20834   0.03198   0.68319   0.00000  Uiso   1.00
N491   N     0.16667   0.24999   0.62623   0.00000  Uiso   1.00
N492   N     0.16667   0.25001   0.87376   0.00000  Uiso   1.00
O493   O     0.16667   0.18453   0.78974   0.00000  Uiso   1.00
O494   O     0.08493   0.21195   0.86194   0.00000  Uiso   1.00
O495   O     0.16666   0.31546   0.71026   0.00000  Uiso   1.00
O496   O     0.16667   0.18453   0.71026   0.00000  Uiso   1.00
O497   O     0.16666   0.31547   0.78974   0.00000  Uiso   1.00
O498   O     0.09058   0.25000   0.78044   0.00000  Uiso   1.00
O499   O     0.24275   0.25000   0.71955   0.00000  Uiso   1.00
O500   O     0.09058   0.24999   0.70096   0.00000  Uiso   1.00
O501   O     0.24275   0.25000   0.79903   0.00000  Uiso   1.00
O502   O     0.21275   0.31894   0.63323   0.00000  Uiso   1.00
Zn503  Zn    0.16667   0.25000   0.80307   0.00000  Uiso   1.00
Zn504  Zn    0.16667   0.24999   0.69693   0.00000  Uiso   1.00
C505   C     0.50096   0.16383   0.75019   0.00000  Uiso   1.00
C506   C     0.45966   0.23007   0.94256   0.00000  Uiso   1.00
C507   C     0.50138   0.24917   0.52686   0.00000  Uiso   1.00
C508   C     0.50134   0.24926   0.97353   0.00000  Uiso   1.00
C509   C     0.40038   0.24971   0.73760   0.00000  Uiso   1.00
C510   C     0.59961   0.25010   0.76240   0.00000  Uiso   1.00
C511   C     0.34540   0.24862   0.73091   0.00000  Uiso   1.00
C512   C     0.65458   0.25080   0.76908   0.00000  Uiso   1.00
C513   C     0.49962   0.04578   0.79100   0.00000  Uiso   1.00
C514   C     0.49266   0.45401   0.70906   0.00000  Uiso   1.00
C515   C     0.49518   0.09169   0.79061   0.00000  Uiso   1.00
C516   C     0.50077   0.33611   0.75000   0.00000  Uiso   1.00
C517   C     0.48802   0.40807   0.70876   0.00000  Uiso   1.00
C518   C     0.50594   0.11593   0.75092   0.00000  Uiso   1.00
C519   C     0.50540   0.38393   0.75026   0.00000  Uiso   1.00
C520   C     0.52311   0.09431   0.71240   0.00000  Uiso   1.00
C521   C     0.52891   0.40554   0.79163   0.00000  Uiso   1.00
C522   C     0.52841   0.04845   0.71315   0.00000  Uiso   1.00
C523   C     0.53433   0.45143   0.79170   0.00000  Uiso   1.00
C524   C     0.51576   0.02406   0.75207   0.00000  Uiso   1.00
C525   C     0.51545   0.47579   0.75065   0.00000  Uiso   1.00
C526   C     0.60052   0.32396   0.63163   0.00000  Uiso   1.00
C527   C     0.47743   0.21451   0.54985   0.00000  Uiso   1.00
C528   C     0.61160   0.37088   0.61480   0.00000  Uiso   1.00
C529   C     0.40548   0.16770   0.87395   0.00000  Uiso   1.00
C530   C     0.34936   0.16595   0.88501   0.00000  Uiso   1.00
C531   C     0.54243   0.26886   0.95269   0.00000  Uiso   1.00
C532   C     0.47689   0.21572   0.59933   0.00000  Uiso   1.00
C533   C     0.54079   0.26917   0.90290   0.00000  Uiso   1.00
C534   C     0.52500   0.28357   0.60547   0.00000  Uiso   1.00
C535   C     0.46020   0.22930   0.89269   0.00000  Uiso   1.00
C536   C     0.52477   0.28413   0.55555   0.00000  Uiso   1.00
H537   H     0.65829   0.24577   0.69469   0.00000  Uiso   1.00
H538   H     0.55266   0.46795   0.82381   0.00000  Uiso   1.00
H539   H     0.45951   0.18628   0.52995   0.00000  Uiso   1.00
H540   H     0.57601   0.28363   0.97460   0.00000  Uiso   1.00
H541   H     0.45807   0.18895   0.61628   0.00000  Uiso   1.00
H542   H     0.57249   0.28466   0.88754   0.00000  Uiso   1.00
H543   H     0.54199   0.31231   0.53948   0.00000  Uiso   1.00
H544   H     0.42620   0.21645   0.95678   0.00000  Uiso   1.00
H545   H     0.61750   0.29911   0.60901   0.00000  Uiso   1.00
H546   H     0.62160   0.31992   0.66838   0.00000  Uiso   1.00
H547   H     0.59142   0.37624   0.57794   0.00000  Uiso   1.00
H548   H     0.34164   0.25361   0.80529   0.00000  Uiso   1.00
H549   H     0.59744   0.39593   0.63866   0.00000  Uiso   1.00
H550   H     0.65449   0.37555   0.61537   0.00000  Uiso   1.00
H551   H     0.43269   0.15250   0.90384   0.00000  Uiso   1.00
H552   H     0.40730   0.14642   0.84232   0.00000  Uiso   1.00
H553   H     0.65512   0.17806   0.85386   0.00000  Uiso   1.00
H554   H     0.33875   0.13103   0.89300   0.00000  Uiso   1.00
H555   H     0.34538   0.18714   0.91624   0.00000  Uiso   1.00
H556   H     0.48896   0.02721   0.82102   0.00000  Uiso   1.00
H557   H     0.47706   0.47254   0.67734   0.00000  Uiso   1.00
H558   H     0.48251   0.10804   0.82086   0.00000  Uiso   1.00
H559   H     0.46990   0.39153   0.67657   0.00000  Uiso   1.00
H560   H     0.53266   0.11276   0.68187   0.00000  Uiso   1.00
H561   H     0.54346   0.38697   0.82363   0.00000  Uiso   1.00
H562   H     0.54168   0.03198   0.68319   0.00000  Uiso   1.00
N563   N     0.50000   0.24999   0.62623   0.00000  Uiso   1.00
N564   N     0.50000   0.25001   0.87376   0.00000  Uiso   1.00
O565   O     0.50000   0.18453   0.78974   0.00000  Uiso   1.00
O566   O     0.41826   0.21195   0.86194   0.00000  Uiso   1.00
O567   O     0.50000   0.31546   0.71026   0.00000  Uiso   1.00
O568   O     0.50000   0.18453   0.71026   0.00000  Uiso   1.00
O569   O     0.50000   0.31547   0.78974   0.00000  Uiso   1.00
O570   O     0.42392   0.25000   0.78044   0.00000  Uiso   1.00
O571   O     0.57608   0.25000   0.71955   0.00000  Uiso   1.00
O572   O     0.42392   0.24999   0.70096   0.00000  Uiso   1.00
O573   O     0.57608   0.25000   0.79903   0.00000  Uiso   1.00
O574   O     0.54609   0.31894   0.63323   0.00000  Uiso   1.00
Zn575  Zn    0.50000   0.25000   0.80307   0.00000  Uiso   1.00
Zn576  Zn    0.50000   0.24999   0.69693   0.00000  Uiso   1.00
C577   C     0.83429   0.16383   0.75019   0.00000  Uiso   1.00
C578   C     0.79299   0.23007   0.94256   0.00000  Uiso   1.00
C579   C     0.83471   0.24917   0.52686   0.00000  Uiso   1.00
C580   C     0.83467   0.24926   0.97353   0.00000  Uiso   1.00
C581   C     0.73371   0.24971   0.73760   0.00000  Uiso   1.00
C582   C     0.93295   0.25010   0.76240   0.00000  Uiso   1.00
C583   C     0.67873   0.24862   0.73091   0.00000  Uiso   1.00
C584   C     0.98791   0.25080   0.76908   0.00000  Uiso   1.00
C585   C     0.83295   0.04578   0.79100   0.00000  Uiso   1.00
C586   C     0.82599   0.45401   0.70906   0.00000  Uiso   1.00
C587   C     0.82852   0.09169   0.79061   0.00000  Uiso   1.00
C588   C     0.83411   0.33611   0.75000   0.00000  Uiso   1.00
C589   C     0.82136   0.40807   0.70876   0.00000  Uiso   1.00
C590   C     0.83927   0.11593   0.75092   0.00000  Uiso   1.00
C591   C     0.83873   0.38393   0.75026   0.00000  Uiso   1.00
C592   C     0.85644   0.09431   0.71240   0.00000  Uiso   1.00
C593   C     0.86224   0.40554   0.79163   0.00000  Uiso   1.00
C594   C     0.86174   0.04845   0.71315   0.00000  Uiso   1.00
C595   C     0.86766   0.45143   0.79170   0.00000  Uiso   1.00
C596   C     0.84910   0.02406   0.75207   0.00000  Uiso   1.00
C597   C     0.84879   0.47579   0.75065   0.00000  Uiso   1.00
C598   C     0.93385   0.32396   0.63163   0.00000  Uiso   1.00
C599   C     0.81076   0.21451   0.54985   0.00000  Uiso   1.00
C600   C     0.94493   0.37088   0.61480   0.00000  Uiso   1.00
C601   C     0.73882   0.16770   0.87395   0.00000  Uiso   1.00
C602   C     0.68270   0.16595   0.88501   0.00000  Uiso   1.00
C603   C     0.87576   0.26886   0.95269   0.00000  Uiso   1.00
C604   C     0.81022   0.21572   0.59933   0.00000  Uiso   1.00
C605   C     0.87412   0.26917   0.90290   0.00000  Uiso   1.00
C606   C     0.85834   0.28357   0.60547   0.00000  Uiso   1.00
C607   C     0.79353   0.22930   0.89269   0.00000  Uiso   1.00
C608   C     0.85810   0.28413   0.55555   0.00000  Uiso   1.00
H609   H     0.99162   0.24577   0.69469   0.00000  Uiso   1.00
H610   H     0.88599   0.46795   0.82381   0.00000  Uiso   1.00
H611   H     0.79285   0.18628   0.52995   0.00000  Uiso   1.00
H612   H     0.90935   0.28363   0.97460   0.00000  Uiso   1.00
H613   H     0.79140   0.18895   0.61628   0.00000  Uiso   1.00
H614   H     0.90582   0.28466   0.88754   0.00000  Uiso   1.00
H615   H     0.87533   0.31231   0.53948   0.00000  Uiso   1.00
H616   H     0.75953   0.21645   0.95678   0.00000  Uiso   1.00
H617   H     0.95083   0.29911   0.60901   0.00000  Uiso   1.00
H618   H     0.95493   0.31992   0.66838   0.00000  Uiso   1.00
H619   H     0.92475   0.37624   0.57794   0.00000  Uiso   1.00
H620   H     0.67497   0.25361   0.80529   0.00000  Uiso   1.00
H621   H     0.93078   0.39593   0.63866   0.00000  Uiso   1.00
H622   H     0.98782   0.37555   0.61537   0.00000  Uiso   1.00
H623   H     0.76603   0.15250   0.90384   0.00000  Uiso   1.00
H624   H     0.74063   0.14642   0.84232   0.00000  Uiso   1.00
H625   H     0.98846   0.17806   0.85386   0.00000  Uiso   1.00
H626   H     0.67208   0.13103   0.89300   0.00000  Uiso   1.00
H627   H     0.67871   0.18714   0.91624   0.00000  Uiso   1.00
H628   H     0.82230   0.02721   0.82102   0.00000  Uiso   1.00
H629   H     0.81040   0.47254   0.67734   0.00000  Uiso   1.00
H630   H     0.81585   0.10804   0.82086   0.00000  Uiso   1.00
H631   H     0.80323   0.39153   0.67657   0.00000  Uiso   1.00
H632   H     0.86599   0.11276   0.68187   0.00000  Uiso   1.00
H633   H     0.87679   0.38697   0.82363   0.00000  Uiso   1.00
H634   H     0.87501   0.03198   0.68319   0.00000  Uiso   1.00
N635   N     0.83333   0.24999   0.62623   0.00000  Uiso   1.00
N636   N     0.83333   0.25001   0.87376   0.00000  Uiso   1.00
O637   O     0.83334   0.18453   0.78974   0.00000  Uiso   1.00
O638   O     0.75160   0.21195   0.86194   0.00000  Uiso   1.00
O639   O     0.83333   0.31546   0.71026   0.00000  Uiso   1.00
O640   O     0.83334   0.18453   0.71026   0.00000  Uiso   1.00
O641   O     0.83333   0.31547   0.78974   0.00000  Uiso   1.00
O642   O     0.75725   0.25000   0.78044   0.00000  Uiso   1.00
O643   O     0.90942   0.25000   0.71955   0.00000  Uiso   1.00
O644   O     0.75725   0.24999   0.70096   0.00000  Uiso   1.00
O645   O     0.90942   0.25000   0.79903   0.00000  Uiso   1.00
O646   O     0.87942   0.31894   0.63323   0.00000  Uiso   1.00
Zn647  Zn    0.83333   0.25000   0.80307   0.00000  Uiso   1.00
Zn648  Zn    0.83333   0.24999   0.69693   0.00000  Uiso   1.00
C649   C     0.16762   0.66383   0.75019   0.00000  Uiso   1.00
C650   C     0.12632   0.73007   0.94256   0.00000  Uiso   1.00
C651   C     0.16804   0.74917   0.52686   0.00000  Uiso   1.00
C652   C     0.16801   0.74926   0.97353   0.00000  Uiso   1.00
C653   C     0.06704   0.74971   0.73760   0.00000  Uiso   1.00
C654   C     0.26628   0.75010   0.76240   0.00000  Uiso   1.00
C655   C     0.01207   0.74862   0.73091   0.00000  Uiso   1.00
C656   C     0.32124   0.75080   0.76908   0.00000  Uiso   1.00
C657   C     0.16628   0.54578   0.79100   0.00000  Uiso   1.00
C658   C     0.15932   0.95401   0.70906   0.00000  Uiso   1.00
C659   C     0.16185   0.59169   0.79061   0.00000  Uiso   1.00
C660   C     0.16744   0.83611   0.75000   0.00000  Uiso   1.00
C661   C     0.15469   0.90807   0.70876   0.00000  Uiso   1.00
C662   C     0.17261   0.61593   0.75092   0.00000  Uiso   1.00
C663   C     0.17206   0.88393   0.75026   0.00000  Uiso   1.00
C664   C     0.18978   0.59431   0.71240   0.00000  Uiso   1.00
C665   C     0.19557   0.90554   0.79163   0.00000  Uiso   1.00
C666   C     0.19508   0.54845   0.71315   0.00000  Uiso   1.00
C667   C     0.20100   0.95143   0.79170   0.00000  Uiso   1.00
C668   C     0.18243   0.52406   0.75207   0.00000  Uiso   1.00
C669   C     0.18212   0.97579   0.75065   0.00000  Uiso   1.00
C670   C     0.26718   0.82396   0.63163   0.00000  Uiso   1.00
C671   C     0.14410   0.71451   0.54985   0.00000  Uiso   1.00
C672   C     0.27826   0.87088   0.61480   0.00000  Uiso   1.00
C673   C     0.07215   0.66770   0.87395   0.00000  Uiso   1.00
C674   C     0.01603   0.66595   0.88501   0.00000  Uiso   1.00
C675   C     0.20910   0.76886   0.95269   0.00000  Uiso   1.00
C676   C     0.14356   0.71572   0.59933   0.00000  Uiso   1.00
C677   C     0.20745   0.76917   0.90290   0.00000  Uiso   1.00
C678   C     0.19167   0.78357   0.60547   0.00000  Uiso   1.00
C679   C     0.12687   0.72930   0.89269   0.00000  Uiso   1.00
C680   C     0.19144   0.78413   0.55555   0.00000  Uiso   1.00
H681   H     0.32495   0.74577   0.69469   0.00000  Uiso   1.00
H682   H     0.21933   0.96795   0.82381   0.00000  Uiso   1.00
H683   H     0.12618   0.68628   0.52995   0.00000  Uiso   1.00
H684   H     0.24268   0.78363   0.97460   0.00000  Uiso   1.00
H685   H     0.12474   0.68895   0.61628   0.00000  Uiso   1.00
H686   H     0.23916   0.78466   0.88754   0.00000  Uiso   1.00
H687   H     0.20866   0.81231   0.53948   0.00000  Uiso   1.00
H688   H     0.09287   0.71645   0.95678   0.00000  Uiso   1.00
H689   H     0.28416   0.79911   0.60901   0.00000  Uiso   1.00
H690   H     0.28826   0.81992   0.66838   0.00000  Uiso   1.00
H691   H     0.25808   0.87624   0.57794   0.00000  Uiso   1.00
H692   H     0.00831   0.75361   0.80529   0.00000  Uiso   1.00
H693   H     0.26411   0.89593   0.63866   0.00000  Uiso   1.00
H694   H     0.32115   0.87555   0.61537   0.00000  Uiso   1.00
H695   H     0.09936   0.65250   0.90384   0.00000  Uiso   1.00
H696   H     0.07397   0.64642   0.84232   0.00000  Uiso   1.00
H697   H     0.32179   0.67806   0.85386   0.00000  Uiso   1.00
H698   H     0.00542   0.63103   0.89300   0.00000  Uiso   1.00
H699   H     0.01204   0.68714   0.91624   0.00000  Uiso   1.00
H700   H     0.15563   0.52721   0.82102   0.00000  Uiso   1.00
H701   H     0.14373   0.97254   0.67734   0.00000  Uiso   1.00
H702   H     0.14918   0.60804   0.82086   0.00000  Uiso   1.00
H703   H     0.13656   0.89153   0.67657   0.00000  Uiso   1.00
H704   H     0.19932   0.61276   0.68187   0.00000  Uiso   1.00
H705   H     0.21013   0.88697   0.82363   0.00000  Uiso   1.00
H706   H     0.20834   0.53198   0.68319   0.00000  Uiso   1.00
N707   N     0.16667   0.74999   0.62623   0.00000  Uiso   1.00
N708   N     0.16667   0.75001   0.87376   0.00000  Uiso   1.00
O709   O     0.16667   0.68453   0.78974   0.00000  Uiso   1.00
O710   O     0.08493   0.71195   0.86194   0.00000  Uiso   1.00
O711   O     0.16666   0.81546   0.71026   0.00000  Uiso   1.00
O712   O     0.16667   0.68453   0.71026   0.00000  Uiso   1.00
O713   O     0.16666   0.81547   0.78974   0.00000  Uiso   1.00
O714   O     0.09058   0.75000   0.78044   0.00000  Uiso   1.00
O715   O     0.24275   0.75000   0.71955   0.00000  Uiso   1.00
O716   O     0.09058   0.74999   0.70096   0.00000  Uiso   1.00
O717   O     0.24275   0.75000   0.79903   0.00000  Uiso   1.00
O718   O     0.21275   0.81894   0.63323   0.00000  Uiso   1.00
Zn719  Zn    0.16667   0.75000   0.80307   0.00000  Uiso   1.00
Zn720  Zn    0.16667   0.74999   0.69693   0.00000  Uiso   1.00
C721   C     0.50096   0.66383   0.75019   0.00000  Uiso   1.00
C722   C     0.45966   0.73007   0.94256   0.00000  Uiso   1.00
C723   C     0.50138   0.74917   0.52686   0.00000  Uiso   1.00
C724   C     0.50134   0.74926   0.97353   0.00000  Uiso   1.00
C725   C     0.40038   0.74971   0.73760   0.00000  Uiso   1.00
C726   C     0.59961   0.75010   0.76240   0.00000  Uiso   1.00
C727   C     0.34540   0.74862   0.73091   0.00000  Uiso   1.00
C728   C     0.65458   0.75080   0.76908   0.00000  Uiso   1.00
C729   C     0.49962   0.54578   0.79100   0.00000  Uiso   1.00
C730   C     0.49266   0.95401   0.70906   0.00000  Uiso   1.00
C731   C     0.49518   0.59169   0.79061   0.00000  Uiso   1.00
C732   C     0.50077   0.83611   0.75000   0.00000  Uiso   1.00
C733   C     0.48802   0.90807   0.70876   0.00000  Uiso   1.00
C734   C     0.50594   0.61593   0.75092   0.00000  Uiso   1.00
C735   C     0.50540   0.88393   0.75026   0.00000  Uiso   1.00
C736   C     0.52311   0.59431   0.71240   0.00000  Uiso   1.00
C737   C     0.52891   0.90554   0.79163   0.00000  Uiso   1.00
C738   C     0.52841   0.54845   0.71315   0.00000  Uiso   1.00
C739   C     0.53433   0.95143   0.79170   0.00000  Uiso   1.00
C740   C     0.51576   0.52406   0.75207   0.00000  Uiso   1.00
C741   C     0.51545   0.97579   0.75065   0.00000  Uiso   1.00
C742   C     0.60052   0.82396   0.63163   0.00000  Uiso   1.00
C743   C     0.47743   0.71451   0.54985   0.00000  Uiso   1.00
C744   C     0.61160   0.87088   0.61480   0.00000  Uiso   1.00
C745   C     0.40548   0.66770   0.87395   0.00000  Uiso   1.00
C746   C     0.34936   0.66595   0.88501   0.00000  Uiso   1.00
C747   C     0.54243   0.76886   0.95269   0.00000  Uiso   1.00
C748   C     0.47689   0.71572   0.59933   0.00000  Uiso   1.00
C749   C     0.54079   0.76917   0.90290   0.00000  Uiso   1.00
C750   C     0.52500   0.78357   0.60547   0.00000  Uiso   1.00
C751   C     0.46020   0.72930   0.89269   0.00000  Uiso   1.00
C752   C     0.52477   0.78413   0.55555   0.00000  Uiso   1.00
H753   H     0.65829   0.74577   0.69469   0.00000  Uiso   1.00
H754   H     0.55266   0.96795   0.82381   0.00000  Uiso   1.00
H755   H     0.45951   0.68628   0.52995   0.00000  Uiso   1.00
H756   H     0.57601   0.78363   0.97460   0.00000  Uiso   1.00
H757   H     0.45807   0.68895   0.61628   0.00000  Uiso   1.00
H758   H     0.57249   0.78466   0.88754   0.00000  Uiso   1.00
H759   H     0.54199   0.81231   0.53948   0.00000  Uiso   1.00
H760   H     0.42620   0.71645   0.95678   0.00000  Uiso   1.00
H761   H     0.61750   0.79911   0.60901   0.00000  Uiso   1.00
H762   H     0.62160   0.81992   0.66838   0.00000  Uiso   1.00
H763   H     0.59142   0.87624   0.57794   0.00000  Uiso   1.00
H764   H     0.34164   0.75361   0.80529   0.00000  Uiso   1.00
H765   H     0.59744   0.89593   0.63866   0.00000  Uiso   1.00
H766   H     0.65449   0.87555   0.61537   0.00000  Uiso   1.00
H767   H     0.43269   0.65250   0.90384   0.00000  Uiso   1.00
H768   H     0.40730   0.64642   0.84232   0.00000  Uiso   1.00
H769   H     0.65512   0.67806   0.85386   0.00000  Uiso   1.00
H770   H     0.33875   0.63103   0.89300   0.00000  Uiso   1.00
H771   H     0.34538   0.68714   0.91624   0.00000  Uiso   1.00
H772   H     0.48896   0.52721   0.82102   0.00000  Uiso   1.00
H773   H     0.47706   0.97254   0.67734   0.00000  Uiso   1.00
H774   H     0.48251   0.60804   0.82086   0.00000  Uiso   1.00
H775   H     0.46990   0.89153   0.67657   0.00000  Uiso   1.00
H776   H     0.53266   0.61276   0.68187   0.00000  Uiso   1.00
H777   H     0.54346   0.88697   0.82363   0.00000  Uiso   1.00
H778   H     0.54168   0.53198   0.68319   0.00000  Uiso   1.00
N779   N     0.50000   0.74999   0.62623   0.00000  Uiso   1.00
N780   N     0.50000   0.75001   0.87376   0.00000  Uiso   1.00
O781   O     0.50000   0.68453   0.78974   0.00000  Uiso   1.00
O782   O     0.41826   0.71195   0.86194   0.00000  Uiso   1.00
O783   O     0.50000   0.81546   0.71026   0.00000  Uiso   1.00
O784   O     0.50000   0.68453   0.71026   0.00000  Uiso   1.00
O785   O     0.50000   0.81547   0.78974   0.00000  Uiso   1.00
O786   O     0.42392   0.75000   0.78044   0.00000  Uiso   1.00
O787   O     0.57608   0.75000   0.71955   0.00000  Uiso   1.00
O788   O     0.42392   0.74999   0.70096   0.00000  Uiso   1.00
O789   O     0.57608   0.75000   0.79903   0.00000  Uiso   1.00
O790   O     0.54609   0.81894   0.63323   0.00000  Uiso   1.00
Zn791  Zn    0.50000   0.75000   0.80307   0.00000  Uiso   1.00
Zn792  Zn    0.50000   0.74999   0.69693   0.00000  Uiso   1.00
C793   C     0.83429   0.66383   0.75019   0.00000  Uiso   1.00
C794   C     0.79299   0.73007   0.94256   0.00000  Uiso   1.00
C795   C     0.83471   0.74917   0.52686   0.00000  Uiso   1.00
C796   C     0.83467   0.74926   0.97353   0.00000  Uiso   1.00
C797   C     0.73371   0.74971   0.73760   0.00000  Uiso   1.00
C798   C     0.93295   0.75010   0.76240   0.00000  Uiso   1.00
C799   C     0.67873   0.74862   0.73091   0.00000  Uiso   1.00
C800   C     0.98791   0.75080   0.76908   0.00000  Uiso   1.00
C801   C     0.83295   0.54578   0.79100   0.00000  Uiso   1.00
C802   C     0.82599   0.95401   0.70906   0.00000  Uiso   1.00
C803   C     0.82852   0.59169   0.79061   0.00000  Uiso   1.00
C804   C     0.83411   0.83611   0.75000   0.00000  Uiso   1.00
C805   C     0.82136   0.90807   0.70876   0.00000  Uiso   1.00
C806   C     0.83927   0.61593   0.75092   0.00000  Uiso   1.00
C807   C     0.83873   0.88393   0.75026   0.00000  Uiso   1.00
C808   C     0.85644   0.59431   0.71240   0.00000  Uiso   1.00
C809   C     0.86224   0.90554   0.79163   0.00000  Uiso   1.00
C810   C     0.86174   0.54845   0.71315   0.00000  Uiso   1.00
C811   C     0.86766   0.95143   0.79170   0.00000  Uiso   1.00
C812   C     0.84910   0.52406   0.75207   0.00000  Uiso   1.00
C813   C     0.84879   0.97579   0.75065   0.00000  Uiso   1.00
C814   C     0.93385   0.82396   0.63163   0.00000  Uiso   1.00
C815   C     0.81076   0.71451   0.54985   0.00000  Uiso   1.00
C816   C     0.94493   0.87088   0.61480   0.00000  Uiso   1.00
C817   C     0.73882   0.66770   0.87395   0.00000  Uiso   1.00
C818   C     0.68270   0.66595   0.88501   0.00000  Uiso   1.00
C819   C     0.87576   0.76886   0.95269   0.00000  Uiso   1.00
C820   C     0.81022   0.71572   0.59933   0.00000  Uiso   1.00
C821   C     0.87412   0.76917   0.90290   0.00000  Uiso   1.00
C822   C     0.85834   0.78357   0.60547   0.00000  Uiso   1.00
C823   C     0.79353   0.72930   0.89269   0.00000  Uiso   1.00
C824   C     0.85810   0.78413   0.55555   0.00000  Uiso   1.00
H825   H     0.99162   0.74577   0.69469   0.00000  Uiso   1.00
H826   H     0.88599   0.96795   0.82381   0.00000  Uiso   1.00
H827   H     0.79285   0.68628   0.52995   0.00000  Uiso   1.00
H828   H     0.90935   0.78363   0.97460   0.00000  Uiso   1.00
H829   H     0.79140   0.68895   0.61628   0.00000  Uiso   1.00
H830   H     0.90582   0.78466   0.88754   0.00000  Uiso   1.00
H831   H     0.87533   0.81231   0.53948   0.00000  Uiso   1.00
H832   H     0.75953   0.71645   0.95678   0.00000  Uiso   1.00
H833   H     0.95083   0.79911   0.60901   0.00000  Uiso   1.00
H834   H     0.95493   0.81992   0.66838   0.00000  Uiso   1.00
H835   H     0.92475   0.87624   0.57794   0.00000  Uiso   1.00
H836   H     0.67497   0.75361   0.80529   0.00000  Uiso   1.00
H837   H     0.93078   0.89593   0.63866   0.00000  Uiso   1.00
H838   H     0.98782   0.87555   0.61537   0.00000  Uiso   1.00
H839   H     0.76603   0.65250   0.90384   0.00000  Uiso   1.00
H840   H     0.74063   0.64642   0.84232   0.00000  Uiso   1.00
H841   H     0.98846   0.67806   0.85386   0.00000  Uiso   1.00
H842   H     0.67208   0.63103   0.89300   0.00000  Uiso   1.00
H843   H     0.67871   0.68714   0.91624   0.00000  Uiso   1.00
H844   H     0.82230   0.52721   0.82102   0.00000  Uiso   1.00
H845   H     0.81040   0.97254   0.67734   0.00000  Uiso   1.00
H846   H     0.81585   0.60804   0.82086   0.00000  Uiso   1.00
H847   H     0.80323   0.89153   0.67657   0.00000  Uiso   1.00
H848   H     0.86599   0.61276   0.68187   0.00000  Uiso   1.00
H849   H     0.87679   0.88697   0.82363   0.00000  Uiso   1.00
H850   H     0.87501   0.53198   0.68319   0.00000  Uiso   1.00
N851   N     0.83333   0.74999   0.62623   0.00000  Uiso   1.00
N852   N     0.83333   0.75001   0.87376   0.00000  Uiso   1.00
O853   O     0.83334   0.68453   0.78974   0.00000  Uiso   1.00
O854   O     0.75160   0.71195   0.86194   0.00000  Uiso   1.00
O855   O     0.83333   0.81546   0.71026   0.00000  Uiso   1.00
O856   O     0.83334   0.68453   0.71026   0.00000  Uiso   1.00
O857   O     0.83333   0.81547   0.78974   0.00000  Uiso   1.00
O858   O     0.75725   0.75000   0.78044   0.00000  Uiso   1.00
O859   O     0.90942   0.75000   0.71955   0.00000  Uiso   1.00
O860   O     0.75725   0.74999   0.70096   0.00000  Uiso   1.00
O861   O     0.90942   0.75000   0.79903   0.00000  Uiso   1.00
O862   O     0.87942   0.81894   0.63323   0.00000  Uiso   1.00
Zn863  Zn    0.83333   0.75000   0.80307   0.00000  Uiso   1.00
Zn864  Zn    0.83333   0.74999   0.69693   0.00000  Uiso   1.00
loop_
_geom_bond_atom_site_label_1
_geom_bond_atom_site_label_2
_geom_bond_distance
_geom_bond_site_symmetry_2
_ccdc_geom_bond_type
C1     O64     1.287   .     A
C1     C14     1.441   .     S
C1     O61     1.288   .     A
C2     C4      1.406   .     A
C2     H40     1.081   .     S
C2     C31     1.418   .     A
C3     C32     1.407   .     A
C3     C23     1.410   .     A
C3     C436    1.514   1_554 S
C4     C27     1.410   .     A
C4     C435    1.514   .     S
C5     C7      1.401   .     S
C5     O68     1.278   .     A
C5     O66     1.277   .     A
C6     O69     1.278   .     A
C6     O67     1.277   .     A
C6     C8      1.400   .     S
C7     C152    1.328   1_455 S
C7     H177    1.088   1_455 S
C8     C79     1.328   .     S
C8     H116    1.087   .     S
C9     C20     1.400   .     A
C9     C11     1.381   .     A
C9     H52     1.083   .     S
C10    C21     1.401   .     A
C10    C13     1.381   .     A
C10    H53     1.083   .     S
C11    H54     1.082   .     S
C11    C14     1.398   .     A
C12    O65     1.287   .     A
C12    C15     1.437   .     S
C12    O63     1.286   .     A
C13    C15     1.398   .     A
C13    H55     1.084   .     S
C14    C16     1.401   .     A
C15    C17     1.399   .     A
C16    H56     1.083   .     S
C16    C18     1.381   .     A
C17    C19     1.381   .     A
C17    H57     1.084   .     S
C18    H58     1.083   .     S
C18    C20     1.399   .     A
C19    C21     1.399   .     A
C19    H34     1.083   .     S
C20    C237    1.447   1_545 S
C21    C236    1.447   .     S
C22    H42     1.110   .     S
C22    C24     1.522   .     S
C22    H41     1.117   .     S
C22    O70     1.416   .     S
C23    H35     1.082   .     S
C23    C28     1.407   .     A
C24    H46     1.110   .     S
C24    H45     1.111   .     S
C24    H43     1.110   .     S
C25    H47     1.116   .     S
C25    H48     1.110   .     S
C25    O62     1.416   .     S
C25    C26     1.524   .     S
C26    H50     1.111   .     S
C26    H51     1.110   .     S
C26    H193    1.111   1_455 S
C27    H36     1.082   .     S
C27    C29     1.408   .     A
C28    H37     1.082   .     S
C28    N59     1.363   .     A
C29    H38     1.082   .     S
C29    N60     1.364   .     A
C30    N59     1.368   .     A
C30    C32     1.416   .     A
C30    O70     1.383   .     S
C31    N60     1.369   .     A
C31    O62     1.385   .     S
C32    H39     1.081   .     S
H33    C79     1.088   .     S
H44    C152    1.087   1_455 S
H49    C98     1.111   .     S
N59    Zn72    2.007   .     S
N60    Zn71    2.007   .     S
O61    Zn71    1.999   .     S
O63    Zn72    1.999   .     S
O64    Zn72    1.996   .     S
O65    Zn71    1.996   .     S
O66    Zn71    1.971   .     S
O67    Zn72    1.971   .     S
O68    Zn72    1.979   .     S
O69    Zn71    1.979   .     S
C73    O136    1.287   .     A
C73    C86     1.441   .     S
C73    O133    1.288   .     A
C74    C76     1.406   .     A
C74    H112    1.081   .     S
C74    C103    1.418   .     A
C75    C104    1.407   .     A
C75    C95     1.410   .     A
C75    C508    1.514   1_554 S
C76    C99     1.410   .     A
C76    C507    1.514   .     S
C77    C79     1.401   .     S
C77    O140    1.278   .     A
C77    O138    1.277   .     A
C78    O141    1.278   .     A
C78    O139    1.277   .     A
C78    C80     1.400   .     S
C80    C151    1.328   .     S
C80    H188    1.087   .     S
C81    C92     1.400   .     A
C81    C83     1.381   .     A
C81    H124    1.083   .     S
C82    C93     1.401   .     A
C82    C85     1.381   .     A
C82    H125    1.083   .     S
C83    H126    1.082   .     S
C83    C86     1.398   .     A
C84    O137    1.287   .     A
C84    C87     1.437   .     S
C84    O135    1.286   .     A
C85    C87     1.398   .     A
C85    H127    1.084   .     S
C86    C88     1.401   .     A
C87    C89     1.399   .     A
C88    H128    1.083   .     S
C88    C90     1.381   .     A
C89    C91     1.381   .     A
C89    H129    1.084   .     S
C90    H130    1.083   .     S
C90    C92     1.399   .     A
C91    C93     1.399   .     A
C91    H106    1.083   .     S
C92    C309    1.447   1_545 S
C93    C308    1.447   .     S
C94    H114    1.110   .     S
C94    C96     1.522   .     S
C94    H113    1.117   .     S
C94    O142    1.416   .     S
C95    H107    1.082   .     S
C95    C100    1.407   .     A
C96    H118    1.110   .     S
C96    H117    1.111   .     S
C96    H115    1.110   .     S
C97    H119    1.116   .     S
C97    H120    1.110   .     S
C97    O134    1.416   .     S
C97    C98     1.524   .     S
C98    H122    1.111   .     S
C98    H123    1.110   .     S
C99    H108    1.082   .     S
C99    C101    1.408   .     A
C100   H109    1.082   .     S
C100   N131    1.363   .     A
C101   H110    1.082   .     S
C101   N132    1.364   .     A
C102   N131    1.368   .     A
C102   C104    1.416   .     A
C102   O142    1.383   .     S
C103   N132    1.369   .     A
C103   O134    1.385   .     S
C104   H111    1.081   .     S
H105   C151    1.088   .     S
H121   C170    1.111   .     S
N131   Zn144   2.007   .     S
N132   Zn143   2.007   .     S
O133   Zn143   1.999   .     S
O135   Zn144   1.999   .     S
O136   Zn144   1.996   .     S
O137   Zn143   1.996   .     S
O138   Zn143   1.971   .     S
O139   Zn144   1.971   .     S
O140   Zn144   1.979   .     S
O141   Zn143   1.979   .     S
C145   O208    1.287   .     A
C145   C158    1.441   .     S
C145   O205    1.288   .     A
C146   C148    1.406   .     A
C146   H184    1.081   .     S
C146   C175    1.418   .     A
C147   C176    1.407   .     A
C147   C167    1.410   .     A
C147   C580    1.514   1_554 S
C148   C171    1.410   .     A
C148   C579    1.514   .     S
C149   C151    1.401   .     S
C149   O212    1.278   .     A
C149   O210    1.277   .     A
C150   O213    1.278   .     A
C150   O211    1.277   .     A
C150   C152    1.400   .     S
C152   C7      1.328   1_655 S
C152   H44     1.087   1_655 S
C153   C164    1.400   .     A
C153   C155    1.381   .     A
C153   H196    1.083   .     S
C154   C165    1.401   .     A
C154   C157    1.381   .     A
C154   H197    1.083   .     S
C155   H198    1.082   .     S
C155   C158    1.398   .     A
C156   O209    1.287   .     A
C156   C159    1.437   .     S
C156   O207    1.286   .     A
C157   C159    1.398   .     A
C157   H199    1.084   .     S
C158   C160    1.401   .     A
C159   C161    1.399   .     A
C160   H200    1.083   .     S
C160   C162    1.381   .     A
C161   C163    1.381   .     A
C161   H201    1.084   .     S
C162   H202    1.083   .     S
C162   C164    1.399   .     A
C163   C165    1.399   .     A
C163   H178    1.083   .     S
C164   C381    1.447   1_545 S
C165   C380    1.447   .     S
C166   H186    1.110   .     S
C166   C168    1.522   .     S
C166   H185    1.117   .     S
C166   O214    1.416   .     S
C167   H179    1.082   .     S
C167   C172    1.407   .     A
C168   H190    1.110   .     S
C168   H189    1.111   .     S
C168   H187    1.110   .     S
C169   H191    1.116   .     S
C169   H192    1.110   .     S
C169   O206    1.416   .     S
C169   C170    1.524   .     S
C170   H194    1.111   .     S
C170   H195    1.110   .     S
C171   H180    1.082   .     S
C171   C173    1.408   .     A
C172   H181    1.082   .     S
C172   N203    1.363   .     A
C173   H182    1.082   .     S
C173   N204    1.364   .     A
C174   N203    1.368   .     A
C174   C176    1.416   .     A
C174   O214    1.383   .     S
C175   N204    1.369   .     A
C175   O206    1.385   .     S
C176   H183    1.081   .     S
H177   C7      1.088   1_655 S
H193   C26     1.111   1_655 S
N203   Zn216   2.007   .     S
N204   Zn215   2.007   .     S
O205   Zn215   1.999   .     S
O207   Zn216   1.999   .     S
O208   Zn216   1.996   .     S
O209   Zn215   1.996   .     S
O210   Zn215   1.971   .     S
O211   Zn216   1.971   .     S
O212   Zn216   1.979   .     S
O213   Zn215   1.979   .     S
C217   O280    1.287   .     A
C217   C230    1.441   .     S
C217   O277    1.288   .     A
C218   C220    1.406   .     A
C218   H256    1.081   .     S
C218   C247    1.418   .     A
C219   C248    1.407   .     A
C219   C239    1.410   .     A
C219   C652    1.514   1_554 S
C220   C243    1.410   .     A
C220   C651    1.514   .     S
C221   C223    1.401   .     S
C221   O284    1.278   .     A
C221   O282    1.277   .     A
C222   O285    1.278   .     A
C222   O283    1.277   .     A
C222   C224    1.400   .     S
C223   C368    1.328   1_455 S
C223   H393    1.088   1_455 S
C224   C295    1.328   .     S
C224   H332    1.087   .     S
C225   C236    1.400   .     A
C225   C227    1.381   .     A
C225   H268    1.083   .     S
C226   C237    1.401   .     A
C226   C229    1.381   .     A
C226   H269    1.083   .     S
C227   H270    1.082   .     S
C227   C230    1.398   .     A
C228   O281    1.287   .     A
C228   C231    1.437   .     S
C228   O279    1.286   .     A
C229   C231    1.398   .     A
C229   H271    1.084   .     S
C230   C232    1.401   .     A
C231   C233    1.399   .     A
C232   H272    1.083   .     S
C232   C234    1.381   .     A
C233   C235    1.381   .     A
C233   H273    1.084   .     S
C234   H274    1.083   .     S
C234   C236    1.399   .     A
C235   C237    1.399   .     A
C235   H250    1.083   .     S
C237   C20     1.447   1_565 S
C238   H258    1.110   .     S
C238   C240    1.522   .     S
C238   H257    1.117   .     S
C238   O286    1.416   .     S
C239   H251    1.082   .     S
C239   C244    1.407   .     A
C240   H262    1.110   .     S
C240   H261    1.111   .     S
C240   H259    1.110   .     S
C241   H263    1.116   .     S
C241   H264    1.110   .     S
C241   O278    1.416   .     S
C241   C242    1.524   .     S
C242   H266    1.111   .     S
C242   H267    1.110   .     S
C242   H409    1.111   1_455 S
C243   H252    1.082   .     S
C243   C245    1.408   .     A
C244   H253    1.082   .     S
C244   N275    1.363   .     A
C245   H254    1.082   .     S
C245   N276    1.364   .     A
C246   N275    1.368   .     A
C246   C248    1.416   .     A
C246   O286    1.383   .     S
C247   N276    1.369   .     A
C247   O278    1.385   .     S
C248   H255    1.081   .     S
H249   C295    1.088   .     S
H260   C368    1.087   1_455 S
H265   C314    1.111   .     S
N275   Zn288   2.007   .     S
N276   Zn287   2.007   .     S
O277   Zn287   1.999   .     S
O279   Zn288   1.999   .     S
O280   Zn288   1.996   .     S
O281   Zn287   1.996   .     S
O282   Zn287   1.971   .     S
O283   Zn288   1.971   .     S
O284   Zn288   1.979   .     S
O285   Zn287   1.979   .     S
C289   O352    1.287   .     A
C289   C302    1.441   .     S
C289   O349    1.288   .     A
C290   C292    1.406   .     A
C290   H328    1.081   .     S
C290   C319    1.418   .     A
C291   C320    1.407   .     A
C291   C311    1.410   .     A
C291   C724    1.514   1_554 S
C292   C315    1.410   .     A
C292   C723    1.514   .     S
C293   C295    1.401   .     S
C293   O356    1.278   .     A
C293   O354    1.277   .     A
C294   O357    1.278   .     A
C294   O355    1.277   .     A
C294   C296    1.400   .     S
C296   C367    1.328   .     S
C296   H404    1.087   .     S
C297   C308    1.400   .     A
C297   C299    1.381   .     A
C297   H340    1.083   .     S
C298   C309    1.401   .     A
C298   C301    1.381   .     A
C298   H341    1.083   .     S
C299   H342    1.082   .     S
C299   C302    1.398   .     A
C300   O353    1.287   .     A
C300   C303    1.437   .     S
C300   O351    1.286   .     A
C301   C303    1.398   .     A
C301   H343    1.084   .     S
C302   C304    1.401   .     A
C303   C305    1.399   .     A
C304   H344    1.083   .     S
C304   C306    1.381   .     A
C305   C307    1.381   .     A
C305   H345    1.084   .     S
C306   H346    1.083   .     S
C306   C308    1.399   .     A
C307   C309    1.399   .     A
C307   H322    1.083   .     S
C309   C92     1.447   1_565 S
C310   H330    1.110   .     S
C310   C312    1.522   .     S
C310   H329    1.117   .     S
C310   O358    1.416   .     S
C311   H323    1.082   .     S
C311   C316    1.407   .     A
C312   H334    1.110   .     S
C312   H333    1.111   .     S
C312   H331    1.110   .     S
C313   H335    1.116   .     S
C313   H336    1.110   .     S
C313   O350    1.416   .     S
C313   C314    1.524   .     S
C314   H338    1.111   .     S
C314   H339    1.110   .     S
C315   H324    1.082   .     S
C315   C317    1.408   .     A
C316   H325    1.082   .     S
C316   N347    1.363   .     A
C317   H326    1.082   .     S
C317   N348    1.364   .     A
C318   N347    1.368   .     A
C318   C320    1.416   .     A
C318   O358    1.383   .     S
C319   N348    1.369   .     A
C319   O350    1.385   .     S
C320   H327    1.081   .     S
H321   C367    1.088   .     S
H337   C386    1.111   .     S
N347   Zn360   2.007   .     S
N348   Zn359   2.007   .     S
O349   Zn359   1.999   .     S
O351   Zn360   1.999   .     S
O352   Zn360   1.996   .     S
O353   Zn359   1.996   .     S
O354   Zn359   1.971   .     S
O355   Zn360   1.971   .     S
O356   Zn360   1.979   .     S
O357   Zn359   1.979   .     S
C361   O424    1.287   .     A
C361   C374    1.441   .     S
C361   O421    1.288   .     A
C362   C364    1.406   .     A
C362   H400    1.081   .     S
C362   C391    1.418   .     A
C363   C392    1.407   .     A
C363   C383    1.410   .     A
C363   C796    1.514   1_554 S
C364   C387    1.410   .     A
C364   C795    1.514   .     S
C365   C367    1.401   .     S
C365   O428    1.278   .     A
C365   O426    1.277   .     A
C366   O429    1.278   .     A
C366   O427    1.277   .     A
C366   C368    1.400   .     S
C368   C223    1.328   1_655 S
C368   H260    1.087   1_655 S
C369   C380    1.400   .     A
C369   C371    1.381   .     A
C369   H412    1.083   .     S
C370   C381    1.401   .     A
C370   C373    1.381   .     A
C370   H413    1.083   .     S
C371   H414    1.082   .     S
C371   C374    1.398   .     A
C372   O425    1.287   .     A
C372   C375    1.437   .     S
C372   O423    1.286   .     A
C373   C375    1.398   .     A
C373   H415    1.084   .     S
C374   C376    1.401   .     A
C375   C377    1.399   .     A
C376   H416    1.083   .     S
C376   C378    1.381   .     A
C377   C379    1.381   .     A
C377   H417    1.084   .     S
C378   H418    1.083   .     S
C378   C380    1.399   .     A
C379   C381    1.399   .     A
C379   H394    1.083   .     S
C381   C164    1.447   1_565 S
C382   H402    1.110   .     S
C382   C384    1.522   .     S
C382   H401    1.117   .     S
C382   O430    1.416   .     S
C383   H395    1.082   .     S
C383   C388    1.407   .     A
C384   H406    1.110   .     S
C384   H405    1.111   .     S
C384   H403    1.110   .     S
C385   H407    1.116   .     S
C385   H408    1.110   .     S
C385   O422    1.416   .     S
C385   C386    1.524   .     S
C386   H410    1.111   .     S
C386   H411    1.110   .     S
C387   H396    1.082   .     S
C387   C389    1.408   .     A
C388   H397    1.082   .     S
C388   N419    1.363   .     A
C389   H398    1.082   .     S
C389   N420    1.364   .     A
C390   N419    1.368   .     A
C390   C392    1.416   .     A
C390   O430    1.383   .     S
C391   N420    1.369   .     A
C391   O422    1.385   .     S
C392   H399    1.081   .     S
H393   C223    1.088   1_655 S
H409   C242    1.111   1_655 S
N419   Zn432   2.007   .     S
N420   Zn431   2.007   .     S
O421   Zn431   1.999   .     S
O423   Zn432   1.999   .     S
O424   Zn432   1.996   .     S
O425   Zn431   1.996   .     S
O426   Zn431   1.971   .     S
O427   Zn432   1.971   .     S
O428   Zn432   1.979   .     S
O429   Zn431   1.979   .     S
C433   O496    1.287   .     A
C433   C446    1.441   .     S
C433   O493    1.288   .     A
C434   C436    1.406   .     A
C434   H472    1.081   .     S
C434   C463    1.418   .     A
C435   C464    1.407   .     A
C435   C455    1.410   .     A
C436   C459    1.410   .     A
C436   C3      1.514   1_556 S
C437   C439    1.401   .     S
C437   O500    1.278   .     A
C437   O498    1.277   .     A
C438   O501    1.278   .     A
C438   O499    1.277   .     A
C438   C440    1.400   .     S
C439   C584    1.328   1_455 S
C439   H609    1.088   1_455 S
C440   C511    1.328   .     S
C440   H548    1.087   .     S
C441   C452    1.400   .     A
C441   C443    1.381   .     A
C441   H484    1.083   .     S
C442   C453    1.401   .     A
C442   C445    1.381   .     A
C442   H485    1.083   .     S
C443   H486    1.082   .     S
C443   C446    1.398   .     A
C444   O497    1.287   .     A
C444   C447    1.437   .     S
C444   O495    1.286   .     A
C445   C447    1.398   .     A
C445   H487    1.084   .     S
C446   C448    1.401   .     A
C447   C449    1.399   .     A
C448   H488    1.083   .     S
C448   C450    1.381   .     A
C449   C451    1.381   .     A
C449   H489    1.084   .     S
C450   H490    1.083   .     S
C450   C452    1.399   .     A
C451   C453    1.399   .     A
C451   H466    1.083   .     S
C452   C669    1.447   1_545 S
C453   C668    1.447   .     S
C454   H474    1.110   .     S
C454   C456    1.522   .     S
C454   H473    1.117   .     S
C454   O502    1.416   .     S
C455   H467    1.082   .     S
C455   C460    1.407   .     A
C456   H478    1.110   .     S
C456   H477    1.111   .     S
C456   H475    1.110   .     S
C457   H479    1.116   .     S
C457   H480    1.110   .     S
C457   O494    1.416   .     S
C457   C458    1.524   .     S
C458   H482    1.111   .     S
C458   H483    1.110   .     S
C458   H625    1.111   1_455 S
C459   H468    1.082   .     S
C459   C461    1.408   .     A
C460   H469    1.082   .     S
C460   N491    1.363   .     A
C461   H470    1.082   .     S
C461   N492    1.364   .     A
C462   N491    1.368   .     A
C462   C464    1.416   .     A
C462   O502    1.383   .     S
C463   N492    1.369   .     A
C463   O494    1.385   .     S
C464   H471    1.081   .     S
H465   C511    1.088   .     S
H476   C584    1.087   1_455 S
H481   C530    1.111   .     S
N491   Zn504   2.007   .     S
N492   Zn503   2.007   .     S
O493   Zn503   1.999   .     S
O495   Zn504   1.999   .     S
O496   Zn504   1.996   .     S
O497   Zn503   1.996   .     S
O498   Zn503   1.971   .     S
O499   Zn504   1.971   .     S
O500   Zn504   1.979   .     S
O501   Zn503   1.979   .     S
C505   O568    1.287   .     A
C505   C518    1.441   .     S
C505   O565    1.288   .     A
C506   C508    1.406   .     A
C506   H544    1.081   .     S
C506   C535    1.418   .     A
C507   C536    1.407   .     A
C507   C527    1.410   .     A
C508   C531    1.410   .     A
C508   C75     1.514   1_556 S
C509   C511    1.401   .     S
C509   O572    1.278   .     A
C509   O570    1.277   .     A
C510   O573    1.278   .     A
C510   O571    1.277   .     A
C510   C512    1.400   .     S
C512   C583    1.328   .     S
C512   H620    1.087   .     S
C513   C524    1.400   .     A
C513   C515    1.381   .     A
C513   H556    1.083   .     S
C514   C525    1.401   .     A
C514   C517    1.381   .     A
C514   H557    1.083   .     S
C515   H558    1.082   .     S
C515   C518    1.398   .     A
C516   O569    1.287   .     A
C516   C519    1.437   .     S
C516   O567    1.286   .     A
C517   C519    1.398   .     A
C517   H559    1.084   .     S
C518   C520    1.401   .     A
C519   C521    1.399   .     A
C520   H560    1.083   .     S
C520   C522    1.381   .     A
C521   C523    1.381   .     A
C521   H561    1.084   .     S
C522   H562    1.083   .     S
C522   C524    1.399   .     A
C523   C525    1.399   .     A
C523   H538    1.083   .     S
C524   C741    1.447   1_545 S
C525   C740    1.447   .     S
C526   H546    1.110   .     S
C526   C528    1.522   .     S
C526   H545    1.117   .     S
C526   O574    1.416   .     S
C527   H539    1.082   .     S
C527   C532    1.407   .     A
C528   H550    1.110   .     S
C528   H549    1.111   .     S
C528   H547    1.110   .     S
C529   H551    1.116   .     S
C529   H552    1.110   .     S
C529   O566    1.416   .     S
C529   C530    1.524   .     S
C530   H554    1.111   .     S
C530   H555    1.110   .     S
C531   H540    1.082   .     S
C531   C533    1.408   .     A
C532   H541    1.082   .     S
C532   N563    1.363   .     A
C533   H542    1.082   .     S
C533   N564    1.364   .     A
C534   N563    1.368   .     A
C534   C536    1.416   .     A
C534   O574    1.383   .     S
C535   N564    1.369   .     A
C535   O566    1.385   .     S
C536   H543    1.081   .     S
H537   C583    1.088   .     S
H553   C602    1.111   .     S
N563   Zn576   2.007   .     S
N564   Zn575   2.007   .     S
O565   Zn575   1.999   .     S
O567   Zn576   1.999   .     S
O568   Zn576   1.996   .     S
O569   Zn575   1.996   .     S
O570   Zn575   1.971   .     S
O571   Zn576   1.971   .     S
O572   Zn576   1.979   .     S
O573   Zn575   1.979   .     S
C577   O640    1.287   .     A
C577   C590    1.441   .     S
C577   O637    1.288   .     A
C578   C580    1.406   .     A
C578   H616    1.081   .     S
C578   C607    1.418   .     A
C579   C608    1.407   .     A
C579   C599    1.410   .     A
C580   C603    1.410   .     A
C580   C147    1.514   1_556 S
C581   C583    1.401   .     S
C581   O644    1.278   .     A
C581   O642    1.277   .     A
C582   O645    1.278   .     A
C582   O643    1.277   .     A
C582   C584    1.400   .     S
C584   C439    1.328   1_655 S
C584   H476    1.087   1_655 S
C585   C596    1.400   .     A
C585   C587    1.381   .     A
C585   H628    1.083   .     S
C586   C597    1.401   .     A
C586   C589    1.381   .     A
C586   H629    1.083   .     S
C587   H630    1.082   .     S
C587   C590    1.398   .     A
C588   O641    1.287   .     A
C588   C591    1.437   .     S
C588   O639    1.286   .     A
C589   C591    1.398   .     A
C589   H631    1.084   .     S
C590   C592    1.401   .     A
C591   C593    1.399   .     A
C592   H632    1.083   .     S
C592   C594    1.381   .     A
C593   C595    1.381   .     A
C593   H633    1.084   .     S
C594   H634    1.083   .     S
C594   C596    1.399   .     A
C595   C597    1.399   .     A
C595   H610    1.083   .     S
C596   C813    1.447   1_545 S
C597   C812    1.447   .     S
C598   H618    1.110   .     S
C598   C600    1.522   .     S
C598   H617    1.117   .     S
C598   O646    1.416   .     S
C599   H611    1.082   .     S
C599   C604    1.407   .     A
C600   H622    1.110   .     S
C600   H621    1.111   .     S
C600   H619    1.110   .     S
C601   H623    1.116   .     S
C601   H624    1.110   .     S
C601   O638    1.416   .     S
C601   C602    1.524   .     S
C602   H626    1.111   .     S
C602   H627    1.110   .     S
C603   H612    1.082   .     S
C603   C605    1.408   .     A
C604   H613    1.082   .     S
C604   N635    1.363   .     A
C605   H614    1.082   .     S
C605   N636    1.364   .     A
C606   N635    1.368   .     A
C606   C608    1.416   .     A
C606   O646    1.383   .     S
C607   N636    1.369   .     A
C607   O638    1.385   .     S
C608   H615    1.081   .     S
H609   C439    1.088   1_655 S
H625   C458    1.111   1_655 S
N635   Zn648   2.007   .     S
N636   Zn647   2.007   .     S
O637   Zn647   1.999   .     S
O639   Zn648   1.999   .     S
O640   Zn648   1.996   .     S
O641   Zn647   1.996   .     S
O642   Zn647   1.971   .     S
O643   Zn648   1.971   .     S
O644   Zn648   1.979   .     S
O645   Zn647   1.979   .     S
C649   O712    1.287   .     A
C649   C662    1.441   .     S
C649   O709    1.288   .     A
C650   C652    1.406   .     A
C650   H688    1.081   .     S
C650   C679    1.418   .     A
C651   C680    1.407   .     A
C651   C671    1.410   .     A
C652   C675    1.410   .     A
C652   C219    1.514   1_556 S
C653   C655    1.401   .     S
C653   O716    1.278   .     A
C653   O714    1.277   .     A
C654   O717    1.278   .     A
C654   O715    1.277   .     A
C654   C656    1.400   .     S
C655   C800    1.328   1_455 S
C655   H825    1.088   1_455 S
C656   C727    1.328   .     S
C656   H764    1.087   .     S
C657   C668    1.400   .     A
C657   C659    1.381   .     A
C657   H700    1.083   .     S
C658   C669    1.401   .     A
C658   C661    1.381   .     A
C658   H701    1.083   .     S
C659   H702    1.082   .     S
C659   C662    1.398   .     A
C660   O713    1.287   .     A
C660   C663    1.437   .     S
C660   O711    1.286   .     A
C661   C663    1.398   .     A
C661   H703    1.084   .     S
C662   C664    1.401   .     A
C663   C665    1.399   .     A
C664   H704    1.083   .     S
C664   C666    1.381   .     A
C665   C667    1.381   .     A
C665   H705    1.084   .     S
C666   H706    1.083   .     S
C666   C668    1.399   .     A
C667   C669    1.399   .     A
C667   H682    1.083   .     S
C669   C452    1.447   1_565 S
C670   H690    1.110   .     S
C670   C672    1.522   .     S
C670   H689    1.117   .     S
C670   O718    1.416   .     S
C671   H683    1.082   .     S
C671   C676    1.407   .     A
C672   H694    1.110   .     S
C672   H693    1.111   .     S
C672   H691    1.110   .     S
C673   H695    1.116   .     S
C673   H696    1.110   .     S
C673   O710    1.416   .     S
C673   C674    1.524   .     S
C674   H698    1.111   .     S
C674   H699    1.110   .     S
C674   H841    1.111   1_455 S
C675   H684    1.082   .     S
C675   C677    1.408   .     A
C676   H685    1.082   .     S
C676   N707    1.363   .     A
C677   H686    1.082   .     S
C677   N708    1.364   .     A
C678   N707    1.368   .     A
C678   C680    1.416   .     A
C678   O718    1.383   .     S
C679   N708    1.369   .     A
C679   O710    1.385   .     S
C680   H687    1.081   .     S
H681   C727    1.088   .     S
H692   C800    1.087   1_455 S
H697   C746    1.111   .     S
N707   Zn720   2.007   .     S
N708   Zn719   2.007   .     S
O709   Zn719   1.999   .     S
O711   Zn720   1.999   .     S
O712   Zn720   1.996   .     S
O713   Zn719   1.996   .     S
O714   Zn719   1.971   .     S
O715   Zn720   1.971   .     S
O716   Zn720   1.979   .     S
O717   Zn719   1.979   .     S
C721   O784    1.287   .     A
C721   C734    1.441   .     S
C721   O781    1.288   .     A
C722   C724    1.406   .     A
C722   H760    1.081   .     S
C722   C751    1.418   .     A
C723   C752    1.407   .     A
C723   C743    1.410   .     A
C724   C747    1.410   .     A
C724   C291    1.514   1_556 S
C725   C727    1.401   .     S
C725   O788    1.278   .     A
C725   O786    1.277   .     A
C726   O789    1.278   .     A
C726   O787    1.277   .     A
C726   C728    1.400   .     S
C728   C799    1.328   .     S
C728   H836    1.087   .     S
C729   C740    1.400   .     A
C729   C731    1.381   .     A
C729   H772    1.083   .     S
C730   C741    1.401   .     A
C730   C733    1.381   .     A
C730   H773    1.083   .     S
C731   H774    1.082   .     S
C731   C734    1.398   .     A
C732   O785    1.287   .     A
C732   C735    1.437   .     S
C732   O783    1.286   .     A
C733   C735    1.398   .     A
C733   H775    1.084   .     S
C734   C736    1.401   .     A
C735   C737    1.399   .     A
C736   H776    1.083   .     S
C736   C738    1.381   .     A
C737   C739    1.381   .     A
C737   H777    1.084   .     S
C738   H778    1.083   .     S
C738   C740    1.399   .     A
C739   C741    1.399   .     A
C739   H754    1.083   .     S
C741   C524    1.447   1_565 S
C742   H762    1.110   .     S
C742   C744    1.522   .     S
C742   H761    1.117   .     S
C742   O790    1.416   .     S
C743   H755    1.082   .     S
C743   C748    1.407   .     A
C744   H766    1.110   .     S
C744   H765    1.111   .     S
C744   H763    1.110   .     S
C745   H767    1.116   .     S
C745   H768    1.110   .     S
C745   O782    1.416   .     S
C745   C746    1.524   .     S
C746   H770    1.111   .     S
C746   H771    1.110   .     S
C747   H756    1.082   .     S
C747   C749    1.408   .     A
C748   H757    1.082   .     S
C748   N779    1.363   .     A
C749   H758    1.082   .     S
C749   N780    1.364   .     A
C750   N779    1.368   .     A
C750   C752    1.416   .     A
C750   O790    1.383   .     S
C751   N780    1.369   .     A
C751   O782    1.385   .     S
C752   H759    1.081   .     S
H753   C799    1.088   .     S
H769   C818    1.111   .     S
N779   Zn792   2.007   .     S
N780   Zn791   2.007   .     S
O781   Zn791   1.999   .     S
O783   Zn792   1.999   .     S
O784   Zn792   1.996   .     S
O785   Zn791   1.996   .     S
O786   Zn791   1.971   .     S
O787   Zn792   1.971   .     S
O788   Zn792   1.979   .     S
O789   Zn791   1.979   .     S
C793   O856    1.287   .     A
C793   C806    1.441   .     S
C793   O853    1.288   .     A
C794   C796    1.406   .     A
C794   H832    1.081   .     S
C794   C823    1.418   .     A
C795   C824    1.407   .     A
C795   C815    1.410   .     A
C796   C819    1.410   .     A
C796   C363    1.514   1_556 S
C797   C799    1.401   .     S
C797   O860    1.278   .     A
C797   O858    1.277   .     A
C798   O861    1.278   .     A
C798   O859    1.277   .     A
C798   C800    1.400   .     S
C800   C655    1.328   1_655 S
C800   H692    1.087   1_655 S
C801   C812    1.400   .     A
C801   C803    1.381   .     A
C801   H844    1.083   .     S
C802   C813    1.401   .     A
C802   C805    1.381   .     A
C802   H845    1.083   .     S
C803   H846    1.082   .     S
C803   C806    1.398   .     A
C804   O857    1.287   .     A
C804   C807    1.437   .     S
C804   O855    1.286   .     A
C805   C807    1.398   .     A
C805   H847    1.084   .     S
C806   C808    1.401   .     A
C807   C809    1.399   .     A
C808   H848    1.083   .     S
C808   C810    1.381   .     A
C809   C811    1.381   .     A
C809   H849    1.084   .     S
C810   H850    1.083   .     S
C810   C812    1.399   .     A
C811   C813    1.399   .     A
C811   H826    1.083   .     S
C813   C596    1.447   1_565 S
C814   H834    1.110   .     S
C814   C816    1.522   .     S
C814   H833    1.117   .     S
C814   O862    1.416   .     S
C815   H827    1.082   .     S
C815   C820    1.407   .     A
C816   H838    1.110   .     S
C816   H837    1.111   .     S
C816   H835    1.110   .     S
C817   H839    1.116   .     S
C817   H840    1.110   .     S
C817   O854    1.416   .     S
C817   C818    1.524   .     S
C818   H842    1.111   .     S
C818   H843    1.110   .     S
C819   H828    1.082   .     S
C819   C821    1.408   .     A
C820   H829    1.082   .     S
C820   N851    1.363   .     A
C821   H830    1.082   .     S
C821   N852    1.364   .     A
C822   N851    1.368   .     A
C822   C824    1.416   .     A
C822   O862    1.383   .     S
C823   N852    1.369   .     A
C823   O854    1.385   .     S
C824   H831    1.081   .     S
H825   C655    1.088   1_655 S
H841   C674    1.111   1_655 S
N851   Zn864   2.007   .     S
N852   Zn863   2.007   .     S
O853   Zn863   1.999   .     S
O855   Zn864   1.999   .     S
O856   Zn864   1.996   .     S
O857   Zn863   1.996   .     S
O858   Zn863   1.971   .     S
O859   Zn864   1.971   .     S
O860   Zn864   1.979   .     S
O861   Zn863   1.979   .     S
