data_str_m1_o10_o16_pcu_sym.14
_audit_creation_date              2020-01-03
_audit_creation_method            'Materials Studio'
_symmetry_space_group_name_H-M    'P1'
_symmetry_Int_Tables_number       1
_symmetry_cell_setting            triclinic
loop_
_symmetry_equiv_pos_as_xyz
  x,y,z
_cell_length_a                    32.5231
_cell_length_b                    32.5187
_cell_length_c                    30.9710
_cell_angle_alpha                 96.7150
_cell_angle_beta                  74.9006
_cell_angle_gamma                 98.4562
loop_
_atom_site_label
_atom_site_type_symbol
_atom_site_fract_x
_atom_site_fract_y
_atom_site_fract_z
_atom_site_U_iso_or_equiv
_atom_site_adp_type
_atom_site_occupancy
C1     C     0.05269   0.15958   0.26007   0.00000  Uiso   1.00
C2     C     0.18170   0.16532   0.05616   0.00000  Uiso   1.00
C3     C     0.20570   0.09912   0.06093   0.00000  Uiso   1.00
C4     C     0.28075   0.17379   0.24005   0.00000  Uiso   1.00
C5     C     0.13905   0.19099   0.42150   0.00000  Uiso   1.00
C6     C     0.32658   0.17650   0.23608   0.00000  Uiso   1.00
C7     C     0.00743   0.15707   0.26397   0.00000  Uiso   1.00
C8     C     0.18035   0.32244   0.23659   0.00000  Uiso   1.00
C9     C     0.15173   0.01176   0.26392   0.00000  Uiso   1.00
C10    C     0.15605   0.05585   0.26025   0.00000  Uiso   1.00
C11    C     0.17653   0.27790   0.24021   0.00000  Uiso   1.00
C12    C     0.13697   0.24563   0.48255   0.00000  Uiso   1.00
C13    C     0.18531   0.14786   0.12934   0.00000  Uiso   1.00
C14    C     0.14696   0.18342   0.37154   0.00000  Uiso   1.00
C15    C     0.20321   0.08718   0.01682   0.00000  Uiso   1.00
C16    C     0.19340   0.13802   0.08096   0.00000  Uiso   1.00
C17    C     0.12202   0.22766   0.44473   0.00000  Uiso   1.00
C18    C     0.22018   0.06892   0.08571   0.00000  Uiso   1.00
C19    C     0.18729   0.05507   0.42920   0.00000  Uiso   1.00
C20    C     0.08583   0.24513   0.43242   0.00000  Uiso   1.00
C21    C     0.04512   0.24403   0.47089   0.00000  Uiso   1.00
C22    C     0.13112   0.28955   0.00288   0.00000  Uiso   1.00
C23    C     0.15877   0.22232   0.00238   0.00000  Uiso   1.00
C24    C     0.16421   0.18043   0.48706   0.00000  Uiso   1.00
C25    C     0.15498   0.16492   0.44558   0.00000  Uiso   1.00
C26    C     0.17894   0.15377   0.01162   0.00000  Uiso   1.00
C27    C     0.18797   0.11308   0.49252   0.00000  Uiso   1.00
C28    C     0.17920   0.09822   0.45079   0.00000  Uiso   1.00
C29    C     0.16060   0.12328   0.42951   0.00000  Uiso   1.00
H30    H     0.31914   0.13915   0.29005   0.00000  Uiso   1.00
H31    H     0.19672   0.04027   0.08954   0.00000  Uiso   1.00
H32    H     0.25198   0.06026   0.06625   0.00000  Uiso   1.00
H33    H     0.17861   0.04887   0.39644   0.00000  Uiso   1.00
H34    H     0.22186   0.05163   0.42298   0.00000  Uiso   1.00
H35    H     0.16784   0.03129   0.45147   0.00000  Uiso   1.00
H36    H     0.03523   0.21184   0.48155   0.00000  Uiso   1.00
H37    H     0.04962   0.26544   0.00026   0.00000  Uiso   1.00
H38    H     0.01870   0.25372   0.45929   0.00000  Uiso   1.00
H39    H     0.09638   0.27727   0.42191   0.00000  Uiso   1.00
H40    H     0.07511   0.22617   0.40455   0.00000  Uiso   1.00
H41    H     0.20674   0.00360   0.21145   0.00000  Uiso   1.00
H42    H     0.11677   0.30732   0.48341   0.00000  Uiso   1.00
H43    H     0.11042   0.28867   0.03757   0.00000  Uiso   1.00
H44    H     0.16284   0.30699   0.00434   0.00000  Uiso   1.00
H45    H     0.12496   0.33140   0.28916   0.00000  Uiso   1.00
H46    H     0.21154   0.05660   0.00258   0.00000  Uiso   1.00
H47    H     0.17100   0.19388   0.07402   0.00000  Uiso   1.00
H48    H     0.17062   0.23765   0.03036   0.00000  Uiso   1.00
H49    H     0.14913   0.10915   0.40080   0.00000  Uiso   1.00
H50    H     0.01557   0.19436   0.21033   0.00000  Uiso   1.00
H51    H     0.22352   0.08210   0.11947   0.00000  Uiso   1.00
O52    O     0.16667   0.16667   0.25000   0.00000  Uiso   1.00
O53    O     0.15451   0.12637   0.15458   0.00000  Uiso   1.00
O54    O     0.12940   0.20391   0.34968   0.00000  Uiso   1.00
O55    O     0.20824   0.17759   0.14606   0.00000  Uiso   1.00
O56    O     0.17451   0.15880   0.34968   0.00000  Uiso   1.00
O57    O     0.17930   0.08019   0.28214   0.00000  Uiso   1.00
O58    O     0.14632   0.26085   0.27013   0.00000  Uiso   1.00
O59    O     0.07412   0.13291   0.23413   0.00000  Uiso   1.00
O60    O     0.26693   0.19272   0.21360   0.00000  Uiso   1.00
O61    O     0.07071   0.18878   0.28213   0.00000  Uiso   1.00
O62    O     0.25491   0.15226   0.27014   0.00000  Uiso   1.00
O63    O     0.13760   0.06944   0.23413   0.00000  Uiso   1.00
O64    O     0.20345   0.25620   0.21360   0.00000  Uiso   1.00
Zn65   Zn    0.19338   0.13994   0.28734   0.00000  Uiso   1.00
Zn66   Zn    0.13379   0.12458   0.21875   0.00000  Uiso   1.00
Zn67   Zn    0.21056   0.19775   0.20657   0.00000  Uiso   1.00
Zn68   Zn    0.12893   0.20439   0.28733   0.00000  Uiso   1.00
C69    C     0.38603   0.15958   0.26007   0.00000  Uiso   1.00
C70    C     0.51504   0.16532   0.05616   0.00000  Uiso   1.00
C71    C     0.53903   0.09912   0.06093   0.00000  Uiso   1.00
C72    C     0.61409   0.17379   0.24005   0.00000  Uiso   1.00
C73    C     0.47238   0.19099   0.42150   0.00000  Uiso   1.00
C74    C     0.65992   0.17650   0.23608   0.00000  Uiso   1.00
C75    C     0.34076   0.15707   0.26397   0.00000  Uiso   1.00
C76    C     0.51368   0.32244   0.23659   0.00000  Uiso   1.00
C77    C     0.48506   0.01176   0.26392   0.00000  Uiso   1.00
C78    C     0.48938   0.05585   0.26025   0.00000  Uiso   1.00
C79    C     0.50987   0.27790   0.24021   0.00000  Uiso   1.00
C80    C     0.47031   0.24563   0.48255   0.00000  Uiso   1.00
C81    C     0.51865   0.14786   0.12934   0.00000  Uiso   1.00
C82    C     0.48029   0.18342   0.37154   0.00000  Uiso   1.00
C83    C     0.53654   0.08718   0.01682   0.00000  Uiso   1.00
C84    C     0.52673   0.13802   0.08096   0.00000  Uiso   1.00
C85    C     0.45535   0.22766   0.44473   0.00000  Uiso   1.00
C86    C     0.55351   0.06892   0.08571   0.00000  Uiso   1.00
C87    C     0.52062   0.05507   0.42920   0.00000  Uiso   1.00
C88    C     0.41917   0.24513   0.43242   0.00000  Uiso   1.00
C89    C     0.37846   0.24403   0.47089   0.00000  Uiso   1.00
C90    C     0.46445   0.28955   0.00288   0.00000  Uiso   1.00
C91    C     0.49211   0.22232   0.00238   0.00000  Uiso   1.00
C92    C     0.49755   0.18043   0.48706   0.00000  Uiso   1.00
C93    C     0.48832   0.16492   0.44558   0.00000  Uiso   1.00
C94    C     0.51227   0.15377   0.01162   0.00000  Uiso   1.00
C95    C     0.52130   0.11308   0.49252   0.00000  Uiso   1.00
C96    C     0.51253   0.09822   0.45079   0.00000  Uiso   1.00
C97    C     0.49393   0.12328   0.42951   0.00000  Uiso   1.00
H98    H     0.65247   0.13915   0.29005   0.00000  Uiso   1.00
H99    H     0.53006   0.04027   0.08954   0.00000  Uiso   1.00
H100   H     0.58531   0.06026   0.06625   0.00000  Uiso   1.00
H101   H     0.51194   0.04887   0.39644   0.00000  Uiso   1.00
H102   H     0.55519   0.05163   0.42298   0.00000  Uiso   1.00
H103   H     0.50118   0.03129   0.45147   0.00000  Uiso   1.00
H104   H     0.36857   0.21184   0.48155   0.00000  Uiso   1.00
H105   H     0.38295   0.26544   0.00026   0.00000  Uiso   1.00
H106   H     0.35203   0.25372   0.45929   0.00000  Uiso   1.00
H107   H     0.42972   0.27727   0.42191   0.00000  Uiso   1.00
H108   H     0.40844   0.22617   0.40455   0.00000  Uiso   1.00
H109   H     0.54007   0.00360   0.21145   0.00000  Uiso   1.00
H110   H     0.45011   0.30732   0.48341   0.00000  Uiso   1.00
H111   H     0.44375   0.28867   0.03757   0.00000  Uiso   1.00
H112   H     0.49617   0.30699   0.00434   0.00000  Uiso   1.00
H113   H     0.45829   0.33140   0.28916   0.00000  Uiso   1.00
H114   H     0.54487   0.05660   0.00258   0.00000  Uiso   1.00
H115   H     0.50433   0.19388   0.07402   0.00000  Uiso   1.00
H116   H     0.50396   0.23765   0.03036   0.00000  Uiso   1.00
H117   H     0.48246   0.10915   0.40080   0.00000  Uiso   1.00
H118   H     0.34890   0.19436   0.21033   0.00000  Uiso   1.00
H119   H     0.55686   0.08210   0.11947   0.00000  Uiso   1.00
O120   O     0.50000   0.16667   0.25000   0.00000  Uiso   1.00
O121   O     0.48784   0.12637   0.15458   0.00000  Uiso   1.00
O122   O     0.46274   0.20391   0.34968   0.00000  Uiso   1.00
O123   O     0.54157   0.17759   0.14606   0.00000  Uiso   1.00
O124   O     0.50785   0.15880   0.34968   0.00000  Uiso   1.00
O125   O     0.51264   0.08019   0.28214   0.00000  Uiso   1.00
O126   O     0.47965   0.26085   0.27013   0.00000  Uiso   1.00
O127   O     0.40745   0.13291   0.23413   0.00000  Uiso   1.00
O128   O     0.60026   0.19272   0.21360   0.00000  Uiso   1.00
O129   O     0.40405   0.18878   0.28213   0.00000  Uiso   1.00
O130   O     0.58824   0.15226   0.27014   0.00000  Uiso   1.00
O131   O     0.47093   0.06944   0.23413   0.00000  Uiso   1.00
O132   O     0.53678   0.25620   0.21360   0.00000  Uiso   1.00
Zn133  Zn    0.52672   0.13994   0.28734   0.00000  Uiso   1.00
Zn134  Zn    0.46713   0.12458   0.21875   0.00000  Uiso   1.00
Zn135  Zn    0.54389   0.19775   0.20657   0.00000  Uiso   1.00
Zn136  Zn    0.46226   0.20439   0.28733   0.00000  Uiso   1.00
C137   C     0.71936   0.15958   0.26007   0.00000  Uiso   1.00
C138   C     0.84837   0.16532   0.05616   0.00000  Uiso   1.00
C139   C     0.87237   0.09912   0.06093   0.00000  Uiso   1.00
C140   C     0.94742   0.17379   0.24005   0.00000  Uiso   1.00
C141   C     0.80571   0.19099   0.42150   0.00000  Uiso   1.00
C142   C     0.99325   0.17650   0.23608   0.00000  Uiso   1.00
C143   C     0.67410   0.15707   0.26397   0.00000  Uiso   1.00
C144   C     0.84701   0.32244   0.23659   0.00000  Uiso   1.00
C145   C     0.81839   0.01176   0.26392   0.00000  Uiso   1.00
C146   C     0.82272   0.05585   0.26025   0.00000  Uiso   1.00
C147   C     0.84320   0.27790   0.24021   0.00000  Uiso   1.00
C148   C     0.80364   0.24563   0.48255   0.00000  Uiso   1.00
C149   C     0.85198   0.14786   0.12934   0.00000  Uiso   1.00
C150   C     0.81363   0.18342   0.37154   0.00000  Uiso   1.00
C151   C     0.86987   0.08718   0.01682   0.00000  Uiso   1.00
C152   C     0.86006   0.13802   0.08096   0.00000  Uiso   1.00
C153   C     0.78869   0.22766   0.44473   0.00000  Uiso   1.00
C154   C     0.88684   0.06892   0.08571   0.00000  Uiso   1.00
C155   C     0.85396   0.05507   0.42920   0.00000  Uiso   1.00
C156   C     0.75250   0.24513   0.43242   0.00000  Uiso   1.00
C157   C     0.71179   0.24403   0.47089   0.00000  Uiso   1.00
C158   C     0.79779   0.28955   0.00288   0.00000  Uiso   1.00
C159   C     0.82544   0.22232   0.00238   0.00000  Uiso   1.00
C160   C     0.83088   0.18043   0.48706   0.00000  Uiso   1.00
C161   C     0.82165   0.16492   0.44558   0.00000  Uiso   1.00
C162   C     0.84561   0.15377   0.01162   0.00000  Uiso   1.00
C163   C     0.85464   0.11308   0.49252   0.00000  Uiso   1.00
C164   C     0.84587   0.09822   0.45079   0.00000  Uiso   1.00
C165   C     0.82727   0.12328   0.42951   0.00000  Uiso   1.00
H166   H     0.98581   0.13915   0.29005   0.00000  Uiso   1.00
H167   H     0.86339   0.04027   0.08954   0.00000  Uiso   1.00
H168   H     0.91865   0.06026   0.06625   0.00000  Uiso   1.00
H169   H     0.84528   0.04887   0.39644   0.00000  Uiso   1.00
H170   H     0.88852   0.05163   0.42298   0.00000  Uiso   1.00
H171   H     0.83451   0.03129   0.45147   0.00000  Uiso   1.00
H172   H     0.70190   0.21184   0.48155   0.00000  Uiso   1.00
H173   H     0.71628   0.26544   0.00026   0.00000  Uiso   1.00
H174   H     0.68537   0.25372   0.45929   0.00000  Uiso   1.00
H175   H     0.76305   0.27727   0.42191   0.00000  Uiso   1.00
H176   H     0.74178   0.22617   0.40455   0.00000  Uiso   1.00
H177   H     0.87341   0.00360   0.21145   0.00000  Uiso   1.00
H178   H     0.78344   0.30732   0.48341   0.00000  Uiso   1.00
H179   H     0.77708   0.28867   0.03757   0.00000  Uiso   1.00
H180   H     0.82950   0.30699   0.00434   0.00000  Uiso   1.00
H181   H     0.79163   0.33140   0.28916   0.00000  Uiso   1.00
H182   H     0.87821   0.05660   0.00258   0.00000  Uiso   1.00
H183   H     0.83766   0.19388   0.07402   0.00000  Uiso   1.00
H184   H     0.83729   0.23765   0.03036   0.00000  Uiso   1.00
H185   H     0.81580   0.10915   0.40080   0.00000  Uiso   1.00
H186   H     0.68224   0.19436   0.21033   0.00000  Uiso   1.00
H187   H     0.89019   0.08210   0.11947   0.00000  Uiso   1.00
O188   O     0.83333   0.16667   0.25000   0.00000  Uiso   1.00
O189   O     0.82118   0.12637   0.15458   0.00000  Uiso   1.00
O190   O     0.79607   0.20391   0.34968   0.00000  Uiso   1.00
O191   O     0.87491   0.17759   0.14606   0.00000  Uiso   1.00
O192   O     0.84118   0.15880   0.34968   0.00000  Uiso   1.00
O193   O     0.84597   0.08019   0.28214   0.00000  Uiso   1.00
O194   O     0.81298   0.26085   0.27013   0.00000  Uiso   1.00
O195   O     0.74078   0.13291   0.23413   0.00000  Uiso   1.00
O196   O     0.93360   0.19272   0.21360   0.00000  Uiso   1.00
O197   O     0.73738   0.18878   0.28213   0.00000  Uiso   1.00
O198   O     0.92158   0.15226   0.27014   0.00000  Uiso   1.00
O199   O     0.80426   0.06944   0.23413   0.00000  Uiso   1.00
O200   O     0.87012   0.25620   0.21360   0.00000  Uiso   1.00
Zn201  Zn    0.86005   0.13994   0.28734   0.00000  Uiso   1.00
Zn202  Zn    0.80046   0.12458   0.21875   0.00000  Uiso   1.00
Zn203  Zn    0.87723   0.19775   0.20657   0.00000  Uiso   1.00
Zn204  Zn    0.79560   0.20439   0.28733   0.00000  Uiso   1.00
C205   C     0.05269   0.49291   0.26007   0.00000  Uiso   1.00
C206   C     0.18170   0.49866   0.05616   0.00000  Uiso   1.00
C207   C     0.20570   0.43245   0.06093   0.00000  Uiso   1.00
C208   C     0.28075   0.50712   0.24005   0.00000  Uiso   1.00
C209   C     0.13905   0.52432   0.42150   0.00000  Uiso   1.00
C210   C     0.32658   0.50983   0.23608   0.00000  Uiso   1.00
C211   C     0.00743   0.49041   0.26397   0.00000  Uiso   1.00
C212   C     0.18035   0.65577   0.23659   0.00000  Uiso   1.00
C213   C     0.15173   0.34509   0.26392   0.00000  Uiso   1.00
C214   C     0.15605   0.38918   0.26025   0.00000  Uiso   1.00
C215   C     0.17653   0.61123   0.24021   0.00000  Uiso   1.00
C216   C     0.13697   0.57896   0.48255   0.00000  Uiso   1.00
C217   C     0.18531   0.48120   0.12934   0.00000  Uiso   1.00
C218   C     0.14696   0.51676   0.37154   0.00000  Uiso   1.00
C219   C     0.20321   0.42052   0.01682   0.00000  Uiso   1.00
C220   C     0.19340   0.47135   0.08096   0.00000  Uiso   1.00
C221   C     0.12202   0.56100   0.44473   0.00000  Uiso   1.00
C222   C     0.22018   0.40225   0.08571   0.00000  Uiso   1.00
C223   C     0.18729   0.38841   0.42920   0.00000  Uiso   1.00
C224   C     0.08583   0.57846   0.43242   0.00000  Uiso   1.00
C225   C     0.04512   0.57736   0.47089   0.00000  Uiso   1.00
C226   C     0.13112   0.62288   0.00288   0.00000  Uiso   1.00
C227   C     0.15877   0.55566   0.00238   0.00000  Uiso   1.00
C228   C     0.16421   0.51376   0.48706   0.00000  Uiso   1.00
C229   C     0.15498   0.49825   0.44558   0.00000  Uiso   1.00
C230   C     0.17894   0.48711   0.01162   0.00000  Uiso   1.00
C231   C     0.18797   0.44641   0.49252   0.00000  Uiso   1.00
C232   C     0.17920   0.43156   0.45079   0.00000  Uiso   1.00
C233   C     0.16060   0.45661   0.42951   0.00000  Uiso   1.00
H234   H     0.31914   0.47249   0.29005   0.00000  Uiso   1.00
H235   H     0.19672   0.37361   0.08954   0.00000  Uiso   1.00
H236   H     0.25198   0.39360   0.06625   0.00000  Uiso   1.00
H237   H     0.17861   0.38221   0.39644   0.00000  Uiso   1.00
H238   H     0.22186   0.38496   0.42298   0.00000  Uiso   1.00
H239   H     0.16784   0.36462   0.45147   0.00000  Uiso   1.00
H240   H     0.03523   0.54517   0.48155   0.00000  Uiso   1.00
H241   H     0.04962   0.59877   0.00026   0.00000  Uiso   1.00
H242   H     0.01870   0.58706   0.45929   0.00000  Uiso   1.00
H243   H     0.09638   0.61061   0.42191   0.00000  Uiso   1.00
H244   H     0.07511   0.55950   0.40455   0.00000  Uiso   1.00
H245   H     0.20674   0.33693   0.21145   0.00000  Uiso   1.00
H246   H     0.11677   0.64066   0.48341   0.00000  Uiso   1.00
H247   H     0.11042   0.62200   0.03757   0.00000  Uiso   1.00
H248   H     0.16284   0.64032   0.00434   0.00000  Uiso   1.00
H249   H     0.12496   0.66473   0.28916   0.00000  Uiso   1.00
H250   H     0.21154   0.38993   0.00258   0.00000  Uiso   1.00
H251   H     0.17100   0.52721   0.07402   0.00000  Uiso   1.00
H252   H     0.17062   0.57098   0.03036   0.00000  Uiso   1.00
H253   H     0.14913   0.44248   0.40080   0.00000  Uiso   1.00
H254   H     0.01557   0.52769   0.21033   0.00000  Uiso   1.00
H255   H     0.22352   0.41544   0.11947   0.00000  Uiso   1.00
O256   O     0.16667   0.50000   0.25000   0.00000  Uiso   1.00
O257   O     0.15451   0.45970   0.15458   0.00000  Uiso   1.00
O258   O     0.12940   0.53724   0.34968   0.00000  Uiso   1.00
O259   O     0.20824   0.51092   0.14606   0.00000  Uiso   1.00
O260   O     0.17451   0.49213   0.34968   0.00000  Uiso   1.00
O261   O     0.17930   0.41352   0.28214   0.00000  Uiso   1.00
O262   O     0.14632   0.59418   0.27013   0.00000  Uiso   1.00
O263   O     0.07412   0.46625   0.23413   0.00000  Uiso   1.00
O264   O     0.26693   0.52605   0.21360   0.00000  Uiso   1.00
O265   O     0.07071   0.52211   0.28213   0.00000  Uiso   1.00
O266   O     0.25491   0.48559   0.27014   0.00000  Uiso   1.00
O267   O     0.13760   0.40277   0.23413   0.00000  Uiso   1.00
O268   O     0.20345   0.58953   0.21360   0.00000  Uiso   1.00
Zn269  Zn    0.19338   0.47327   0.28734   0.00000  Uiso   1.00
Zn270  Zn    0.13379   0.45791   0.21875   0.00000  Uiso   1.00
Zn271  Zn    0.21056   0.53109   0.20657   0.00000  Uiso   1.00
Zn272  Zn    0.12893   0.53773   0.28733   0.00000  Uiso   1.00
C273   C     0.38603   0.49291   0.26007   0.00000  Uiso   1.00
C274   C     0.51504   0.49866   0.05616   0.00000  Uiso   1.00
C275   C     0.53903   0.43245   0.06093   0.00000  Uiso   1.00
C276   C     0.61409   0.50712   0.24005   0.00000  Uiso   1.00
C277   C     0.47238   0.52432   0.42150   0.00000  Uiso   1.00
C278   C     0.65992   0.50983   0.23608   0.00000  Uiso   1.00
C279   C     0.34076   0.49041   0.26397   0.00000  Uiso   1.00
C280   C     0.51368   0.65577   0.23659   0.00000  Uiso   1.00
C281   C     0.48506   0.34509   0.26392   0.00000  Uiso   1.00
C282   C     0.48938   0.38918   0.26025   0.00000  Uiso   1.00
C283   C     0.50987   0.61123   0.24021   0.00000  Uiso   1.00
C284   C     0.47031   0.57896   0.48255   0.00000  Uiso   1.00
C285   C     0.51865   0.48120   0.12934   0.00000  Uiso   1.00
C286   C     0.48029   0.51676   0.37154   0.00000  Uiso   1.00
C287   C     0.53654   0.42052   0.01682   0.00000  Uiso   1.00
C288   C     0.52673   0.47135   0.08096   0.00000  Uiso   1.00
C289   C     0.45535   0.56100   0.44473   0.00000  Uiso   1.00
C290   C     0.55351   0.40225   0.08571   0.00000  Uiso   1.00
C291   C     0.52062   0.38841   0.42920   0.00000  Uiso   1.00
C292   C     0.41917   0.57846   0.43242   0.00000  Uiso   1.00
C293   C     0.37846   0.57736   0.47089   0.00000  Uiso   1.00
C294   C     0.46445   0.62288   0.00288   0.00000  Uiso   1.00
C295   C     0.49211   0.55566   0.00238   0.00000  Uiso   1.00
C296   C     0.49755   0.51376   0.48706   0.00000  Uiso   1.00
C297   C     0.48832   0.49825   0.44558   0.00000  Uiso   1.00
C298   C     0.51227   0.48711   0.01162   0.00000  Uiso   1.00
C299   C     0.52130   0.44641   0.49252   0.00000  Uiso   1.00
C300   C     0.51253   0.43156   0.45079   0.00000  Uiso   1.00
C301   C     0.49393   0.45661   0.42951   0.00000  Uiso   1.00
H302   H     0.65247   0.47249   0.29005   0.00000  Uiso   1.00
H303   H     0.53006   0.37361   0.08954   0.00000  Uiso   1.00
H304   H     0.58531   0.39360   0.06625   0.00000  Uiso   1.00
H305   H     0.51194   0.38221   0.39644   0.00000  Uiso   1.00
H306   H     0.55519   0.38496   0.42298   0.00000  Uiso   1.00
H307   H     0.50118   0.36462   0.45147   0.00000  Uiso   1.00
H308   H     0.36857   0.54517   0.48155   0.00000  Uiso   1.00
H309   H     0.38295   0.59877   0.00026   0.00000  Uiso   1.00
H310   H     0.35203   0.58706   0.45929   0.00000  Uiso   1.00
H311   H     0.42972   0.61061   0.42191   0.00000  Uiso   1.00
H312   H     0.40844   0.55950   0.40455   0.00000  Uiso   1.00
H313   H     0.54007   0.33693   0.21145   0.00000  Uiso   1.00
H314   H     0.45011   0.64066   0.48341   0.00000  Uiso   1.00
H315   H     0.44375   0.62200   0.03757   0.00000  Uiso   1.00
H316   H     0.49617   0.64032   0.00434   0.00000  Uiso   1.00
H317   H     0.45829   0.66473   0.28916   0.00000  Uiso   1.00
H318   H     0.54487   0.38993   0.00258   0.00000  Uiso   1.00
H319   H     0.50433   0.52721   0.07402   0.00000  Uiso   1.00
H320   H     0.50396   0.57098   0.03036   0.00000  Uiso   1.00
H321   H     0.48246   0.44248   0.40080   0.00000  Uiso   1.00
H322   H     0.34890   0.52769   0.21033   0.00000  Uiso   1.00
H323   H     0.55686   0.41544   0.11947   0.00000  Uiso   1.00
O324   O     0.50000   0.50000   0.25000   0.00000  Uiso   1.00
O325   O     0.48784   0.45970   0.15458   0.00000  Uiso   1.00
O326   O     0.46274   0.53724   0.34968   0.00000  Uiso   1.00
O327   O     0.54157   0.51092   0.14606   0.00000  Uiso   1.00
O328   O     0.50785   0.49213   0.34968   0.00000  Uiso   1.00
O329   O     0.51264   0.41352   0.28214   0.00000  Uiso   1.00
O330   O     0.47965   0.59418   0.27013   0.00000  Uiso   1.00
O331   O     0.40745   0.46625   0.23413   0.00000  Uiso   1.00
O332   O     0.60026   0.52605   0.21360   0.00000  Uiso   1.00
O333   O     0.40405   0.52211   0.28213   0.00000  Uiso   1.00
O334   O     0.58824   0.48559   0.27014   0.00000  Uiso   1.00
O335   O     0.47093   0.40277   0.23413   0.00000  Uiso   1.00
O336   O     0.53678   0.58953   0.21360   0.00000  Uiso   1.00
Zn337  Zn    0.52672   0.47327   0.28734   0.00000  Uiso   1.00
Zn338  Zn    0.46713   0.45791   0.21875   0.00000  Uiso   1.00
Zn339  Zn    0.54389   0.53109   0.20657   0.00000  Uiso   1.00
Zn340  Zn    0.46226   0.53773   0.28733   0.00000  Uiso   1.00
C341   C     0.71936   0.49291   0.26007   0.00000  Uiso   1.00
C342   C     0.84837   0.49866   0.05616   0.00000  Uiso   1.00
C343   C     0.87237   0.43245   0.06093   0.00000  Uiso   1.00
C344   C     0.94742   0.50712   0.24005   0.00000  Uiso   1.00
C345   C     0.80571   0.52432   0.42150   0.00000  Uiso   1.00
C346   C     0.99325   0.50983   0.23608   0.00000  Uiso   1.00
C347   C     0.67410   0.49041   0.26397   0.00000  Uiso   1.00
C348   C     0.84701   0.65577   0.23659   0.00000  Uiso   1.00
C349   C     0.81839   0.34509   0.26392   0.00000  Uiso   1.00
C350   C     0.82272   0.38918   0.26025   0.00000  Uiso   1.00
C351   C     0.84320   0.61123   0.24021   0.00000  Uiso   1.00
C352   C     0.80364   0.57896   0.48255   0.00000  Uiso   1.00
C353   C     0.85198   0.48120   0.12934   0.00000  Uiso   1.00
C354   C     0.81363   0.51676   0.37154   0.00000  Uiso   1.00
C355   C     0.86987   0.42052   0.01682   0.00000  Uiso   1.00
C356   C     0.86006   0.47135   0.08096   0.00000  Uiso   1.00
C357   C     0.78869   0.56100   0.44473   0.00000  Uiso   1.00
C358   C     0.88684   0.40225   0.08571   0.00000  Uiso   1.00
C359   C     0.85396   0.38841   0.42920   0.00000  Uiso   1.00
C360   C     0.75250   0.57846   0.43242   0.00000  Uiso   1.00
C361   C     0.71179   0.57736   0.47089   0.00000  Uiso   1.00
C362   C     0.79779   0.62288   0.00288   0.00000  Uiso   1.00
C363   C     0.82544   0.55566   0.00238   0.00000  Uiso   1.00
C364   C     0.83088   0.51376   0.48706   0.00000  Uiso   1.00
C365   C     0.82165   0.49825   0.44558   0.00000  Uiso   1.00
C366   C     0.84561   0.48711   0.01162   0.00000  Uiso   1.00
C367   C     0.85464   0.44641   0.49252   0.00000  Uiso   1.00
C368   C     0.84587   0.43156   0.45079   0.00000  Uiso   1.00
C369   C     0.82727   0.45661   0.42951   0.00000  Uiso   1.00
H370   H     0.98581   0.47249   0.29005   0.00000  Uiso   1.00
H371   H     0.86339   0.37361   0.08954   0.00000  Uiso   1.00
H372   H     0.91865   0.39360   0.06625   0.00000  Uiso   1.00
H373   H     0.84528   0.38221   0.39644   0.00000  Uiso   1.00
H374   H     0.88852   0.38496   0.42298   0.00000  Uiso   1.00
H375   H     0.83451   0.36462   0.45147   0.00000  Uiso   1.00
H376   H     0.70190   0.54517   0.48155   0.00000  Uiso   1.00
H377   H     0.71628   0.59877   0.00026   0.00000  Uiso   1.00
H378   H     0.68537   0.58706   0.45929   0.00000  Uiso   1.00
H379   H     0.76305   0.61061   0.42191   0.00000  Uiso   1.00
H380   H     0.74178   0.55950   0.40455   0.00000  Uiso   1.00
H381   H     0.87341   0.33693   0.21145   0.00000  Uiso   1.00
H382   H     0.78344   0.64066   0.48341   0.00000  Uiso   1.00
H383   H     0.77708   0.62200   0.03757   0.00000  Uiso   1.00
H384   H     0.82950   0.64032   0.00434   0.00000  Uiso   1.00
H385   H     0.79163   0.66473   0.28916   0.00000  Uiso   1.00
H386   H     0.87821   0.38993   0.00258   0.00000  Uiso   1.00
H387   H     0.83766   0.52721   0.07402   0.00000  Uiso   1.00
H388   H     0.83729   0.57098   0.03036   0.00000  Uiso   1.00
H389   H     0.81580   0.44248   0.40080   0.00000  Uiso   1.00
H390   H     0.68224   0.52769   0.21033   0.00000  Uiso   1.00
H391   H     0.89019   0.41544   0.11947   0.00000  Uiso   1.00
O392   O     0.83333   0.50000   0.25000   0.00000  Uiso   1.00
O393   O     0.82118   0.45970   0.15458   0.00000  Uiso   1.00
O394   O     0.79607   0.53724   0.34968   0.00000  Uiso   1.00
O395   O     0.87491   0.51092   0.14606   0.00000  Uiso   1.00
O396   O     0.84118   0.49213   0.34968   0.00000  Uiso   1.00
O397   O     0.84597   0.41352   0.28214   0.00000  Uiso   1.00
O398   O     0.81298   0.59418   0.27013   0.00000  Uiso   1.00
O399   O     0.74078   0.46625   0.23413   0.00000  Uiso   1.00
O400   O     0.93360   0.52605   0.21360   0.00000  Uiso   1.00
O401   O     0.73738   0.52211   0.28213   0.00000  Uiso   1.00
O402   O     0.92158   0.48559   0.27014   0.00000  Uiso   1.00
O403   O     0.80426   0.40277   0.23413   0.00000  Uiso   1.00
O404   O     0.87012   0.58953   0.21360   0.00000  Uiso   1.00
Zn405  Zn    0.86005   0.47327   0.28734   0.00000  Uiso   1.00
Zn406  Zn    0.80046   0.45791   0.21875   0.00000  Uiso   1.00
Zn407  Zn    0.87723   0.53109   0.20657   0.00000  Uiso   1.00
Zn408  Zn    0.79560   0.53773   0.28733   0.00000  Uiso   1.00
C409   C     0.05269   0.82624   0.26007   0.00000  Uiso   1.00
C410   C     0.18170   0.83199   0.05616   0.00000  Uiso   1.00
C411   C     0.20570   0.76579   0.06093   0.00000  Uiso   1.00
C412   C     0.28075   0.84045   0.24005   0.00000  Uiso   1.00
C413   C     0.13905   0.85765   0.42150   0.00000  Uiso   1.00
C414   C     0.32658   0.84317   0.23608   0.00000  Uiso   1.00
C415   C     0.00743   0.82374   0.26397   0.00000  Uiso   1.00
C416   C     0.18035   0.98911   0.23659   0.00000  Uiso   1.00
C417   C     0.15173   0.67843   0.26392   0.00000  Uiso   1.00
C418   C     0.15605   0.72251   0.26025   0.00000  Uiso   1.00
C419   C     0.17653   0.94457   0.24021   0.00000  Uiso   1.00
C420   C     0.13697   0.91230   0.48255   0.00000  Uiso   1.00
C421   C     0.18531   0.81453   0.12934   0.00000  Uiso   1.00
C422   C     0.14696   0.85009   0.37154   0.00000  Uiso   1.00
C423   C     0.20321   0.75385   0.01682   0.00000  Uiso   1.00
C424   C     0.19340   0.80468   0.08096   0.00000  Uiso   1.00
C425   C     0.12202   0.89433   0.44473   0.00000  Uiso   1.00
C426   C     0.22018   0.73558   0.08571   0.00000  Uiso   1.00
C427   C     0.18729   0.72174   0.42920   0.00000  Uiso   1.00
C428   C     0.08583   0.91180   0.43242   0.00000  Uiso   1.00
C429   C     0.04512   0.91069   0.47089   0.00000  Uiso   1.00
C430   C     0.13112   0.95622   0.00288   0.00000  Uiso   1.00
C431   C     0.15877   0.88899   0.00238   0.00000  Uiso   1.00
C432   C     0.16421   0.84710   0.48706   0.00000  Uiso   1.00
C433   C     0.15498   0.83159   0.44558   0.00000  Uiso   1.00
C434   C     0.17894   0.82044   0.01162   0.00000  Uiso   1.00
C435   C     0.18797   0.77975   0.49252   0.00000  Uiso   1.00
C436   C     0.17920   0.76489   0.45079   0.00000  Uiso   1.00
C437   C     0.16060   0.78994   0.42951   0.00000  Uiso   1.00
H438   H     0.31914   0.80582   0.29005   0.00000  Uiso   1.00
H439   H     0.19672   0.70694   0.08954   0.00000  Uiso   1.00
H440   H     0.25198   0.72693   0.06625   0.00000  Uiso   1.00
H441   H     0.17861   0.71554   0.39644   0.00000  Uiso   1.00
H442   H     0.22186   0.71829   0.42298   0.00000  Uiso   1.00
H443   H     0.16784   0.69796   0.45147   0.00000  Uiso   1.00
H444   H     0.03523   0.87850   0.48155   0.00000  Uiso   1.00
H445   H     0.04962   0.93210   0.00026   0.00000  Uiso   1.00
H446   H     0.01870   0.92039   0.45929   0.00000  Uiso   1.00
H447   H     0.09638   0.94394   0.42191   0.00000  Uiso   1.00
H448   H     0.07511   0.89283   0.40455   0.00000  Uiso   1.00
H449   H     0.20674   0.67027   0.21145   0.00000  Uiso   1.00
H450   H     0.11677   0.97399   0.48341   0.00000  Uiso   1.00
H451   H     0.11042   0.95534   0.03757   0.00000  Uiso   1.00
H452   H     0.16284   0.97365   0.00434   0.00000  Uiso   1.00
H453   H     0.12496   0.99806   0.28916   0.00000  Uiso   1.00
H454   H     0.21154   0.72326   0.00258   0.00000  Uiso   1.00
H455   H     0.17100   0.86055   0.07402   0.00000  Uiso   1.00
H456   H     0.17062   0.90432   0.03036   0.00000  Uiso   1.00
H457   H     0.14913   0.77581   0.40080   0.00000  Uiso   1.00
H458   H     0.01557   0.86103   0.21033   0.00000  Uiso   1.00
H459   H     0.22352   0.74877   0.11947   0.00000  Uiso   1.00
O460   O     0.16667   0.83333   0.25000   0.00000  Uiso   1.00
O461   O     0.15451   0.79304   0.15458   0.00000  Uiso   1.00
O462   O     0.12940   0.87058   0.34968   0.00000  Uiso   1.00
O463   O     0.20824   0.84425   0.14606   0.00000  Uiso   1.00
O464   O     0.17451   0.82546   0.34968   0.00000  Uiso   1.00
O465   O     0.17930   0.74686   0.28214   0.00000  Uiso   1.00
O466   O     0.14632   0.92751   0.27013   0.00000  Uiso   1.00
O467   O     0.07412   0.79958   0.23413   0.00000  Uiso   1.00
O468   O     0.26693   0.85939   0.21360   0.00000  Uiso   1.00
O469   O     0.07071   0.85544   0.28213   0.00000  Uiso   1.00
O470   O     0.25491   0.81892   0.27014   0.00000  Uiso   1.00
O471   O     0.13760   0.73610   0.23413   0.00000  Uiso   1.00
O472   O     0.20345   0.92286   0.21360   0.00000  Uiso   1.00
Zn473  Zn    0.19338   0.80661   0.28734   0.00000  Uiso   1.00
Zn474  Zn    0.13379   0.79124   0.21875   0.00000  Uiso   1.00
Zn475  Zn    0.21056   0.86442   0.20657   0.00000  Uiso   1.00
Zn476  Zn    0.12893   0.87106   0.28733   0.00000  Uiso   1.00
C477   C     0.38603   0.82624   0.26007   0.00000  Uiso   1.00
C478   C     0.51504   0.83199   0.05616   0.00000  Uiso   1.00
C479   C     0.53903   0.76579   0.06093   0.00000  Uiso   1.00
C480   C     0.61409   0.84045   0.24005   0.00000  Uiso   1.00
C481   C     0.47238   0.85765   0.42150   0.00000  Uiso   1.00
C482   C     0.65992   0.84317   0.23608   0.00000  Uiso   1.00
C483   C     0.34076   0.82374   0.26397   0.00000  Uiso   1.00
C484   C     0.51368   0.98911   0.23659   0.00000  Uiso   1.00
C485   C     0.48506   0.67843   0.26392   0.00000  Uiso   1.00
C486   C     0.48938   0.72251   0.26025   0.00000  Uiso   1.00
C487   C     0.50987   0.94457   0.24021   0.00000  Uiso   1.00
C488   C     0.47031   0.91230   0.48255   0.00000  Uiso   1.00
C489   C     0.51865   0.81453   0.12934   0.00000  Uiso   1.00
C490   C     0.48029   0.85009   0.37154   0.00000  Uiso   1.00
C491   C     0.53654   0.75385   0.01682   0.00000  Uiso   1.00
C492   C     0.52673   0.80468   0.08096   0.00000  Uiso   1.00
C493   C     0.45535   0.89433   0.44473   0.00000  Uiso   1.00
C494   C     0.55351   0.73558   0.08571   0.00000  Uiso   1.00
C495   C     0.52062   0.72174   0.42920   0.00000  Uiso   1.00
C496   C     0.41917   0.91180   0.43242   0.00000  Uiso   1.00
C497   C     0.37846   0.91069   0.47089   0.00000  Uiso   1.00
C498   C     0.46445   0.95622   0.00288   0.00000  Uiso   1.00
C499   C     0.49211   0.88899   0.00238   0.00000  Uiso   1.00
C500   C     0.49755   0.84710   0.48706   0.00000  Uiso   1.00
C501   C     0.48832   0.83159   0.44558   0.00000  Uiso   1.00
C502   C     0.51227   0.82044   0.01162   0.00000  Uiso   1.00
C503   C     0.52130   0.77975   0.49252   0.00000  Uiso   1.00
C504   C     0.51253   0.76489   0.45079   0.00000  Uiso   1.00
C505   C     0.49393   0.78994   0.42951   0.00000  Uiso   1.00
H506   H     0.65247   0.80582   0.29005   0.00000  Uiso   1.00
H507   H     0.53006   0.70694   0.08954   0.00000  Uiso   1.00
H508   H     0.58531   0.72693   0.06625   0.00000  Uiso   1.00
H509   H     0.51194   0.71554   0.39644   0.00000  Uiso   1.00
H510   H     0.55519   0.71829   0.42298   0.00000  Uiso   1.00
H511   H     0.50118   0.69796   0.45147   0.00000  Uiso   1.00
H512   H     0.36857   0.87850   0.48155   0.00000  Uiso   1.00
H513   H     0.38295   0.93210   0.00026   0.00000  Uiso   1.00
H514   H     0.35203   0.92039   0.45929   0.00000  Uiso   1.00
H515   H     0.42972   0.94394   0.42191   0.00000  Uiso   1.00
H516   H     0.40844   0.89283   0.40455   0.00000  Uiso   1.00
H517   H     0.54007   0.67027   0.21145   0.00000  Uiso   1.00
H518   H     0.45011   0.97399   0.48341   0.00000  Uiso   1.00
H519   H     0.44375   0.95534   0.03757   0.00000  Uiso   1.00
H520   H     0.49617   0.97365   0.00434   0.00000  Uiso   1.00
H521   H     0.45829   0.99806   0.28916   0.00000  Uiso   1.00
H522   H     0.54487   0.72326   0.00258   0.00000  Uiso   1.00
H523   H     0.50433   0.86055   0.07402   0.00000  Uiso   1.00
H524   H     0.50396   0.90432   0.03036   0.00000  Uiso   1.00
H525   H     0.48246   0.77581   0.40080   0.00000  Uiso   1.00
H526   H     0.34890   0.86103   0.21033   0.00000  Uiso   1.00
H527   H     0.55686   0.74877   0.11947   0.00000  Uiso   1.00
O528   O     0.50000   0.83333   0.25000   0.00000  Uiso   1.00
O529   O     0.48784   0.79304   0.15458   0.00000  Uiso   1.00
O530   O     0.46274   0.87058   0.34968   0.00000  Uiso   1.00
O531   O     0.54157   0.84425   0.14606   0.00000  Uiso   1.00
O532   O     0.50785   0.82546   0.34968   0.00000  Uiso   1.00
O533   O     0.51264   0.74686   0.28214   0.00000  Uiso   1.00
O534   O     0.47965   0.92751   0.27013   0.00000  Uiso   1.00
O535   O     0.40745   0.79958   0.23413   0.00000  Uiso   1.00
O536   O     0.60026   0.85939   0.21360   0.00000  Uiso   1.00
O537   O     0.40405   0.85544   0.28213   0.00000  Uiso   1.00
O538   O     0.58824   0.81892   0.27014   0.00000  Uiso   1.00
O539   O     0.47093   0.73610   0.23413   0.00000  Uiso   1.00
O540   O     0.53678   0.92286   0.21360   0.00000  Uiso   1.00
Zn541  Zn    0.52672   0.80661   0.28734   0.00000  Uiso   1.00
Zn542  Zn    0.46713   0.79124   0.21875   0.00000  Uiso   1.00
Zn543  Zn    0.54389   0.86442   0.20657   0.00000  Uiso   1.00
Zn544  Zn    0.46226   0.87106   0.28733   0.00000  Uiso   1.00
C545   C     0.71936   0.82624   0.26007   0.00000  Uiso   1.00
C546   C     0.84837   0.83199   0.05616   0.00000  Uiso   1.00
C547   C     0.87237   0.76579   0.06093   0.00000  Uiso   1.00
C548   C     0.94742   0.84045   0.24005   0.00000  Uiso   1.00
C549   C     0.80571   0.85765   0.42150   0.00000  Uiso   1.00
C550   C     0.99325   0.84317   0.23608   0.00000  Uiso   1.00
C551   C     0.67410   0.82374   0.26397   0.00000  Uiso   1.00
C552   C     0.84701   0.98911   0.23659   0.00000  Uiso   1.00
C553   C     0.81839   0.67843   0.26392   0.00000  Uiso   1.00
C554   C     0.82272   0.72251   0.26025   0.00000  Uiso   1.00
C555   C     0.84320   0.94457   0.24021   0.00000  Uiso   1.00
C556   C     0.80364   0.91230   0.48255   0.00000  Uiso   1.00
C557   C     0.85198   0.81453   0.12934   0.00000  Uiso   1.00
C558   C     0.81363   0.85009   0.37154   0.00000  Uiso   1.00
C559   C     0.86987   0.75385   0.01682   0.00000  Uiso   1.00
C560   C     0.86006   0.80468   0.08096   0.00000  Uiso   1.00
C561   C     0.78869   0.89433   0.44473   0.00000  Uiso   1.00
C562   C     0.88684   0.73558   0.08571   0.00000  Uiso   1.00
C563   C     0.85396   0.72174   0.42920   0.00000  Uiso   1.00
C564   C     0.75250   0.91180   0.43242   0.00000  Uiso   1.00
C565   C     0.71179   0.91069   0.47089   0.00000  Uiso   1.00
C566   C     0.79779   0.95622   0.00288   0.00000  Uiso   1.00
C567   C     0.82544   0.88899   0.00238   0.00000  Uiso   1.00
C568   C     0.83088   0.84710   0.48706   0.00000  Uiso   1.00
C569   C     0.82165   0.83159   0.44558   0.00000  Uiso   1.00
C570   C     0.84561   0.82044   0.01162   0.00000  Uiso   1.00
C571   C     0.85464   0.77975   0.49252   0.00000  Uiso   1.00
C572   C     0.84587   0.76489   0.45079   0.00000  Uiso   1.00
C573   C     0.82727   0.78994   0.42951   0.00000  Uiso   1.00
H574   H     0.98581   0.80582   0.29005   0.00000  Uiso   1.00
H575   H     0.86339   0.70694   0.08954   0.00000  Uiso   1.00
H576   H     0.91865   0.72693   0.06625   0.00000  Uiso   1.00
H577   H     0.84528   0.71554   0.39644   0.00000  Uiso   1.00
H578   H     0.88852   0.71829   0.42298   0.00000  Uiso   1.00
H579   H     0.83451   0.69796   0.45147   0.00000  Uiso   1.00
H580   H     0.70190   0.87850   0.48155   0.00000  Uiso   1.00
H581   H     0.71628   0.93210   0.00026   0.00000  Uiso   1.00
H582   H     0.68537   0.92039   0.45929   0.00000  Uiso   1.00
H583   H     0.76305   0.94394   0.42191   0.00000  Uiso   1.00
H584   H     0.74178   0.89283   0.40455   0.00000  Uiso   1.00
H585   H     0.87341   0.67027   0.21145   0.00000  Uiso   1.00
H586   H     0.78344   0.97399   0.48341   0.00000  Uiso   1.00
H587   H     0.77708   0.95534   0.03757   0.00000  Uiso   1.00
H588   H     0.82950   0.97365   0.00434   0.00000  Uiso   1.00
H589   H     0.79163   0.99806   0.28916   0.00000  Uiso   1.00
H590   H     0.87821   0.72326   0.00258   0.00000  Uiso   1.00
H591   H     0.83766   0.86055   0.07402   0.00000  Uiso   1.00
H592   H     0.83729   0.90432   0.03036   0.00000  Uiso   1.00
H593   H     0.81580   0.77581   0.40080   0.00000  Uiso   1.00
H594   H     0.68224   0.86103   0.21033   0.00000  Uiso   1.00
H595   H     0.89019   0.74877   0.11947   0.00000  Uiso   1.00
O596   O     0.83333   0.83333   0.25000   0.00000  Uiso   1.00
O597   O     0.82118   0.79304   0.15458   0.00000  Uiso   1.00
O598   O     0.79607   0.87058   0.34968   0.00000  Uiso   1.00
O599   O     0.87491   0.84425   0.14606   0.00000  Uiso   1.00
O600   O     0.84118   0.82546   0.34968   0.00000  Uiso   1.00
O601   O     0.84597   0.74686   0.28214   0.00000  Uiso   1.00
O602   O     0.81298   0.92751   0.27013   0.00000  Uiso   1.00
O603   O     0.74078   0.79958   0.23413   0.00000  Uiso   1.00
O604   O     0.93360   0.85939   0.21360   0.00000  Uiso   1.00
O605   O     0.73738   0.85544   0.28213   0.00000  Uiso   1.00
O606   O     0.92158   0.81892   0.27014   0.00000  Uiso   1.00
O607   O     0.80426   0.73610   0.23413   0.00000  Uiso   1.00
O608   O     0.87012   0.92286   0.21360   0.00000  Uiso   1.00
Zn609  Zn    0.86005   0.80661   0.28734   0.00000  Uiso   1.00
Zn610  Zn    0.80046   0.79124   0.21875   0.00000  Uiso   1.00
Zn611  Zn    0.87723   0.86442   0.20657   0.00000  Uiso   1.00
Zn612  Zn    0.79560   0.87106   0.28733   0.00000  Uiso   1.00
C613   C     0.05269   0.15958   0.76007   0.00000  Uiso   1.00
C614   C     0.18170   0.16532   0.55616   0.00000  Uiso   1.00
C615   C     0.20570   0.09912   0.56093   0.00000  Uiso   1.00
C616   C     0.28075   0.17379   0.74005   0.00000  Uiso   1.00
C617   C     0.13905   0.19099   0.92150   0.00000  Uiso   1.00
C618   C     0.32658   0.17650   0.73608   0.00000  Uiso   1.00
C619   C     0.00743   0.15707   0.76397   0.00000  Uiso   1.00
C620   C     0.18035   0.32244   0.73659   0.00000  Uiso   1.00
C621   C     0.15173   0.01176   0.76392   0.00000  Uiso   1.00
C622   C     0.15605   0.05585   0.76025   0.00000  Uiso   1.00
C623   C     0.17653   0.27790   0.74021   0.00000  Uiso   1.00
C624   C     0.13697   0.24563   0.98255   0.00000  Uiso   1.00
C625   C     0.18531   0.14786   0.62934   0.00000  Uiso   1.00
C626   C     0.14696   0.18342   0.87154   0.00000  Uiso   1.00
C627   C     0.20321   0.08718   0.51682   0.00000  Uiso   1.00
C628   C     0.19340   0.13802   0.58096   0.00000  Uiso   1.00
C629   C     0.12202   0.22766   0.94473   0.00000  Uiso   1.00
C630   C     0.22018   0.06892   0.58571   0.00000  Uiso   1.00
C631   C     0.18729   0.05507   0.92920   0.00000  Uiso   1.00
C632   C     0.08583   0.24513   0.93242   0.00000  Uiso   1.00
C633   C     0.04512   0.24403   0.97089   0.00000  Uiso   1.00
C634   C     0.13112   0.28955   0.50288   0.00000  Uiso   1.00
C635   C     0.15877   0.22232   0.50238   0.00000  Uiso   1.00
C636   C     0.16421   0.18043   0.98706   0.00000  Uiso   1.00
C637   C     0.15498   0.16492   0.94558   0.00000  Uiso   1.00
C638   C     0.17894   0.15377   0.51162   0.00000  Uiso   1.00
C639   C     0.18797   0.11308   0.99252   0.00000  Uiso   1.00
C640   C     0.17920   0.09822   0.95079   0.00000  Uiso   1.00
C641   C     0.16060   0.12328   0.92951   0.00000  Uiso   1.00
H642   H     0.31914   0.13915   0.79005   0.00000  Uiso   1.00
H643   H     0.19672   0.04027   0.58954   0.00000  Uiso   1.00
H644   H     0.25198   0.06026   0.56625   0.00000  Uiso   1.00
H645   H     0.17861   0.04887   0.89644   0.00000  Uiso   1.00
H646   H     0.22186   0.05163   0.92298   0.00000  Uiso   1.00
H647   H     0.16784   0.03129   0.95147   0.00000  Uiso   1.00
H648   H     0.03523   0.21184   0.98155   0.00000  Uiso   1.00
H649   H     0.04962   0.26544   0.50026   0.00000  Uiso   1.00
H650   H     0.01870   0.25372   0.95929   0.00000  Uiso   1.00
H651   H     0.09638   0.27727   0.92191   0.00000  Uiso   1.00
H652   H     0.07511   0.22617   0.90455   0.00000  Uiso   1.00
H653   H     0.20674   0.00360   0.71145   0.00000  Uiso   1.00
H654   H     0.11677   0.30732   0.98341   0.00000  Uiso   1.00
H655   H     0.11042   0.28867   0.53757   0.00000  Uiso   1.00
H656   H     0.16284   0.30699   0.50434   0.00000  Uiso   1.00
H657   H     0.12496   0.33140   0.78916   0.00000  Uiso   1.00
H658   H     0.21154   0.05660   0.50258   0.00000  Uiso   1.00
H659   H     0.17100   0.19388   0.57402   0.00000  Uiso   1.00
H660   H     0.17062   0.23765   0.53036   0.00000  Uiso   1.00
H661   H     0.14913   0.10915   0.90080   0.00000  Uiso   1.00
H662   H     0.01557   0.19436   0.71033   0.00000  Uiso   1.00
H663   H     0.22352   0.08210   0.61947   0.00000  Uiso   1.00
O664   O     0.16667   0.16667   0.75000   0.00000  Uiso   1.00
O665   O     0.15451   0.12637   0.65458   0.00000  Uiso   1.00
O666   O     0.12940   0.20391   0.84968   0.00000  Uiso   1.00
O667   O     0.20824   0.17759   0.64606   0.00000  Uiso   1.00
O668   O     0.17451   0.15880   0.84968   0.00000  Uiso   1.00
O669   O     0.17930   0.08019   0.78214   0.00000  Uiso   1.00
O670   O     0.14632   0.26085   0.77013   0.00000  Uiso   1.00
O671   O     0.07412   0.13291   0.73413   0.00000  Uiso   1.00
O672   O     0.26693   0.19272   0.71360   0.00000  Uiso   1.00
O673   O     0.07071   0.18878   0.78213   0.00000  Uiso   1.00
O674   O     0.25491   0.15226   0.77014   0.00000  Uiso   1.00
O675   O     0.13760   0.06944   0.73413   0.00000  Uiso   1.00
O676   O     0.20345   0.25620   0.71360   0.00000  Uiso   1.00
Zn677  Zn    0.19338   0.13994   0.78734   0.00000  Uiso   1.00
Zn678  Zn    0.13379   0.12458   0.71875   0.00000  Uiso   1.00
Zn679  Zn    0.21056   0.19775   0.70657   0.00000  Uiso   1.00
Zn680  Zn    0.12893   0.20439   0.78733   0.00000  Uiso   1.00
C681   C     0.38603   0.15958   0.76007   0.00000  Uiso   1.00
C682   C     0.51504   0.16532   0.55616   0.00000  Uiso   1.00
C683   C     0.53903   0.09912   0.56093   0.00000  Uiso   1.00
C684   C     0.61409   0.17379   0.74005   0.00000  Uiso   1.00
C685   C     0.47238   0.19099   0.92150   0.00000  Uiso   1.00
C686   C     0.65992   0.17650   0.73608   0.00000  Uiso   1.00
C687   C     0.34076   0.15707   0.76397   0.00000  Uiso   1.00
C688   C     0.51368   0.32244   0.73659   0.00000  Uiso   1.00
C689   C     0.48506   0.01176   0.76392   0.00000  Uiso   1.00
C690   C     0.48938   0.05585   0.76025   0.00000  Uiso   1.00
C691   C     0.50987   0.27790   0.74021   0.00000  Uiso   1.00
C692   C     0.47031   0.24563   0.98255   0.00000  Uiso   1.00
C693   C     0.51865   0.14786   0.62934   0.00000  Uiso   1.00
C694   C     0.48029   0.18342   0.87154   0.00000  Uiso   1.00
C695   C     0.53654   0.08718   0.51682   0.00000  Uiso   1.00
C696   C     0.52673   0.13802   0.58096   0.00000  Uiso   1.00
C697   C     0.45535   0.22766   0.94473   0.00000  Uiso   1.00
C698   C     0.55351   0.06892   0.58571   0.00000  Uiso   1.00
C699   C     0.52062   0.05507   0.92920   0.00000  Uiso   1.00
C700   C     0.41917   0.24513   0.93242   0.00000  Uiso   1.00
C701   C     0.37846   0.24403   0.97089   0.00000  Uiso   1.00
C702   C     0.46445   0.28955   0.50288   0.00000  Uiso   1.00
C703   C     0.49211   0.22232   0.50238   0.00000  Uiso   1.00
C704   C     0.49755   0.18043   0.98706   0.00000  Uiso   1.00
C705   C     0.48832   0.16492   0.94558   0.00000  Uiso   1.00
C706   C     0.51227   0.15377   0.51162   0.00000  Uiso   1.00
C707   C     0.52130   0.11308   0.99252   0.00000  Uiso   1.00
C708   C     0.51253   0.09822   0.95079   0.00000  Uiso   1.00
C709   C     0.49393   0.12328   0.92951   0.00000  Uiso   1.00
H710   H     0.65247   0.13915   0.79005   0.00000  Uiso   1.00
H711   H     0.53006   0.04027   0.58954   0.00000  Uiso   1.00
H712   H     0.58531   0.06026   0.56625   0.00000  Uiso   1.00
H713   H     0.51194   0.04887   0.89644   0.00000  Uiso   1.00
H714   H     0.55519   0.05163   0.92298   0.00000  Uiso   1.00
H715   H     0.50118   0.03129   0.95147   0.00000  Uiso   1.00
H716   H     0.36857   0.21184   0.98155   0.00000  Uiso   1.00
H717   H     0.38295   0.26544   0.50026   0.00000  Uiso   1.00
H718   H     0.35203   0.25372   0.95929   0.00000  Uiso   1.00
H719   H     0.42972   0.27727   0.92191   0.00000  Uiso   1.00
H720   H     0.40844   0.22617   0.90455   0.00000  Uiso   1.00
H721   H     0.54007   0.00360   0.71145   0.00000  Uiso   1.00
H722   H     0.45011   0.30732   0.98341   0.00000  Uiso   1.00
H723   H     0.44375   0.28867   0.53757   0.00000  Uiso   1.00
H724   H     0.49617   0.30699   0.50434   0.00000  Uiso   1.00
H725   H     0.45829   0.33140   0.78916   0.00000  Uiso   1.00
H726   H     0.54487   0.05660   0.50258   0.00000  Uiso   1.00
H727   H     0.50433   0.19388   0.57402   0.00000  Uiso   1.00
H728   H     0.50396   0.23765   0.53036   0.00000  Uiso   1.00
H729   H     0.48246   0.10915   0.90080   0.00000  Uiso   1.00
H730   H     0.34890   0.19436   0.71033   0.00000  Uiso   1.00
H731   H     0.55686   0.08210   0.61947   0.00000  Uiso   1.00
O732   O     0.50000   0.16667   0.75000   0.00000  Uiso   1.00
O733   O     0.48784   0.12637   0.65458   0.00000  Uiso   1.00
O734   O     0.46274   0.20391   0.84968   0.00000  Uiso   1.00
O735   O     0.54157   0.17759   0.64606   0.00000  Uiso   1.00
O736   O     0.50785   0.15880   0.84968   0.00000  Uiso   1.00
O737   O     0.51264   0.08019   0.78214   0.00000  Uiso   1.00
O738   O     0.47965   0.26085   0.77013   0.00000  Uiso   1.00
O739   O     0.40745   0.13291   0.73413   0.00000  Uiso   1.00
O740   O     0.60026   0.19272   0.71360   0.00000  Uiso   1.00
O741   O     0.40405   0.18878   0.78213   0.00000  Uiso   1.00
O742   O     0.58824   0.15226   0.77014   0.00000  Uiso   1.00
O743   O     0.47093   0.06944   0.73413   0.00000  Uiso   1.00
O744   O     0.53678   0.25620   0.71360   0.00000  Uiso   1.00
Zn745  Zn    0.52672   0.13994   0.78734   0.00000  Uiso   1.00
Zn746  Zn    0.46713   0.12458   0.71875   0.00000  Uiso   1.00
Zn747  Zn    0.54389   0.19775   0.70657   0.00000  Uiso   1.00
Zn748  Zn    0.46226   0.20439   0.78733   0.00000  Uiso   1.00
C749   C     0.71936   0.15958   0.76007   0.00000  Uiso   1.00
C750   C     0.84837   0.16532   0.55616   0.00000  Uiso   1.00
C751   C     0.87237   0.09912   0.56093   0.00000  Uiso   1.00
C752   C     0.94742   0.17379   0.74005   0.00000  Uiso   1.00
C753   C     0.80571   0.19099   0.92150   0.00000  Uiso   1.00
C754   C     0.99325   0.17650   0.73608   0.00000  Uiso   1.00
C755   C     0.67410   0.15707   0.76397   0.00000  Uiso   1.00
C756   C     0.84701   0.32244   0.73659   0.00000  Uiso   1.00
C757   C     0.81839   0.01176   0.76392   0.00000  Uiso   1.00
C758   C     0.82272   0.05585   0.76025   0.00000  Uiso   1.00
C759   C     0.84320   0.27790   0.74021   0.00000  Uiso   1.00
C760   C     0.80364   0.24563   0.98255   0.00000  Uiso   1.00
C761   C     0.85198   0.14786   0.62934   0.00000  Uiso   1.00
C762   C     0.81363   0.18342   0.87154   0.00000  Uiso   1.00
C763   C     0.86987   0.08718   0.51682   0.00000  Uiso   1.00
C764   C     0.86006   0.13802   0.58096   0.00000  Uiso   1.00
C765   C     0.78869   0.22766   0.94473   0.00000  Uiso   1.00
C766   C     0.88684   0.06892   0.58571   0.00000  Uiso   1.00
C767   C     0.85396   0.05507   0.92920   0.00000  Uiso   1.00
C768   C     0.75250   0.24513   0.93242   0.00000  Uiso   1.00
C769   C     0.71179   0.24403   0.97089   0.00000  Uiso   1.00
C770   C     0.79779   0.28955   0.50288   0.00000  Uiso   1.00
C771   C     0.82544   0.22232   0.50238   0.00000  Uiso   1.00
C772   C     0.83088   0.18043   0.98706   0.00000  Uiso   1.00
C773   C     0.82165   0.16492   0.94558   0.00000  Uiso   1.00
C774   C     0.84561   0.15377   0.51162   0.00000  Uiso   1.00
C775   C     0.85464   0.11308   0.99252   0.00000  Uiso   1.00
C776   C     0.84587   0.09822   0.95079   0.00000  Uiso   1.00
C777   C     0.82727   0.12328   0.92951   0.00000  Uiso   1.00
H778   H     0.98581   0.13915   0.79005   0.00000  Uiso   1.00
H779   H     0.86339   0.04027   0.58954   0.00000  Uiso   1.00
H780   H     0.91865   0.06026   0.56625   0.00000  Uiso   1.00
H781   H     0.84528   0.04887   0.89644   0.00000  Uiso   1.00
H782   H     0.88852   0.05163   0.92298   0.00000  Uiso   1.00
H783   H     0.83451   0.03129   0.95147   0.00000  Uiso   1.00
H784   H     0.70190   0.21184   0.98155   0.00000  Uiso   1.00
H785   H     0.71628   0.26544   0.50026   0.00000  Uiso   1.00
H786   H     0.68537   0.25372   0.95929   0.00000  Uiso   1.00
H787   H     0.76305   0.27727   0.92191   0.00000  Uiso   1.00
H788   H     0.74178   0.22617   0.90455   0.00000  Uiso   1.00
H789   H     0.87341   0.00360   0.71145   0.00000  Uiso   1.00
H790   H     0.78344   0.30732   0.98341   0.00000  Uiso   1.00
H791   H     0.77708   0.28867   0.53757   0.00000  Uiso   1.00
H792   H     0.82950   0.30699   0.50434   0.00000  Uiso   1.00
H793   H     0.79163   0.33140   0.78916   0.00000  Uiso   1.00
H794   H     0.87821   0.05660   0.50258   0.00000  Uiso   1.00
H795   H     0.83766   0.19388   0.57402   0.00000  Uiso   1.00
H796   H     0.83729   0.23765   0.53036   0.00000  Uiso   1.00
H797   H     0.81580   0.10915   0.90080   0.00000  Uiso   1.00
H798   H     0.68224   0.19436   0.71033   0.00000  Uiso   1.00
H799   H     0.89019   0.08210   0.61947   0.00000  Uiso   1.00
O800   O     0.83333   0.16667   0.75000   0.00000  Uiso   1.00
O801   O     0.82118   0.12637   0.65458   0.00000  Uiso   1.00
O802   O     0.79607   0.20391   0.84968   0.00000  Uiso   1.00
O803   O     0.87491   0.17759   0.64606   0.00000  Uiso   1.00
O804   O     0.84118   0.15880   0.84968   0.00000  Uiso   1.00
O805   O     0.84597   0.08019   0.78214   0.00000  Uiso   1.00
O806   O     0.81298   0.26085   0.77013   0.00000  Uiso   1.00
O807   O     0.74078   0.13291   0.73413   0.00000  Uiso   1.00
O808   O     0.93360   0.19272   0.71360   0.00000  Uiso   1.00
O809   O     0.73738   0.18878   0.78213   0.00000  Uiso   1.00
O810   O     0.92158   0.15226   0.77014   0.00000  Uiso   1.00
O811   O     0.80426   0.06944   0.73413   0.00000  Uiso   1.00
O812   O     0.87012   0.25620   0.71360   0.00000  Uiso   1.00
Zn813  Zn    0.86005   0.13994   0.78734   0.00000  Uiso   1.00
Zn814  Zn    0.80046   0.12458   0.71875   0.00000  Uiso   1.00
Zn815  Zn    0.87723   0.19775   0.70657   0.00000  Uiso   1.00
Zn816  Zn    0.79560   0.20439   0.78733   0.00000  Uiso   1.00
C817   C     0.05269   0.49291   0.76007   0.00000  Uiso   1.00
C818   C     0.18170   0.49866   0.55616   0.00000  Uiso   1.00
C819   C     0.20570   0.43245   0.56093   0.00000  Uiso   1.00
C820   C     0.28075   0.50712   0.74005   0.00000  Uiso   1.00
C821   C     0.13905   0.52432   0.92150   0.00000  Uiso   1.00
C822   C     0.32658   0.50983   0.73608   0.00000  Uiso   1.00
C823   C     0.00743   0.49041   0.76397   0.00000  Uiso   1.00
C824   C     0.18035   0.65577   0.73659   0.00000  Uiso   1.00
C825   C     0.15173   0.34509   0.76392   0.00000  Uiso   1.00
C826   C     0.15605   0.38918   0.76025   0.00000  Uiso   1.00
C827   C     0.17653   0.61123   0.74021   0.00000  Uiso   1.00
C828   C     0.13697   0.57896   0.98255   0.00000  Uiso   1.00
C829   C     0.18531   0.48120   0.62934   0.00000  Uiso   1.00
C830   C     0.14696   0.51676   0.87154   0.00000  Uiso   1.00
C831   C     0.20321   0.42052   0.51682   0.00000  Uiso   1.00
C832   C     0.19340   0.47135   0.58096   0.00000  Uiso   1.00
C833   C     0.12202   0.56100   0.94473   0.00000  Uiso   1.00
C834   C     0.22018   0.40225   0.58571   0.00000  Uiso   1.00
C835   C     0.18729   0.38841   0.92920   0.00000  Uiso   1.00
C836   C     0.08583   0.57846   0.93242   0.00000  Uiso   1.00
C837   C     0.04512   0.57736   0.97089   0.00000  Uiso   1.00
C838   C     0.13112   0.62288   0.50288   0.00000  Uiso   1.00
C839   C     0.15877   0.55566   0.50238   0.00000  Uiso   1.00
C840   C     0.16421   0.51376   0.98706   0.00000  Uiso   1.00
C841   C     0.15498   0.49825   0.94558   0.00000  Uiso   1.00
C842   C     0.17894   0.48711   0.51162   0.00000  Uiso   1.00
C843   C     0.18797   0.44641   0.99252   0.00000  Uiso   1.00
C844   C     0.17920   0.43156   0.95079   0.00000  Uiso   1.00
C845   C     0.16060   0.45661   0.92951   0.00000  Uiso   1.00
H846   H     0.31914   0.47249   0.79005   0.00000  Uiso   1.00
H847   H     0.19672   0.37361   0.58954   0.00000  Uiso   1.00
H848   H     0.25198   0.39360   0.56625   0.00000  Uiso   1.00
H849   H     0.17861   0.38221   0.89644   0.00000  Uiso   1.00
H850   H     0.22186   0.38496   0.92298   0.00000  Uiso   1.00
H851   H     0.16784   0.36462   0.95147   0.00000  Uiso   1.00
H852   H     0.03523   0.54517   0.98155   0.00000  Uiso   1.00
H853   H     0.04962   0.59877   0.50026   0.00000  Uiso   1.00
H854   H     0.01870   0.58706   0.95929   0.00000  Uiso   1.00
H855   H     0.09638   0.61061   0.92191   0.00000  Uiso   1.00
H856   H     0.07511   0.55950   0.90455   0.00000  Uiso   1.00
H857   H     0.20674   0.33693   0.71145   0.00000  Uiso   1.00
H858   H     0.11677   0.64066   0.98341   0.00000  Uiso   1.00
H859   H     0.11042   0.62200   0.53757   0.00000  Uiso   1.00
H860   H     0.16284   0.64032   0.50434   0.00000  Uiso   1.00
H861   H     0.12496   0.66473   0.78916   0.00000  Uiso   1.00
H862   H     0.21154   0.38993   0.50258   0.00000  Uiso   1.00
H863   H     0.17100   0.52721   0.57402   0.00000  Uiso   1.00
H864   H     0.17062   0.57098   0.53036   0.00000  Uiso   1.00
H865   H     0.14913   0.44248   0.90080   0.00000  Uiso   1.00
H866   H     0.01557   0.52769   0.71033   0.00000  Uiso   1.00
H867   H     0.22352   0.41544   0.61947   0.00000  Uiso   1.00
O868   O     0.16667   0.50000   0.75000   0.00000  Uiso   1.00
O869   O     0.15451   0.45970   0.65458   0.00000  Uiso   1.00
O870   O     0.12940   0.53724   0.84968   0.00000  Uiso   1.00
O871   O     0.20824   0.51092   0.64606   0.00000  Uiso   1.00
O872   O     0.17451   0.49213   0.84968   0.00000  Uiso   1.00
O873   O     0.17930   0.41352   0.78214   0.00000  Uiso   1.00
O874   O     0.14632   0.59418   0.77013   0.00000  Uiso   1.00
O875   O     0.07412   0.46625   0.73413   0.00000  Uiso   1.00
O876   O     0.26693   0.52605   0.71360   0.00000  Uiso   1.00
O877   O     0.07071   0.52211   0.78213   0.00000  Uiso   1.00
O878   O     0.25491   0.48559   0.77014   0.00000  Uiso   1.00
O879   O     0.13760   0.40277   0.73413   0.00000  Uiso   1.00
O880   O     0.20345   0.58953   0.71360   0.00000  Uiso   1.00
Zn881  Zn    0.19338   0.47327   0.78734   0.00000  Uiso   1.00
Zn882  Zn    0.13379   0.45791   0.71875   0.00000  Uiso   1.00
Zn883  Zn    0.21056   0.53109   0.70657   0.00000  Uiso   1.00
Zn884  Zn    0.12893   0.53773   0.78733   0.00000  Uiso   1.00
C885   C     0.38603   0.49291   0.76007   0.00000  Uiso   1.00
C886   C     0.51504   0.49866   0.55616   0.00000  Uiso   1.00
C887   C     0.53903   0.43245   0.56093   0.00000  Uiso   1.00
C888   C     0.61409   0.50712   0.74005   0.00000  Uiso   1.00
C889   C     0.47238   0.52432   0.92150   0.00000  Uiso   1.00
C890   C     0.65992   0.50983   0.73608   0.00000  Uiso   1.00
C891   C     0.34076   0.49041   0.76397   0.00000  Uiso   1.00
C892   C     0.51368   0.65577   0.73659   0.00000  Uiso   1.00
C893   C     0.48506   0.34509   0.76392   0.00000  Uiso   1.00
C894   C     0.48938   0.38918   0.76025   0.00000  Uiso   1.00
C895   C     0.50987   0.61123   0.74021   0.00000  Uiso   1.00
C896   C     0.47031   0.57896   0.98255   0.00000  Uiso   1.00
C897   C     0.51865   0.48120   0.62934   0.00000  Uiso   1.00
C898   C     0.48029   0.51676   0.87154   0.00000  Uiso   1.00
C899   C     0.53654   0.42052   0.51682   0.00000  Uiso   1.00
C900   C     0.52673   0.47135   0.58096   0.00000  Uiso   1.00
C901   C     0.45535   0.56100   0.94473   0.00000  Uiso   1.00
C902   C     0.55351   0.40225   0.58571   0.00000  Uiso   1.00
C903   C     0.52062   0.38841   0.92920   0.00000  Uiso   1.00
C904   C     0.41917   0.57846   0.93242   0.00000  Uiso   1.00
C905   C     0.37846   0.57736   0.97089   0.00000  Uiso   1.00
C906   C     0.46445   0.62288   0.50288   0.00000  Uiso   1.00
C907   C     0.49211   0.55566   0.50238   0.00000  Uiso   1.00
C908   C     0.49755   0.51376   0.98706   0.00000  Uiso   1.00
C909   C     0.48832   0.49825   0.94558   0.00000  Uiso   1.00
C910   C     0.51227   0.48711   0.51162   0.00000  Uiso   1.00
C911   C     0.52130   0.44641   0.99252   0.00000  Uiso   1.00
C912   C     0.51253   0.43156   0.95079   0.00000  Uiso   1.00
C913   C     0.49393   0.45661   0.92951   0.00000  Uiso   1.00
H914   H     0.65247   0.47249   0.79005   0.00000  Uiso   1.00
H915   H     0.53006   0.37361   0.58954   0.00000  Uiso   1.00
H916   H     0.58531   0.39360   0.56625   0.00000  Uiso   1.00
H917   H     0.51194   0.38221   0.89644   0.00000  Uiso   1.00
H918   H     0.55519   0.38496   0.92298   0.00000  Uiso   1.00
H919   H     0.50118   0.36462   0.95147   0.00000  Uiso   1.00
H920   H     0.36857   0.54517   0.98155   0.00000  Uiso   1.00
H921   H     0.38295   0.59877   0.50026   0.00000  Uiso   1.00
H922   H     0.35203   0.58706   0.95929   0.00000  Uiso   1.00
H923   H     0.42972   0.61061   0.92191   0.00000  Uiso   1.00
H924   H     0.40844   0.55950   0.90455   0.00000  Uiso   1.00
H925   H     0.54007   0.33693   0.71145   0.00000  Uiso   1.00
H926   H     0.45011   0.64066   0.98341   0.00000  Uiso   1.00
H927   H     0.44375   0.62200   0.53757   0.00000  Uiso   1.00
H928   H     0.49617   0.64032   0.50434   0.00000  Uiso   1.00
H929   H     0.45829   0.66473   0.78916   0.00000  Uiso   1.00
H930   H     0.54487   0.38993   0.50258   0.00000  Uiso   1.00
H931   H     0.50433   0.52721   0.57402   0.00000  Uiso   1.00
H932   H     0.50396   0.57098   0.53036   0.00000  Uiso   1.00
H933   H     0.48246   0.44248   0.90080   0.00000  Uiso   1.00
H934   H     0.34890   0.52769   0.71033   0.00000  Uiso   1.00
H935   H     0.55686   0.41544   0.61947   0.00000  Uiso   1.00
O936   O     0.50000   0.50000   0.75000   0.00000  Uiso   1.00
O937   O     0.48784   0.45970   0.65458   0.00000  Uiso   1.00
O938   O     0.46274   0.53724   0.84968   0.00000  Uiso   1.00
O939   O     0.54157   0.51092   0.64606   0.00000  Uiso   1.00
O940   O     0.50785   0.49213   0.84968   0.00000  Uiso   1.00
O941   O     0.51264   0.41352   0.78214   0.00000  Uiso   1.00
O942   O     0.47965   0.59418   0.77013   0.00000  Uiso   1.00
O943   O     0.40745   0.46625   0.73413   0.00000  Uiso   1.00
O944   O     0.60026   0.52605   0.71360   0.00000  Uiso   1.00
O945   O     0.40405   0.52211   0.78213   0.00000  Uiso   1.00
O946   O     0.58824   0.48559   0.77014   0.00000  Uiso   1.00
O947   O     0.47093   0.40277   0.73413   0.00000  Uiso   1.00
O948   O     0.53678   0.58953   0.71360   0.00000  Uiso   1.00
Zn949  Zn    0.52672   0.47327   0.78734   0.00000  Uiso   1.00
Zn950  Zn    0.46713   0.45791   0.71875   0.00000  Uiso   1.00
Zn951  Zn    0.54389   0.53109   0.70657   0.00000  Uiso   1.00
Zn952  Zn    0.46226   0.53773   0.78733   0.00000  Uiso   1.00
C953   C     0.71936   0.49291   0.76007   0.00000  Uiso   1.00
C954   C     0.84837   0.49866   0.55616   0.00000  Uiso   1.00
C955   C     0.87237   0.43245   0.56093   0.00000  Uiso   1.00
C956   C     0.94742   0.50712   0.74005   0.00000  Uiso   1.00
C957   C     0.80571   0.52432   0.92150   0.00000  Uiso   1.00
C958   C     0.99325   0.50983   0.73608   0.00000  Uiso   1.00
C959   C     0.67410   0.49041   0.76397   0.00000  Uiso   1.00
C960   C     0.84701   0.65577   0.73659   0.00000  Uiso   1.00
C961   C     0.81839   0.34509   0.76392   0.00000  Uiso   1.00
C962   C     0.82272   0.38918   0.76025   0.00000  Uiso   1.00
C963   C     0.84320   0.61123   0.74021   0.00000  Uiso   1.00
C964   C     0.80364   0.57896   0.98255   0.00000  Uiso   1.00
C965   C     0.85198   0.48120   0.62934   0.00000  Uiso   1.00
C966   C     0.81363   0.51676   0.87154   0.00000  Uiso   1.00
C967   C     0.86987   0.42052   0.51682   0.00000  Uiso   1.00
C968   C     0.86006   0.47135   0.58096   0.00000  Uiso   1.00
C969   C     0.78869   0.56100   0.94473   0.00000  Uiso   1.00
C970   C     0.88684   0.40225   0.58571   0.00000  Uiso   1.00
C971   C     0.85396   0.38841   0.92920   0.00000  Uiso   1.00
C972   C     0.75250   0.57846   0.93242   0.00000  Uiso   1.00
C973   C     0.71179   0.57736   0.97089   0.00000  Uiso   1.00
C974   C     0.79779   0.62288   0.50288   0.00000  Uiso   1.00
C975   C     0.82544   0.55566   0.50238   0.00000  Uiso   1.00
C976   C     0.83088   0.51376   0.98706   0.00000  Uiso   1.00
C977   C     0.82165   0.49825   0.94558   0.00000  Uiso   1.00
C978   C     0.84561   0.48711   0.51162   0.00000  Uiso   1.00
C979   C     0.85464   0.44641   0.99252   0.00000  Uiso   1.00
C980   C     0.84587   0.43156   0.95079   0.00000  Uiso   1.00
C981   C     0.82727   0.45661   0.92951   0.00000  Uiso   1.00
H982   H     0.98581   0.47249   0.79005   0.00000  Uiso   1.00
H983   H     0.86339   0.37361   0.58954   0.00000  Uiso   1.00
H984   H     0.91865   0.39360   0.56625   0.00000  Uiso   1.00
H985   H     0.84528   0.38221   0.89644   0.00000  Uiso   1.00
H986   H     0.88852   0.38496   0.92298   0.00000  Uiso   1.00
H987   H     0.83451   0.36462   0.95147   0.00000  Uiso   1.00
H988   H     0.70190   0.54517   0.98155   0.00000  Uiso   1.00
H989   H     0.71628   0.59877   0.50026   0.00000  Uiso   1.00
H990   H     0.68537   0.58706   0.95929   0.00000  Uiso   1.00
H991   H     0.76305   0.61061   0.92191   0.00000  Uiso   1.00
H992   H     0.74178   0.55950   0.90455   0.00000  Uiso   1.00
H993   H     0.87341   0.33693   0.71145   0.00000  Uiso   1.00
H994   H     0.78344   0.64066   0.98341   0.00000  Uiso   1.00
H995   H     0.77708   0.62200   0.53757   0.00000  Uiso   1.00
H996   H     0.82950   0.64032   0.50434   0.00000  Uiso   1.00
H997   H     0.79163   0.66473   0.78916   0.00000  Uiso   1.00
H998   H     0.87821   0.38993   0.50258   0.00000  Uiso   1.00
H999   H     0.83766   0.52721   0.57402   0.00000  Uiso   1.00
H1000  H     0.83729   0.57098   0.53036   0.00000  Uiso   1.00
H1001  H     0.81580   0.44248   0.90080   0.00000  Uiso   1.00
H1002  H     0.68224   0.52769   0.71033   0.00000  Uiso   1.00
H1003  H     0.89019   0.41544   0.61947   0.00000  Uiso   1.00
O1004  O     0.83333   0.50000   0.75000   0.00000  Uiso   1.00
O1005  O     0.82118   0.45970   0.65458   0.00000  Uiso   1.00
O1006  O     0.79607   0.53724   0.84968   0.00000  Uiso   1.00
O1007  O     0.87491   0.51092   0.64606   0.00000  Uiso   1.00
O1008  O     0.84118   0.49213   0.84968   0.00000  Uiso   1.00
O1009  O     0.84597   0.41352   0.78214   0.00000  Uiso   1.00
O1010  O     0.81298   0.59418   0.77013   0.00000  Uiso   1.00
O1011  O     0.74078   0.46625   0.73413   0.00000  Uiso   1.00
O1012  O     0.93360   0.52605   0.71360   0.00000  Uiso   1.00
O1013  O     0.73738   0.52211   0.78213   0.00000  Uiso   1.00
O1014  O     0.92158   0.48559   0.77014   0.00000  Uiso   1.00
O1015  O     0.80426   0.40277   0.73413   0.00000  Uiso   1.00
O1016  O     0.87012   0.58953   0.71360   0.00000  Uiso   1.00
Zn1017 Zn    0.86005   0.47327   0.78734   0.00000  Uiso   1.00
Zn1018 Zn    0.80046   0.45791   0.71875   0.00000  Uiso   1.00
Zn1019 Zn    0.87723   0.53109   0.70657   0.00000  Uiso   1.00
Zn1020 Zn    0.79560   0.53773   0.78733   0.00000  Uiso   1.00
C1021  C     0.05269   0.82624   0.76007   0.00000  Uiso   1.00
C1022  C     0.18170   0.83199   0.55616   0.00000  Uiso   1.00
C1023  C     0.20570   0.76579   0.56093   0.00000  Uiso   1.00
C1024  C     0.28075   0.84045   0.74005   0.00000  Uiso   1.00
C1025  C     0.13905   0.85765   0.92150   0.00000  Uiso   1.00
C1026  C     0.32658   0.84317   0.73608   0.00000  Uiso   1.00
C1027  C     0.00743   0.82374   0.76397   0.00000  Uiso   1.00
C1028  C     0.18035   0.98911   0.73659   0.00000  Uiso   1.00
C1029  C     0.15173   0.67843   0.76392   0.00000  Uiso   1.00
C1030  C     0.15605   0.72251   0.76025   0.00000  Uiso   1.00
C1031  C     0.17653   0.94457   0.74021   0.00000  Uiso   1.00
C1032  C     0.13697   0.91230   0.98255   0.00000  Uiso   1.00
C1033  C     0.18531   0.81453   0.62934   0.00000  Uiso   1.00
C1034  C     0.14696   0.85009   0.87154   0.00000  Uiso   1.00
C1035  C     0.20321   0.75385   0.51682   0.00000  Uiso   1.00
C1036  C     0.19340   0.80468   0.58096   0.00000  Uiso   1.00
C1037  C     0.12202   0.89433   0.94473   0.00000  Uiso   1.00
C1038  C     0.22018   0.73558   0.58571   0.00000  Uiso   1.00
C1039  C     0.18729   0.72174   0.92920   0.00000  Uiso   1.00
C1040  C     0.08583   0.91180   0.93242   0.00000  Uiso   1.00
C1041  C     0.04512   0.91069   0.97089   0.00000  Uiso   1.00
C1042  C     0.13112   0.95622   0.50288   0.00000  Uiso   1.00
C1043  C     0.15877   0.88899   0.50238   0.00000  Uiso   1.00
C1044  C     0.16421   0.84710   0.98706   0.00000  Uiso   1.00
C1045  C     0.15498   0.83159   0.94558   0.00000  Uiso   1.00
C1046  C     0.17894   0.82044   0.51162   0.00000  Uiso   1.00
C1047  C     0.18797   0.77975   0.99252   0.00000  Uiso   1.00
C1048  C     0.17920   0.76489   0.95079   0.00000  Uiso   1.00
C1049  C     0.16060   0.78994   0.92951   0.00000  Uiso   1.00
H1050  H     0.31914   0.80582   0.79005   0.00000  Uiso   1.00
H1051  H     0.19672   0.70694   0.58954   0.00000  Uiso   1.00
H1052  H     0.25198   0.72693   0.56625   0.00000  Uiso   1.00
H1053  H     0.17861   0.71554   0.89644   0.00000  Uiso   1.00
H1054  H     0.22186   0.71829   0.92298   0.00000  Uiso   1.00
H1055  H     0.16784   0.69796   0.95147   0.00000  Uiso   1.00
H1056  H     0.03523   0.87850   0.98155   0.00000  Uiso   1.00
H1057  H     0.04962   0.93210   0.50026   0.00000  Uiso   1.00
H1058  H     0.01870   0.92039   0.95929   0.00000  Uiso   1.00
H1059  H     0.09638   0.94394   0.92191   0.00000  Uiso   1.00
H1060  H     0.07511   0.89283   0.90455   0.00000  Uiso   1.00
H1061  H     0.20674   0.67027   0.71145   0.00000  Uiso   1.00
H1062  H     0.11677   0.97399   0.98341   0.00000  Uiso   1.00
H1063  H     0.11042   0.95534   0.53757   0.00000  Uiso   1.00
H1064  H     0.16284   0.97365   0.50434   0.00000  Uiso   1.00
H1065  H     0.12496   0.99806   0.78916   0.00000  Uiso   1.00
H1066  H     0.21154   0.72326   0.50258   0.00000  Uiso   1.00
H1067  H     0.17100   0.86055   0.57402   0.00000  Uiso   1.00
H1068  H     0.17062   0.90432   0.53036   0.00000  Uiso   1.00
H1069  H     0.14913   0.77581   0.90080   0.00000  Uiso   1.00
H1070  H     0.01557   0.86103   0.71033   0.00000  Uiso   1.00
H1071  H     0.22352   0.74877   0.61947   0.00000  Uiso   1.00
O1072  O     0.16667   0.83333   0.75000   0.00000  Uiso   1.00
O1073  O     0.15451   0.79304   0.65458   0.00000  Uiso   1.00
O1074  O     0.12940   0.87058   0.84968   0.00000  Uiso   1.00
O1075  O     0.20824   0.84425   0.64606   0.00000  Uiso   1.00
O1076  O     0.17451   0.82546   0.84968   0.00000  Uiso   1.00
O1077  O     0.17930   0.74686   0.78214   0.00000  Uiso   1.00
O1078  O     0.14632   0.92751   0.77013   0.00000  Uiso   1.00
O1079  O     0.07412   0.79958   0.73413   0.00000  Uiso   1.00
O1080  O     0.26693   0.85939   0.71360   0.00000  Uiso   1.00
O1081  O     0.07071   0.85544   0.78213   0.00000  Uiso   1.00
O1082  O     0.25491   0.81892   0.77014   0.00000  Uiso   1.00
O1083  O     0.13760   0.73610   0.73413   0.00000  Uiso   1.00
O1084  O     0.20345   0.92286   0.71360   0.00000  Uiso   1.00
Zn1085 Zn    0.19338   0.80661   0.78734   0.00000  Uiso   1.00
Zn1086 Zn    0.13379   0.79124   0.71875   0.00000  Uiso   1.00
Zn1087 Zn    0.21056   0.86442   0.70657   0.00000  Uiso   1.00
Zn1088 Zn    0.12893   0.87106   0.78733   0.00000  Uiso   1.00
C1089  C     0.38603   0.82624   0.76007   0.00000  Uiso   1.00
C1090  C     0.51504   0.83199   0.55616   0.00000  Uiso   1.00
C1091  C     0.53903   0.76579   0.56093   0.00000  Uiso   1.00
C1092  C     0.61409   0.84045   0.74005   0.00000  Uiso   1.00
C1093  C     0.47238   0.85765   0.92150   0.00000  Uiso   1.00
C1094  C     0.65992   0.84317   0.73608   0.00000  Uiso   1.00
C1095  C     0.34076   0.82374   0.76397   0.00000  Uiso   1.00
C1096  C     0.51368   0.98911   0.73659   0.00000  Uiso   1.00
C1097  C     0.48506   0.67843   0.76392   0.00000  Uiso   1.00
C1098  C     0.48938   0.72251   0.76025   0.00000  Uiso   1.00
C1099  C     0.50987   0.94457   0.74021   0.00000  Uiso   1.00
C1100  C     0.47031   0.91230   0.98255   0.00000  Uiso   1.00
C1101  C     0.51865   0.81453   0.62934   0.00000  Uiso   1.00
C1102  C     0.48029   0.85009   0.87154   0.00000  Uiso   1.00
C1103  C     0.53654   0.75385   0.51682   0.00000  Uiso   1.00
C1104  C     0.52673   0.80468   0.58096   0.00000  Uiso   1.00
C1105  C     0.45535   0.89433   0.94473   0.00000  Uiso   1.00
C1106  C     0.55351   0.73558   0.58571   0.00000  Uiso   1.00
C1107  C     0.52062   0.72174   0.92920   0.00000  Uiso   1.00
C1108  C     0.41917   0.91180   0.93242   0.00000  Uiso   1.00
C1109  C     0.37846   0.91069   0.97089   0.00000  Uiso   1.00
C1110  C     0.46445   0.95622   0.50288   0.00000  Uiso   1.00
C1111  C     0.49211   0.88899   0.50238   0.00000  Uiso   1.00
C1112  C     0.49755   0.84710   0.98706   0.00000  Uiso   1.00
C1113  C     0.48832   0.83159   0.94558   0.00000  Uiso   1.00
C1114  C     0.51227   0.82044   0.51162   0.00000  Uiso   1.00
C1115  C     0.52130   0.77975   0.99252   0.00000  Uiso   1.00
C1116  C     0.51253   0.76489   0.95079   0.00000  Uiso   1.00
C1117  C     0.49393   0.78994   0.92951   0.00000  Uiso   1.00
H1118  H     0.65247   0.80582   0.79005   0.00000  Uiso   1.00
H1119  H     0.53006   0.70694   0.58954   0.00000  Uiso   1.00
H1120  H     0.58531   0.72693   0.56625   0.00000  Uiso   1.00
H1121  H     0.51194   0.71554   0.89644   0.00000  Uiso   1.00
H1122  H     0.55519   0.71829   0.92298   0.00000  Uiso   1.00
H1123  H     0.50118   0.69796   0.95147   0.00000  Uiso   1.00
H1124  H     0.36857   0.87850   0.98155   0.00000  Uiso   1.00
H1125  H     0.38295   0.93210   0.50026   0.00000  Uiso   1.00
H1126  H     0.35203   0.92039   0.95929   0.00000  Uiso   1.00
H1127  H     0.42972   0.94394   0.92191   0.00000  Uiso   1.00
H1128  H     0.40844   0.89283   0.90455   0.00000  Uiso   1.00
H1129  H     0.54007   0.67027   0.71145   0.00000  Uiso   1.00
H1130  H     0.45011   0.97399   0.98341   0.00000  Uiso   1.00
H1131  H     0.44375   0.95534   0.53757   0.00000  Uiso   1.00
H1132  H     0.49617   0.97365   0.50434   0.00000  Uiso   1.00
H1133  H     0.45829   0.99806   0.78916   0.00000  Uiso   1.00
H1134  H     0.54487   0.72326   0.50258   0.00000  Uiso   1.00
H1135  H     0.50433   0.86055   0.57402   0.00000  Uiso   1.00
H1136  H     0.50396   0.90432   0.53036   0.00000  Uiso   1.00
H1137  H     0.48246   0.77581   0.90080   0.00000  Uiso   1.00
H1138  H     0.34890   0.86103   0.71033   0.00000  Uiso   1.00
H1139  H     0.55686   0.74877   0.61947   0.00000  Uiso   1.00
O1140  O     0.50000   0.83333   0.75000   0.00000  Uiso   1.00
O1141  O     0.48784   0.79304   0.65458   0.00000  Uiso   1.00
O1142  O     0.46274   0.87058   0.84968   0.00000  Uiso   1.00
O1143  O     0.54157   0.84425   0.64606   0.00000  Uiso   1.00
O1144  O     0.50785   0.82546   0.84968   0.00000  Uiso   1.00
O1145  O     0.51264   0.74686   0.78214   0.00000  Uiso   1.00
O1146  O     0.47965   0.92751   0.77013   0.00000  Uiso   1.00
O1147  O     0.40745   0.79958   0.73413   0.00000  Uiso   1.00
O1148  O     0.60026   0.85939   0.71360   0.00000  Uiso   1.00
O1149  O     0.40405   0.85544   0.78213   0.00000  Uiso   1.00
O1150  O     0.58824   0.81892   0.77014   0.00000  Uiso   1.00
O1151  O     0.47093   0.73610   0.73413   0.00000  Uiso   1.00
O1152  O     0.53678   0.92286   0.71360   0.00000  Uiso   1.00
Zn1153 Zn    0.52672   0.80661   0.78734   0.00000  Uiso   1.00
Zn1154 Zn    0.46713   0.79124   0.71875   0.00000  Uiso   1.00
Zn1155 Zn    0.54389   0.86442   0.70657   0.00000  Uiso   1.00
Zn1156 Zn    0.46226   0.87106   0.78733   0.00000  Uiso   1.00
C1157  C     0.71936   0.82624   0.76007   0.00000  Uiso   1.00
C1158  C     0.84837   0.83199   0.55616   0.00000  Uiso   1.00
C1159  C     0.87237   0.76579   0.56093   0.00000  Uiso   1.00
C1160  C     0.94742   0.84045   0.74005   0.00000  Uiso   1.00
C1161  C     0.80571   0.85765   0.92150   0.00000  Uiso   1.00
C1162  C     0.99325   0.84317   0.73608   0.00000  Uiso   1.00
C1163  C     0.67410   0.82374   0.76397   0.00000  Uiso   1.00
C1164  C     0.84701   0.98911   0.73659   0.00000  Uiso   1.00
C1165  C     0.81839   0.67843   0.76392   0.00000  Uiso   1.00
C1166  C     0.82272   0.72251   0.76025   0.00000  Uiso   1.00
C1167  C     0.84320   0.94457   0.74021   0.00000  Uiso   1.00
C1168  C     0.80364   0.91230   0.98255   0.00000  Uiso   1.00
C1169  C     0.85198   0.81453   0.62934   0.00000  Uiso   1.00
C1170  C     0.81363   0.85009   0.87154   0.00000  Uiso   1.00
C1171  C     0.86987   0.75385   0.51682   0.00000  Uiso   1.00
C1172  C     0.86006   0.80468   0.58096   0.00000  Uiso   1.00
C1173  C     0.78869   0.89433   0.94473   0.00000  Uiso   1.00
C1174  C     0.88684   0.73558   0.58571   0.00000  Uiso   1.00
C1175  C     0.85396   0.72174   0.92920   0.00000  Uiso   1.00
C1176  C     0.75250   0.91180   0.93242   0.00000  Uiso   1.00
C1177  C     0.71179   0.91069   0.97089   0.00000  Uiso   1.00
C1178  C     0.79779   0.95622   0.50288   0.00000  Uiso   1.00
C1179  C     0.82544   0.88899   0.50238   0.00000  Uiso   1.00
C1180  C     0.83088   0.84710   0.98706   0.00000  Uiso   1.00
C1181  C     0.82165   0.83159   0.94558   0.00000  Uiso   1.00
C1182  C     0.84561   0.82044   0.51162   0.00000  Uiso   1.00
C1183  C     0.85464   0.77975   0.99252   0.00000  Uiso   1.00
C1184  C     0.84587   0.76489   0.95079   0.00000  Uiso   1.00
C1185  C     0.82727   0.78994   0.92951   0.00000  Uiso   1.00
H1186  H     0.98581   0.80582   0.79005   0.00000  Uiso   1.00
H1187  H     0.86339   0.70694   0.58954   0.00000  Uiso   1.00
H1188  H     0.91865   0.72693   0.56625   0.00000  Uiso   1.00
H1189  H     0.84528   0.71554   0.89644   0.00000  Uiso   1.00
H1190  H     0.88852   0.71829   0.92298   0.00000  Uiso   1.00
H1191  H     0.83451   0.69796   0.95147   0.00000  Uiso   1.00
H1192  H     0.70190   0.87850   0.98155   0.00000  Uiso   1.00
H1193  H     0.71628   0.93210   0.50026   0.00000  Uiso   1.00
H1194  H     0.68537   0.92039   0.95929   0.00000  Uiso   1.00
H1195  H     0.76305   0.94394   0.92191   0.00000  Uiso   1.00
H1196  H     0.74178   0.89283   0.90455   0.00000  Uiso   1.00
H1197  H     0.87341   0.67027   0.71145   0.00000  Uiso   1.00
H1198  H     0.78344   0.97399   0.98341   0.00000  Uiso   1.00
H1199  H     0.77708   0.95534   0.53757   0.00000  Uiso   1.00
H1200  H     0.82950   0.97365   0.50434   0.00000  Uiso   1.00
H1201  H     0.79163   0.99806   0.78916   0.00000  Uiso   1.00
H1202  H     0.87821   0.72326   0.50258   0.00000  Uiso   1.00
H1203  H     0.83766   0.86055   0.57402   0.00000  Uiso   1.00
H1204  H     0.83729   0.90432   0.53036   0.00000  Uiso   1.00
H1205  H     0.81580   0.77581   0.90080   0.00000  Uiso   1.00
H1206  H     0.68224   0.86103   0.71033   0.00000  Uiso   1.00
H1207  H     0.89019   0.74877   0.61947   0.00000  Uiso   1.00
O1208  O     0.83333   0.83333   0.75000   0.00000  Uiso   1.00
O1209  O     0.82118   0.79304   0.65458   0.00000  Uiso   1.00
O1210  O     0.79607   0.87058   0.84968   0.00000  Uiso   1.00
O1211  O     0.87491   0.84425   0.64606   0.00000  Uiso   1.00
O1212  O     0.84118   0.82546   0.84968   0.00000  Uiso   1.00
O1213  O     0.84597   0.74686   0.78214   0.00000  Uiso   1.00
O1214  O     0.81298   0.92751   0.77013   0.00000  Uiso   1.00
O1215  O     0.74078   0.79958   0.73413   0.00000  Uiso   1.00
O1216  O     0.93360   0.85939   0.71360   0.00000  Uiso   1.00
O1217  O     0.73738   0.85544   0.78213   0.00000  Uiso   1.00
O1218  O     0.92158   0.81892   0.77014   0.00000  Uiso   1.00
O1219  O     0.80426   0.73610   0.73413   0.00000  Uiso   1.00
O1220  O     0.87012   0.92286   0.71360   0.00000  Uiso   1.00
Zn1221 Zn    0.86005   0.80661   0.78734   0.00000  Uiso   1.00
Zn1222 Zn    0.80046   0.79124   0.71875   0.00000  Uiso   1.00
Zn1223 Zn    0.87723   0.86442   0.70657   0.00000  Uiso   1.00
Zn1224 Zn    0.79560   0.87106   0.78733   0.00000  Uiso   1.00
loop_
_geom_bond_atom_site_label_1
_geom_bond_atom_site_label_2
_geom_bond_distance
_geom_bond_site_symmetry_2
_ccdc_geom_bond_type
C1     O59     1.267   .     A
C1     C7      1.436   .     S
C1     O61     1.267   .     A
C2     H47     1.079   .     S
C2     C16     1.391   .     A
C2     C26     1.409   .     A
C3     C18     1.509   .     S
C3     C15     1.396   .     A
C3     C16     1.408   .     A
C4     O60     1.282   .     A
C4     O62     1.279   .     A
C4     C6      1.454   .     S
C5     C14     1.497   .     S
C5     C25     1.422   .     A
C5     C17     1.426   .     A
C6     C75     1.334   .     S
C6     H118    1.088   .     S
C7     C142    1.334   1_455 S
C7     H166    1.086   1_455 S
C8     C11     1.450   .     S
C8     C213    1.331   .     S
C8     H245    1.088   .     S
C9     C10     1.435   .     S
C9     C416    1.331   1_545 S
C9     H453    1.086   1_545 S
C10    O57     1.274   .     A
C10    O63     1.274   .     A
C11    O58     1.272   .     A
C11    O64     1.270   .     A
C12    C17     1.415   .     A
C12    C634    1.510   .     S
C12    C635    1.396   .     S
C13    O53     1.272   .     A
C13    C16     1.457   .     S
C13    O55     1.277   .     A
C14    O56     1.293   .     A
C14    O54     1.283   .     A
C15    H46     1.082   .     S
C15    C639    1.409   1_554 S
C17    C20     1.528   .     S
C18    H32     1.111   .     S
C18    H51     1.109   .     S
C18    H31     1.110   .     S
C19    C28     1.511   .     S
C19    H33     1.111   .     S
C19    H35     1.108   .     S
C19    H34     1.110   .     S
C20    H40     1.103   .     S
C20    H39     1.110   .     S
C20    C21     1.532   .     S
C21    H38     1.111   .     S
C21    H36     1.111   .     S
C21    H649    1.107   .     S
C22    H43     1.110   .     S
C22    H44     1.111   .     S
C22    C624    1.510   1_554 S
C22    H654    1.106   1_554 S
C23    H48     1.079   .     S
C23    C624    1.396   1_554 S
C23    C636    1.410   1_554 S
C24    C25     1.414   .     A
C24    C635    1.410   .     S
C24    C638    1.423   .     S
C25    C29     1.408   .     A
C26    C636    1.423   1_554 S
C26    C639    1.424   1_554 S
C27    C28     1.411   .     A
C27    C638    1.424   .     S
C27    C627    1.409   .     S
C28    C29     1.394   .     A
C29    H49     1.081   .     S
H30    C75     1.086   .     S
H37    C633    1.107   1_554 S
H41    C416    1.088   1_545 S
H42    C634    1.106   .     S
H45    C213    1.086   .     S
H50    C142    1.088   1_455 S
O52    Zn68    1.929   .     S
O52    Zn65    1.957   .     S
O52    Zn67    1.940   .     S
O52    Zn66    1.937   .     S
O53    Zn66    1.930   .     S
O54    Zn68    1.937   .     S
O55    Zn67    1.929   .     S
O56    Zn65    1.923   .     S
O57    Zn65    1.927   .     S
O58    Zn68    1.934   .     S
O59    Zn66    1.926   .     S
O60    Zn67    1.934   .     S
O61    Zn68    1.930   .     S
O62    Zn65    1.925   .     S
O63    Zn66    1.937   .     S
O64    Zn67    1.928   .     S
C69    O127    1.267   .     A
C69    C75     1.436   .     S
C69    O129    1.267   .     A
C70    H115    1.079   .     S
C70    C84     1.391   .     A
C70    C94     1.409   .     A
C71    C86     1.509   .     S
C71    C83     1.396   .     A
C71    C84     1.408   .     A
C72    O128    1.282   .     A
C72    O130    1.279   .     A
C72    C74     1.454   .     S
C73    C82     1.497   .     S
C73    C93     1.422   .     A
C73    C85     1.426   .     A
C74    C143    1.334   .     S
C74    H186    1.088   .     S
C76    C79     1.450   .     S
C76    C281    1.331   .     S
C76    H313    1.088   .     S
C77    C78     1.435   .     S
C77    C484    1.331   1_545 S
C77    H521    1.086   1_545 S
C78    O125    1.274   .     A
C78    O131    1.274   .     A
C79    O126    1.272   .     A
C79    O132    1.270   .     A
C80    C85     1.415   .     A
C80    C702    1.510   .     S
C80    C703    1.396   .     S
C81    O121    1.272   .     A
C81    C84     1.457   .     S
C81    O123    1.277   .     A
C82    O124    1.293   .     A
C82    O122    1.283   .     A
C83    H114    1.082   .     S
C83    C707    1.409   1_554 S
C85    C88     1.528   .     S
C86    H100    1.111   .     S
C86    H119    1.109   .     S
C86    H99     1.110   .     S
C87    C96     1.511   .     S
C87    H101    1.111   .     S
C87    H103    1.108   .     S
C87    H102    1.110   .     S
C88    H108    1.103   .     S
C88    H107    1.110   .     S
C88    C89     1.532   .     S
C89    H106    1.111   .     S
C89    H104    1.111   .     S
C89    H717    1.107   .     S
C90    H111    1.110   .     S
C90    H112    1.111   .     S
C90    C692    1.510   1_554 S
C90    H722    1.106   1_554 S
C91    H116    1.079   .     S
C91    C692    1.396   1_554 S
C91    C704    1.410   1_554 S
C92    C93     1.414   .     A
C92    C703    1.410   .     S
C92    C706    1.423   .     S
C93    C97     1.408   .     A
C94    C704    1.423   1_554 S
C94    C707    1.424   1_554 S
C95    C96     1.411   .     A
C95    C706    1.424   .     S
C95    C695    1.409   .     S
C96    C97     1.394   .     A
C97    H117    1.081   .     S
H98    C143    1.086   .     S
H105   C701    1.107   1_554 S
H109   C484    1.088   1_545 S
H110   C702    1.106   .     S
H113   C281    1.086   .     S
O120   Zn136   1.929   .     S
O120   Zn133   1.957   .     S
O120   Zn135   1.940   .     S
O120   Zn134   1.937   .     S
O121   Zn134   1.930   .     S
O122   Zn136   1.937   .     S
O123   Zn135   1.929   .     S
O124   Zn133   1.923   .     S
O125   Zn133   1.927   .     S
O126   Zn136   1.934   .     S
O127   Zn134   1.926   .     S
O128   Zn135   1.934   .     S
O129   Zn136   1.930   .     S
O130   Zn133   1.925   .     S
O131   Zn134   1.937   .     S
O132   Zn135   1.928   .     S
C137   O195    1.267   .     A
C137   C143    1.436   .     S
C137   O197    1.267   .     A
C138   H183    1.079   .     S
C138   C152    1.391   .     A
C138   C162    1.409   .     A
C139   C154    1.509   .     S
C139   C151    1.396   .     A
C139   C152    1.408   .     A
C140   O196    1.282   .     A
C140   O198    1.279   .     A
C140   C142    1.454   .     S
C141   C150    1.497   .     S
C141   C161    1.422   .     A
C141   C153    1.426   .     A
C142   C7      1.334   1_655 S
C142   H50     1.088   1_655 S
C144   C147    1.450   .     S
C144   C349    1.331   .     S
C144   H381    1.088   .     S
C145   C146    1.435   .     S
C145   C552    1.331   1_545 S
C145   H589    1.086   1_545 S
C146   O193    1.274   .     A
C146   O199    1.274   .     A
C147   O194    1.272   .     A
C147   O200    1.270   .     A
C148   C153    1.415   .     A
C148   C770    1.510   .     S
C148   C771    1.396   .     S
C149   O189    1.272   .     A
C149   C152    1.457   .     S
C149   O191    1.277   .     A
C150   O192    1.293   .     A
C150   O190    1.283   .     A
C151   H182    1.082   .     S
C151   C775    1.409   1_554 S
C153   C156    1.528   .     S
C154   H168    1.111   .     S
C154   H187    1.109   .     S
C154   H167    1.110   .     S
C155   C164    1.511   .     S
C155   H169    1.111   .     S
C155   H171    1.108   .     S
C155   H170    1.110   .     S
C156   H176    1.103   .     S
C156   H175    1.110   .     S
C156   C157    1.532   .     S
C157   H174    1.111   .     S
C157   H172    1.111   .     S
C157   H785    1.107   .     S
C158   H179    1.110   .     S
C158   H180    1.111   .     S
C158   C760    1.510   1_554 S
C158   H790    1.106   1_554 S
C159   H184    1.079   .     S
C159   C760    1.396   1_554 S
C159   C772    1.410   1_554 S
C160   C161    1.414   .     A
C160   C771    1.410   .     S
C160   C774    1.423   .     S
C161   C165    1.408   .     A
C162   C772    1.423   1_554 S
C162   C775    1.424   1_554 S
C163   C164    1.411   .     A
C163   C774    1.424   .     S
C163   C763    1.409   .     S
C164   C165    1.394   .     A
C165   H185    1.081   .     S
H166   C7      1.086   1_655 S
H173   C769    1.107   1_554 S
H177   C552    1.088   1_545 S
H178   C770    1.106   .     S
H181   C349    1.086   .     S
O188   Zn204   1.929   .     S
O188   Zn201   1.957   .     S
O188   Zn203   1.940   .     S
O188   Zn202   1.937   .     S
O189   Zn202   1.930   .     S
O190   Zn204   1.937   .     S
O191   Zn203   1.929   .     S
O192   Zn201   1.923   .     S
O193   Zn201   1.927   .     S
O194   Zn204   1.934   .     S
O195   Zn202   1.926   .     S
O196   Zn203   1.934   .     S
O197   Zn204   1.930   .     S
O198   Zn201   1.925   .     S
O199   Zn202   1.937   .     S
O200   Zn203   1.928   .     S
C205   O263    1.267   .     A
C205   C211    1.436   .     S
C205   O265    1.267   .     A
C206   H251    1.079   .     S
C206   C220    1.391   .     A
C206   C230    1.409   .     A
C207   C222    1.509   .     S
C207   C219    1.396   .     A
C207   C220    1.408   .     A
C208   O264    1.282   .     A
C208   O266    1.279   .     A
C208   C210    1.454   .     S
C209   C218    1.497   .     S
C209   C229    1.422   .     A
C209   C221    1.426   .     A
C210   C279    1.334   .     S
C210   H322    1.088   .     S
C211   C346    1.334   1_455 S
C211   H370    1.086   1_455 S
C212   C215    1.450   .     S
C212   C417    1.331   .     S
C212   H449    1.088   .     S
C213   C214    1.435   .     S
C214   O261    1.274   .     A
C214   O267    1.274   .     A
C215   O262    1.272   .     A
C215   O268    1.270   .     A
C216   C221    1.415   .     A
C216   C838    1.510   .     S
C216   C839    1.396   .     S
C217   O257    1.272   .     A
C217   C220    1.457   .     S
C217   O259    1.277   .     A
C218   O260    1.293   .     A
C218   O258    1.283   .     A
C219   H250    1.082   .     S
C219   C843    1.409   1_554 S
C221   C224    1.528   .     S
C222   H236    1.111   .     S
C222   H255    1.109   .     S
C222   H235    1.110   .     S
C223   C232    1.511   .     S
C223   H237    1.111   .     S
C223   H239    1.108   .     S
C223   H238    1.110   .     S
C224   H244    1.103   .     S
C224   H243    1.110   .     S
C224   C225    1.532   .     S
C225   H242    1.111   .     S
C225   H240    1.111   .     S
C225   H853    1.107   .     S
C226   H247    1.110   .     S
C226   H248    1.111   .     S
C226   C828    1.510   1_554 S
C226   H858    1.106   1_554 S
C227   H252    1.079   .     S
C227   C828    1.396   1_554 S
C227   C840    1.410   1_554 S
C228   C229    1.414   .     A
C228   C839    1.410   .     S
C228   C842    1.423   .     S
C229   C233    1.408   .     A
C230   C840    1.423   1_554 S
C230   C843    1.424   1_554 S
C231   C232    1.411   .     A
C231   C842    1.424   .     S
C231   C831    1.409   .     S
C232   C233    1.394   .     A
C233   H253    1.081   .     S
H234   C279    1.086   .     S
H241   C837    1.107   1_554 S
H246   C838    1.106   .     S
H249   C417    1.086   .     S
H254   C346    1.088   1_455 S
O256   Zn272   1.929   .     S
O256   Zn269   1.957   .     S
O256   Zn271   1.940   .     S
O256   Zn270   1.937   .     S
O257   Zn270   1.930   .     S
O258   Zn272   1.937   .     S
O259   Zn271   1.929   .     S
O260   Zn269   1.923   .     S
O261   Zn269   1.927   .     S
O262   Zn272   1.934   .     S
O263   Zn270   1.926   .     S
O264   Zn271   1.934   .     S
O265   Zn272   1.930   .     S
O266   Zn269   1.925   .     S
O267   Zn270   1.937   .     S
O268   Zn271   1.928   .     S
C273   O331    1.267   .     A
C273   C279    1.436   .     S
C273   O333    1.267   .     A
C274   H319    1.079   .     S
C274   C288    1.391   .     A
C274   C298    1.409   .     A
C275   C290    1.509   .     S
C275   C287    1.396   .     A
C275   C288    1.408   .     A
C276   O332    1.282   .     A
C276   O334    1.279   .     A
C276   C278    1.454   .     S
C277   C286    1.497   .     S
C277   C297    1.422   .     A
C277   C289    1.426   .     A
C278   C347    1.334   .     S
C278   H390    1.088   .     S
C280   C283    1.450   .     S
C280   C485    1.331   .     S
C280   H517    1.088   .     S
C281   C282    1.435   .     S
C282   O329    1.274   .     A
C282   O335    1.274   .     A
C283   O330    1.272   .     A
C283   O336    1.270   .     A
C284   C289    1.415   .     A
C284   C906    1.510   .     S
C284   C907    1.396   .     S
C285   O325    1.272   .     A
C285   C288    1.457   .     S
C285   O327    1.277   .     A
C286   O328    1.293   .     A
C286   O326    1.283   .     A
C287   H318    1.082   .     S
C287   C911    1.409   1_554 S
C289   C292    1.528   .     S
C290   H304    1.111   .     S
C290   H323    1.109   .     S
C290   H303    1.110   .     S
C291   C300    1.511   .     S
C291   H305    1.111   .     S
C291   H307    1.108   .     S
C291   H306    1.110   .     S
C292   H312    1.103   .     S
C292   H311    1.110   .     S
C292   C293    1.532   .     S
C293   H310    1.111   .     S
C293   H308    1.111   .     S
C293   H921    1.107   .     S
C294   H315    1.110   .     S
C294   H316    1.111   .     S
C294   C896    1.510   1_554 S
C294   H926    1.106   1_554 S
C295   H320    1.079   .     S
C295   C896    1.396   1_554 S
C295   C908    1.410   1_554 S
C296   C297    1.414   .     A
C296   C907    1.410   .     S
C296   C910    1.423   .     S
C297   C301    1.408   .     A
C298   C908    1.423   1_554 S
C298   C911    1.424   1_554 S
C299   C300    1.411   .     A
C299   C910    1.424   .     S
C299   C899    1.409   .     S
C300   C301    1.394   .     A
C301   H321    1.081   .     S
H302   C347    1.086   .     S
H309   C905    1.107   1_554 S
H314   C906    1.106   .     S
H317   C485    1.086   .     S
O324   Zn340   1.929   .     S
O324   Zn337   1.957   .     S
O324   Zn339   1.940   .     S
O324   Zn338   1.937   .     S
O325   Zn338   1.930   .     S
O326   Zn340   1.937   .     S
O327   Zn339   1.929   .     S
O328   Zn337   1.923   .     S
O329   Zn337   1.927   .     S
O330   Zn340   1.934   .     S
O331   Zn338   1.926   .     S
O332   Zn339   1.934   .     S
O333   Zn340   1.930   .     S
O334   Zn337   1.925   .     S
O335   Zn338   1.937   .     S
O336   Zn339   1.928   .     S
C341   O399    1.267   .     A
C341   C347    1.436   .     S
C341   O401    1.267   .     A
C342   H387    1.079   .     S
C342   C356    1.391   .     A
C342   C366    1.409   .     A
C343   C358    1.509   .     S
C343   C355    1.396   .     A
C343   C356    1.408   .     A
C344   O400    1.282   .     A
C344   O402    1.279   .     A
C344   C346    1.454   .     S
C345   C354    1.497   .     S
C345   C365    1.422   .     A
C345   C357    1.426   .     A
C346   C211    1.334   1_655 S
C346   H254    1.088   1_655 S
C348   C351    1.450   .     S
C348   C553    1.331   .     S
C348   H585    1.088   .     S
C349   C350    1.435   .     S
C350   O397    1.274   .     A
C350   O403    1.274   .     A
C351   O398    1.272   .     A
C351   O404    1.270   .     A
C352   C357    1.415   .     A
C352   C974    1.510   .     S
C352   C975    1.396   .     S
C353   O393    1.272   .     A
C353   C356    1.457   .     S
C353   O395    1.277   .     A
C354   O396    1.293   .     A
C354   O394    1.283   .     A
C355   H386    1.082   .     S
C355   C979    1.409   1_554 S
C357   C360    1.528   .     S
C358   H372    1.111   .     S
C358   H391    1.109   .     S
C358   H371    1.110   .     S
C359   C368    1.511   .     S
C359   H373    1.111   .     S
C359   H375    1.108   .     S
C359   H374    1.110   .     S
C360   H380    1.103   .     S
C360   H379    1.110   .     S
C360   C361    1.532   .     S
C361   H378    1.111   .     S
C361   H376    1.111   .     S
C361   H989    1.107   .     S
C362   H383    1.110   .     S
C362   H384    1.111   .     S
C362   C964    1.510   1_554 S
C362   H994    1.106   1_554 S
C363   H388    1.079   .     S
C363   C964    1.396   1_554 S
C363   C976    1.410   1_554 S
C364   C365    1.414   .     A
C364   C975    1.410   .     S
C364   C978    1.423   .     S
C365   C369    1.408   .     A
C366   C976    1.423   1_554 S
C366   C979    1.424   1_554 S
C367   C368    1.411   .     A
C367   C978    1.424   .     S
C367   C967    1.409   .     S
C368   C369    1.394   .     A
C369   H389    1.081   .     S
H370   C211    1.086   1_655 S
H377   C973    1.107   1_554 S
H382   C974    1.106   .     S
H385   C553    1.086   .     S
O392   Zn408   1.929   .     S
O392   Zn405   1.957   .     S
O392   Zn407   1.940   .     S
O392   Zn406   1.937   .     S
O393   Zn406   1.930   .     S
O394   Zn408   1.937   .     S
O395   Zn407   1.929   .     S
O396   Zn405   1.923   .     S
O397   Zn405   1.927   .     S
O398   Zn408   1.934   .     S
O399   Zn406   1.926   .     S
O400   Zn407   1.934   .     S
O401   Zn408   1.930   .     S
O402   Zn405   1.925   .     S
O403   Zn406   1.937   .     S
O404   Zn407   1.928   .     S
C409   O467    1.267   .     A
C409   C415    1.436   .     S
C409   O469    1.267   .     A
C410   H455    1.079   .     S
C410   C424    1.391   .     A
C410   C434    1.409   .     A
C411   C426    1.509   .     S
C411   C423    1.396   .     A
C411   C424    1.408   .     A
C412   O468    1.282   .     A
C412   O470    1.279   .     A
C412   C414    1.454   .     S
C413   C422    1.497   .     S
C413   C433    1.422   .     A
C413   C425    1.426   .     A
C414   C483    1.334   .     S
C414   H526    1.088   .     S
C415   C550    1.334   1_455 S
C415   H574    1.086   1_455 S
C416   C419    1.450   .     S
C416   C9      1.331   1_565 S
C416   H41     1.088   1_565 S
C417   C418    1.435   .     S
C418   O465    1.274   .     A
C418   O471    1.274   .     A
C419   O466    1.272   .     A
C419   O472    1.270   .     A
C420   C425    1.415   .     A
C420   C1042   1.510   .     S
C420   C1043   1.396   .     S
C421   O461    1.272   .     A
C421   C424    1.457   .     S
C421   O463    1.277   .     A
C422   O464    1.293   .     A
C422   O462    1.283   .     A
C423   H454    1.082   .     S
C423   C1047   1.409   1_554 S
C425   C428    1.528   .     S
C426   H440    1.111   .     S
C426   H459    1.109   .     S
C426   H439    1.110   .     S
C427   C436    1.511   .     S
C427   H441    1.111   .     S
C427   H443    1.108   .     S
C427   H442    1.110   .     S
C428   H448    1.103   .     S
C428   H447    1.110   .     S
C428   C429    1.532   .     S
C429   H446    1.111   .     S
C429   H444    1.111   .     S
C429   H1057   1.107   .     S
C430   H451    1.110   .     S
C430   H452    1.111   .     S
C430   C1032   1.510   1_554 S
C430   H1062   1.106   1_554 S
C431   H456    1.079   .     S
C431   C1032   1.396   1_554 S
C431   C1044   1.410   1_554 S
C432   C433    1.414   .     A
C432   C1043   1.410   .     S
C432   C1046   1.423   .     S
C433   C437    1.408   .     A
C434   C1044   1.423   1_554 S
C434   C1047   1.424   1_554 S
C435   C436    1.411   .     A
C435   C1046   1.424   .     S
C435   C1035   1.409   .     S
C436   C437    1.394   .     A
C437   H457    1.081   .     S
H438   C483    1.086   .     S
H445   C1041   1.107   1_554 S
H450   C1042   1.106   .     S
H453   C9      1.086   1_565 S
H458   C550    1.088   1_455 S
O460   Zn476   1.929   .     S
O460   Zn473   1.957   .     S
O460   Zn475   1.940   .     S
O460   Zn474   1.937   .     S
O461   Zn474   1.930   .     S
O462   Zn476   1.937   .     S
O463   Zn475   1.929   .     S
O464   Zn473   1.923   .     S
O465   Zn473   1.927   .     S
O466   Zn476   1.934   .     S
O467   Zn474   1.926   .     S
O468   Zn475   1.934   .     S
O469   Zn476   1.930   .     S
O470   Zn473   1.925   .     S
O471   Zn474   1.937   .     S
O472   Zn475   1.928   .     S
C477   O535    1.267   .     A
C477   C483    1.436   .     S
C477   O537    1.267   .     A
C478   H523    1.079   .     S
C478   C492    1.391   .     A
C478   C502    1.409   .     A
C479   C494    1.509   .     S
C479   C491    1.396   .     A
C479   C492    1.408   .     A
C480   O536    1.282   .     A
C480   O538    1.279   .     A
C480   C482    1.454   .     S
C481   C490    1.497   .     S
C481   C501    1.422   .     A
C481   C493    1.426   .     A
C482   C551    1.334   .     S
C482   H594    1.088   .     S
C484   C487    1.450   .     S
C484   C77     1.331   1_565 S
C484   H109    1.088   1_565 S
C485   C486    1.435   .     S
C486   O533    1.274   .     A
C486   O539    1.274   .     A
C487   O534    1.272   .     A
C487   O540    1.270   .     A
C488   C493    1.415   .     A
C488   C1110   1.510   .     S
C488   C1111   1.396   .     S
C489   O529    1.272   .     A
C489   C492    1.457   .     S
C489   O531    1.277   .     A
C490   O532    1.293   .     A
C490   O530    1.283   .     A
C491   H522    1.082   .     S
C491   C1115   1.409   1_554 S
C493   C496    1.528   .     S
C494   H508    1.111   .     S
C494   H527    1.109   .     S
C494   H507    1.110   .     S
C495   C504    1.511   .     S
C495   H509    1.111   .     S
C495   H511    1.108   .     S
C495   H510    1.110   .     S
C496   H516    1.103   .     S
C496   H515    1.110   .     S
C496   C497    1.532   .     S
C497   H514    1.111   .     S
C497   H512    1.111   .     S
C497   H1125   1.107   .     S
C498   H519    1.110   .     S
C498   H520    1.111   .     S
C498   C1100   1.510   1_554 S
C498   H1130   1.106   1_554 S
C499   H524    1.079   .     S
C499   C1100   1.396   1_554 S
C499   C1112   1.410   1_554 S
C500   C501    1.414   .     A
C500   C1111   1.410   .     S
C500   C1114   1.423   .     S
C501   C505    1.408   .     A
C502   C1112   1.423   1_554 S
C502   C1115   1.424   1_554 S
C503   C504    1.411   .     A
C503   C1114   1.424   .     S
C503   C1103   1.409   .     S
C504   C505    1.394   .     A
C505   H525    1.081   .     S
H506   C551    1.086   .     S
H513   C1109   1.107   1_554 S
H518   C1110   1.106   .     S
H521   C77     1.086   1_565 S
O528   Zn544   1.929   .     S
O528   Zn541   1.957   .     S
O528   Zn543   1.940   .     S
O528   Zn542   1.937   .     S
O529   Zn542   1.930   .     S
O530   Zn544   1.937   .     S
O531   Zn543   1.929   .     S
O532   Zn541   1.923   .     S
O533   Zn541   1.927   .     S
O534   Zn544   1.934   .     S
O535   Zn542   1.926   .     S
O536   Zn543   1.934   .     S
O537   Zn544   1.930   .     S
O538   Zn541   1.925   .     S
O539   Zn542   1.937   .     S
O540   Zn543   1.928   .     S
C545   O603    1.267   .     A
C545   C551    1.436   .     S
C545   O605    1.267   .     A
C546   H591    1.079   .     S
C546   C560    1.391   .     A
C546   C570    1.409   .     A
C547   C562    1.509   .     S
C547   C559    1.396   .     A
C547   C560    1.408   .     A
C548   O604    1.282   .     A
C548   O606    1.279   .     A
C548   C550    1.454   .     S
C549   C558    1.497   .     S
C549   C569    1.422   .     A
C549   C561    1.426   .     A
C550   C415    1.334   1_655 S
C550   H458    1.088   1_655 S
C552   C555    1.450   .     S
C552   C145    1.331   1_565 S
C552   H177    1.088   1_565 S
C553   C554    1.435   .     S
C554   O601    1.274   .     A
C554   O607    1.274   .     A
C555   O602    1.272   .     A
C555   O608    1.270   .     A
C556   C561    1.415   .     A
C556   C1178   1.510   .     S
C556   C1179   1.396   .     S
C557   O597    1.272   .     A
C557   C560    1.457   .     S
C557   O599    1.277   .     A
C558   O600    1.293   .     A
C558   O598    1.283   .     A
C559   H590    1.082   .     S
C559   C1183   1.409   1_554 S
C561   C564    1.528   .     S
C562   H576    1.111   .     S
C562   H595    1.109   .     S
C562   H575    1.110   .     S
C563   C572    1.511   .     S
C563   H577    1.111   .     S
C563   H579    1.108   .     S
C563   H578    1.110   .     S
C564   H584    1.103   .     S
C564   H583    1.110   .     S
C564   C565    1.532   .     S
C565   H582    1.111   .     S
C565   H580    1.111   .     S
C565   H1193   1.107   .     S
C566   H587    1.110   .     S
C566   H588    1.111   .     S
C566   C1168   1.510   1_554 S
C566   H1198   1.106   1_554 S
C567   H592    1.079   .     S
C567   C1168   1.396   1_554 S
C567   C1180   1.410   1_554 S
C568   C569    1.414   .     A
C568   C1179   1.410   .     S
C568   C1182   1.423   .     S
C569   C573    1.408   .     A
C570   C1180   1.423   1_554 S
C570   C1183   1.424   1_554 S
C571   C572    1.411   .     A
C571   C1182   1.424   .     S
C571   C1171   1.409   .     S
C572   C573    1.394   .     A
C573   H593    1.081   .     S
H574   C415    1.086   1_655 S
H581   C1177   1.107   1_554 S
H586   C1178   1.106   .     S
H589   C145    1.086   1_565 S
O596   Zn612   1.929   .     S
O596   Zn609   1.957   .     S
O596   Zn611   1.940   .     S
O596   Zn610   1.937   .     S
O597   Zn610   1.930   .     S
O598   Zn612   1.937   .     S
O599   Zn611   1.929   .     S
O600   Zn609   1.923   .     S
O601   Zn609   1.927   .     S
O602   Zn612   1.934   .     S
O603   Zn610   1.926   .     S
O604   Zn611   1.934   .     S
O605   Zn612   1.930   .     S
O606   Zn609   1.925   .     S
O607   Zn610   1.937   .     S
O608   Zn611   1.928   .     S
C613   O671    1.267   .     A
C613   C619    1.436   .     S
C613   O673    1.267   .     A
C614   H659    1.079   .     S
C614   C628    1.391   .     A
C614   C638    1.409   .     A
C615   C630    1.509   .     S
C615   C627    1.396   .     A
C615   C628    1.408   .     A
C616   O672    1.282   .     A
C616   O674    1.279   .     A
C616   C618    1.454   .     S
C617   C626    1.497   .     S
C617   C637    1.422   .     A
C617   C629    1.426   .     A
C618   C687    1.334   .     S
C618   H730    1.088   .     S
C619   C754    1.334   1_455 S
C619   H778    1.086   1_455 S
C620   C623    1.450   .     S
C620   C825    1.331   .     S
C620   H857    1.088   .     S
C621   C622    1.435   .     S
C621   C1028   1.331   1_545 S
C621   H1065   1.086   1_545 S
C622   O669    1.274   .     A
C622   O675    1.274   .     A
C623   O670    1.272   .     A
C623   O676    1.270   .     A
C624   C629    1.415   .     A
C624   C22     1.510   1_556 S
C624   C23     1.396   1_556 S
C625   O665    1.272   .     A
C625   C628    1.457   .     S
C625   O667    1.277   .     A
C626   O668    1.293   .     A
C626   O666    1.283   .     A
C627   H658    1.082   .     S
C629   C632    1.528   .     S
C630   H644    1.111   .     S
C630   H663    1.109   .     S
C630   H643    1.110   .     S
C631   C640    1.511   .     S
C631   H645    1.111   .     S
C631   H647    1.108   .     S
C631   H646    1.110   .     S
C632   H652    1.103   .     S
C632   H651    1.110   .     S
C632   C633    1.532   .     S
C633   H650    1.111   .     S
C633   H648    1.111   .     S
C633   H37     1.107   1_556 S
C634   H655    1.110   .     S
C634   H656    1.111   .     S
C635   H660    1.079   .     S
C636   C637    1.414   .     A
C636   C23     1.410   1_556 S
C636   C26     1.423   1_556 S
C637   C641    1.408   .     A
C639   C640    1.411   .     A
C639   C26     1.424   1_556 S
C639   C15     1.409   1_556 S
C640   C641    1.394   .     A
C641   H661    1.081   .     S
H642   C687    1.086   .     S
H653   C1028   1.088   1_545 S
H654   C22     1.106   1_556 S
H657   C825    1.086   .     S
H662   C754    1.088   1_455 S
O664   Zn680   1.929   .     S
O664   Zn677   1.957   .     S
O664   Zn679   1.940   .     S
O664   Zn678   1.937   .     S
O665   Zn678   1.930   .     S
O666   Zn680   1.937   .     S
O667   Zn679   1.929   .     S
O668   Zn677   1.923   .     S
O669   Zn677   1.927   .     S
O670   Zn680   1.934   .     S
O671   Zn678   1.926   .     S
O672   Zn679   1.934   .     S
O673   Zn680   1.930   .     S
O674   Zn677   1.925   .     S
O675   Zn678   1.937   .     S
O676   Zn679   1.928   .     S
C681   O739    1.267   .     A
C681   C687    1.436   .     S
C681   O741    1.267   .     A
C682   H727    1.079   .     S
C682   C696    1.391   .     A
C682   C706    1.409   .     A
C683   C698    1.509   .     S
C683   C695    1.396   .     A
C683   C696    1.408   .     A
C684   O740    1.282   .     A
C684   O742    1.279   .     A
C684   C686    1.454   .     S
C685   C694    1.497   .     S
C685   C705    1.422   .     A
C685   C697    1.426   .     A
C686   C755    1.334   .     S
C686   H798    1.088   .     S
C688   C691    1.450   .     S
C688   C893    1.331   .     S
C688   H925    1.088   .     S
C689   C690    1.435   .     S
C689   C1096   1.331   1_545 S
C689   H1133   1.086   1_545 S
C690   O737    1.274   .     A
C690   O743    1.274   .     A
C691   O738    1.272   .     A
C691   O744    1.270   .     A
C692   C697    1.415   .     A
C692   C90     1.510   1_556 S
C692   C91     1.396   1_556 S
C693   O733    1.272   .     A
C693   C696    1.457   .     S
C693   O735    1.277   .     A
C694   O736    1.293   .     A
C694   O734    1.283   .     A
C695   H726    1.082   .     S
C697   C700    1.528   .     S
C698   H712    1.111   .     S
C698   H731    1.109   .     S
C698   H711    1.110   .     S
C699   C708    1.511   .     S
C699   H713    1.111   .     S
C699   H715    1.108   .     S
C699   H714    1.110   .     S
C700   H720    1.103   .     S
C700   H719    1.110   .     S
C700   C701    1.532   .     S
C701   H718    1.111   .     S
C701   H716    1.111   .     S
C701   H105    1.107   1_556 S
C702   H723    1.110   .     S
C702   H724    1.111   .     S
C703   H728    1.079   .     S
C704   C705    1.414   .     A
C704   C91     1.410   1_556 S
C704   C94     1.423   1_556 S
C705   C709    1.408   .     A
C707   C708    1.411   .     A
C707   C94     1.424   1_556 S
C707   C83     1.409   1_556 S
C708   C709    1.394   .     A
C709   H729    1.081   .     S
H710   C755    1.086   .     S
H721   C1096   1.088   1_545 S
H722   C90     1.106   1_556 S
H725   C893    1.086   .     S
O732   Zn748   1.929   .     S
O732   Zn745   1.957   .     S
O732   Zn747   1.940   .     S
O732   Zn746   1.937   .     S
O733   Zn746   1.930   .     S
O734   Zn748   1.937   .     S
O735   Zn747   1.929   .     S
O736   Zn745   1.923   .     S
O737   Zn745   1.927   .     S
O738   Zn748   1.934   .     S
O739   Zn746   1.926   .     S
O740   Zn747   1.934   .     S
O741   Zn748   1.930   .     S
O742   Zn745   1.925   .     S
O743   Zn746   1.937   .     S
O744   Zn747   1.928   .     S
C749   O807    1.267   .     A
C749   C755    1.436   .     S
C749   O809    1.267   .     A
C750   H795    1.079   .     S
C750   C764    1.391   .     A
C750   C774    1.409   .     A
C751   C766    1.509   .     S
C751   C763    1.396   .     A
C751   C764    1.408   .     A
C752   O808    1.282   .     A
C752   O810    1.279   .     A
C752   C754    1.454   .     S
C753   C762    1.497   .     S
C753   C773    1.422   .     A
C753   C765    1.426   .     A
C754   C619    1.334   1_655 S
C754   H662    1.088   1_655 S
C756   C759    1.450   .     S
C756   C961    1.331   .     S
C756   H993    1.088   .     S
C757   C758    1.435   .     S
C757   C1164   1.331   1_545 S
C757   H1201   1.086   1_545 S
C758   O805    1.274   .     A
C758   O811    1.274   .     A
C759   O806    1.272   .     A
C759   O812    1.270   .     A
C760   C765    1.415   .     A
C760   C158    1.510   1_556 S
C760   C159    1.396   1_556 S
C761   O801    1.272   .     A
C761   C764    1.457   .     S
C761   O803    1.277   .     A
C762   O804    1.293   .     A
C762   O802    1.283   .     A
C763   H794    1.082   .     S
C765   C768    1.528   .     S
C766   H780    1.111   .     S
C766   H799    1.109   .     S
C766   H779    1.110   .     S
C767   C776    1.511   .     S
C767   H781    1.111   .     S
C767   H783    1.108   .     S
C767   H782    1.110   .     S
C768   H788    1.103   .     S
C768   H787    1.110   .     S
C768   C769    1.532   .     S
C769   H786    1.111   .     S
C769   H784    1.111   .     S
C769   H173    1.107   1_556 S
C770   H791    1.110   .     S
C770   H792    1.111   .     S
C771   H796    1.079   .     S
C772   C773    1.414   .     A
C772   C159    1.410   1_556 S
C772   C162    1.423   1_556 S
C773   C777    1.408   .     A
C775   C776    1.411   .     A
C775   C162    1.424   1_556 S
C775   C151    1.409   1_556 S
C776   C777    1.394   .     A
C777   H797    1.081   .     S
H778   C619    1.086   1_655 S
H789   C1164   1.088   1_545 S
H790   C158    1.106   1_556 S
H793   C961    1.086   .     S
O800   Zn816   1.929   .     S
O800   Zn813   1.957   .     S
O800   Zn815   1.940   .     S
O800   Zn814   1.937   .     S
O801   Zn814   1.930   .     S
O802   Zn816   1.937   .     S
O803   Zn815   1.929   .     S
O804   Zn813   1.923   .     S
O805   Zn813   1.927   .     S
O806   Zn816   1.934   .     S
O807   Zn814   1.926   .     S
O808   Zn815   1.934   .     S
O809   Zn816   1.930   .     S
O810   Zn813   1.925   .     S
O811   Zn814   1.937   .     S
O812   Zn815   1.928   .     S
C817   O875    1.267   .     A
C817   C823    1.436   .     S
C817   O877    1.267   .     A
C818   H863    1.079   .     S
C818   C832    1.391   .     A
C818   C842    1.409   .     A
C819   C834    1.509   .     S
C819   C831    1.396   .     A
C819   C832    1.408   .     A
C820   O876    1.282   .     A
C820   O878    1.279   .     A
C820   C822    1.454   .     S
C821   C830    1.497   .     S
C821   C841    1.422   .     A
C821   C833    1.426   .     A
C822   C891    1.334   .     S
C822   H934    1.088   .     S
C823   C958    1.334   1_455 S
C823   H982    1.086   1_455 S
C824   C827    1.450   .     S
C824   C1029   1.331   .     S
C824   H1061   1.088   .     S
C825   C826    1.435   .     S
C826   O873    1.274   .     A
C826   O879    1.274   .     A
C827   O874    1.272   .     A
C827   O880    1.270   .     A
C828   C833    1.415   .     A
C828   C226    1.510   1_556 S
C828   C227    1.396   1_556 S
C829   O869    1.272   .     A
C829   C832    1.457   .     S
C829   O871    1.277   .     A
C830   O872    1.293   .     A
C830   O870    1.283   .     A
C831   H862    1.082   .     S
C833   C836    1.528   .     S
C834   H848    1.111   .     S
C834   H867    1.109   .     S
C834   H847    1.110   .     S
C835   C844    1.511   .     S
C835   H849    1.111   .     S
C835   H851    1.108   .     S
C835   H850    1.110   .     S
C836   H856    1.103   .     S
C836   H855    1.110   .     S
C836   C837    1.532   .     S
C837   H854    1.111   .     S
C837   H852    1.111   .     S
C837   H241    1.107   1_556 S
C838   H859    1.110   .     S
C838   H860    1.111   .     S
C839   H864    1.079   .     S
C840   C841    1.414   .     A
C840   C227    1.410   1_556 S
C840   C230    1.423   1_556 S
C841   C845    1.408   .     A
C843   C844    1.411   .     A
C843   C230    1.424   1_556 S
C843   C219    1.409   1_556 S
C844   C845    1.394   .     A
C845   H865    1.081   .     S
H846   C891    1.086   .     S
H858   C226    1.106   1_556 S
H861   C1029   1.086   .     S
H866   C958    1.088   1_455 S
O868   Zn884   1.929   .     S
O868   Zn881   1.957   .     S
O868   Zn883   1.940   .     S
O868   Zn882   1.937   .     S
O869   Zn882   1.930   .     S
O870   Zn884   1.937   .     S
O871   Zn883   1.929   .     S
O872   Zn881   1.923   .     S
O873   Zn881   1.927   .     S
O874   Zn884   1.934   .     S
O875   Zn882   1.926   .     S
O876   Zn883   1.934   .     S
O877   Zn884   1.930   .     S
O878   Zn881   1.925   .     S
O879   Zn882   1.937   .     S
O880   Zn883   1.928   .     S
C885   O943    1.267   .     A
C885   C891    1.436   .     S
C885   O945    1.267   .     A
C886   H931    1.079   .     S
C886   C900    1.391   .     A
C886   C910    1.409   .     A
C887   C902    1.509   .     S
C887   C899    1.396   .     A
C887   C900    1.408   .     A
C888   O944    1.282   .     A
C888   O946    1.279   .     A
C888   C890    1.454   .     S
C889   C898    1.497   .     S
C889   C909    1.422   .     A
C889   C901    1.426   .     A
C890   C959    1.334   .     S
C890   H1002   1.088   .     S
C892   C895    1.450   .     S
C892   C1097   1.331   .     S
C892   H1129   1.088   .     S
C893   C894    1.435   .     S
C894   O941    1.274   .     A
C894   O947    1.274   .     A
C895   O942    1.272   .     A
C895   O948    1.270   .     A
C896   C901    1.415   .     A
C896   C294    1.510   1_556 S
C896   C295    1.396   1_556 S
C897   O937    1.272   .     A
C897   C900    1.457   .     S
C897   O939    1.277   .     A
C898   O940    1.293   .     A
C898   O938    1.283   .     A
C899   H930    1.082   .     S
C901   C904    1.528   .     S
C902   H916    1.111   .     S
C902   H935    1.109   .     S
C902   H915    1.110   .     S
C903   C912    1.511   .     S
C903   H917    1.111   .     S
C903   H919    1.108   .     S
C903   H918    1.110   .     S
C904   H924    1.103   .     S
C904   H923    1.110   .     S
C904   C905    1.532   .     S
C905   H922    1.111   .     S
C905   H920    1.111   .     S
C905   H309    1.107   1_556 S
C906   H927    1.110   .     S
C906   H928    1.111   .     S
C907   H932    1.079   .     S
C908   C909    1.414   .     A
C908   C295    1.410   1_556 S
C908   C298    1.423   1_556 S
C909   C913    1.408   .     A
C911   C912    1.411   .     A
C911   C298    1.424   1_556 S
C911   C287    1.409   1_556 S
C912   C913    1.394   .     A
C913   H933    1.081   .     S
H914   C959    1.086   .     S
H926   C294    1.106   1_556 S
H929   C1097   1.086   .     S
O936   Zn952   1.929   .     S
O936   Zn949   1.957   .     S
O936   Zn951   1.940   .     S
O936   Zn950   1.937   .     S
O937   Zn950   1.930   .     S
O938   Zn952   1.937   .     S
O939   Zn951   1.929   .     S
O940   Zn949   1.923   .     S
O941   Zn949   1.927   .     S
O942   Zn952   1.934   .     S
O943   Zn950   1.926   .     S
O944   Zn951   1.934   .     S
O945   Zn952   1.930   .     S
O946   Zn949   1.925   .     S
O947   Zn950   1.937   .     S
O948   Zn951   1.928   .     S
C953   O1011   1.267   .     A
C953   C959    1.436   .     S
C953   O1013   1.267   .     A
C954   H999    1.079   .     S
C954   C968    1.391   .     A
C954   C978    1.409   .     A
C955   C970    1.509   .     S
C955   C967    1.396   .     A
C955   C968    1.408   .     A
C956   O1012   1.282   .     A
C956   O1014   1.279   .     A
C956   C958    1.454   .     S
C957   C966    1.497   .     S
C957   C977    1.422   .     A
C957   C969    1.426   .     A
C958   C823    1.334   1_655 S
C958   H866    1.088   1_655 S
C960   C963    1.450   .     S
C960   C1165   1.331   .     S
C960   H1197   1.088   .     S
C961   C962    1.435   .     S
C962   O1009   1.274   .     A
C962   O1015   1.274   .     A
C963   O1010   1.272   .     A
C963   O1016   1.270   .     A
C964   C969    1.415   .     A
C964   C362    1.510   1_556 S
C964   C363    1.396   1_556 S
C965   O1005   1.272   .     A
C965   C968    1.457   .     S
C965   O1007   1.277   .     A
C966   O1008   1.293   .     A
C966   O1006   1.283   .     A
C967   H998    1.082   .     S
C969   C972    1.528   .     S
C970   H984    1.111   .     S
C970   H1003   1.109   .     S
C970   H983    1.110   .     S
C971   C980    1.511   .     S
C971   H985    1.111   .     S
C971   H987    1.108   .     S
C971   H986    1.110   .     S
C972   H992    1.103   .     S
C972   H991    1.110   .     S
C972   C973    1.532   .     S
C973   H990    1.111   .     S
C973   H988    1.111   .     S
C973   H377    1.107   1_556 S
C974   H995    1.110   .     S
C974   H996    1.111   .     S
C975   H1000   1.079   .     S
C976   C977    1.414   .     A
C976   C363    1.410   1_556 S
C976   C366    1.423   1_556 S
C977   C981    1.408   .     A
C979   C980    1.411   .     A
C979   C366    1.424   1_556 S
C979   C355    1.409   1_556 S
C980   C981    1.394   .     A
C981   H1001   1.081   .     S
H982   C823    1.086   1_655 S
H994   C362    1.106   1_556 S
H997   C1165   1.086   .     S
O1004  Zn1020  1.929   .     S
O1004  Zn1017  1.957   .     S
O1004  Zn1019  1.940   .     S
O1004  Zn1018  1.937   .     S
O1005  Zn1018  1.930   .     S
O1006  Zn1020  1.937   .     S
O1007  Zn1019  1.929   .     S
O1008  Zn1017  1.923   .     S
O1009  Zn1017  1.927   .     S
O1010  Zn1020  1.934   .     S
O1011  Zn1018  1.926   .     S
O1012  Zn1019  1.934   .     S
O1013  Zn1020  1.930   .     S
O1014  Zn1017  1.925   .     S
O1015  Zn1018  1.937   .     S
O1016  Zn1019  1.928   .     S
C1021  O1079   1.267   .     A
C1021  C1027   1.436   .     S
C1021  O1081   1.267   .     A
C1022  H1067   1.079   .     S
C1022  C1036   1.391   .     A
C1022  C1046   1.409   .     A
C1023  C1038   1.509   .     S
C1023  C1035   1.396   .     A
C1023  C1036   1.408   .     A
C1024  O1080   1.282   .     A
C1024  O1082   1.279   .     A
C1024  C1026   1.454   .     S
C1025  C1034   1.497   .     S
C1025  C1045   1.422   .     A
C1025  C1037   1.426   .     A
C1026  C1095   1.334   .     S
C1026  H1138   1.088   .     S
C1027  C1162   1.334   1_455 S
C1027  H1186   1.086   1_455 S
C1028  C1031   1.450   .     S
C1028  C621    1.331   1_565 S
C1028  H653    1.088   1_565 S
C1029  C1030   1.435   .     S
C1030  O1077   1.274   .     A
C1030  O1083   1.274   .     A
C1031  O1078   1.272   .     A
C1031  O1084   1.270   .     A
C1032  C1037   1.415   .     A
C1032  C430    1.510   1_556 S
C1032  C431    1.396   1_556 S
C1033  O1073   1.272   .     A
C1033  C1036   1.457   .     S
C1033  O1075   1.277   .     A
C1034  O1076   1.293   .     A
C1034  O1074   1.283   .     A
C1035  H1066   1.082   .     S
C1037  C1040   1.528   .     S
C1038  H1052   1.111   .     S
C1038  H1071   1.109   .     S
C1038  H1051   1.110   .     S
C1039  C1048   1.511   .     S
C1039  H1053   1.111   .     S
C1039  H1055   1.108   .     S
C1039  H1054   1.110   .     S
C1040  H1060   1.103   .     S
C1040  H1059   1.110   .     S
C1040  C1041   1.532   .     S
C1041  H1058   1.111   .     S
C1041  H1056   1.111   .     S
C1041  H445    1.107   1_556 S
C1042  H1063   1.110   .     S
C1042  H1064   1.111   .     S
C1043  H1068   1.079   .     S
C1044  C1045   1.414   .     A
C1044  C431    1.410   1_556 S
C1044  C434    1.423   1_556 S
C1045  C1049   1.408   .     A
C1047  C1048   1.411   .     A
C1047  C434    1.424   1_556 S
C1047  C423    1.409   1_556 S
C1048  C1049   1.394   .     A
C1049  H1069   1.081   .     S
H1050  C1095   1.086   .     S
H1062  C430    1.106   1_556 S
H1065  C621    1.086   1_565 S
H1070  C1162   1.088   1_455 S
O1072  Zn1088  1.929   .     S
O1072  Zn1085  1.957   .     S
O1072  Zn1087  1.940   .     S
O1072  Zn1086  1.937   .     S
O1073  Zn1086  1.930   .     S
O1074  Zn1088  1.937   .     S
O1075  Zn1087  1.929   .     S
O1076  Zn1085  1.923   .     S
O1077  Zn1085  1.927   .     S
O1078  Zn1088  1.934   .     S
O1079  Zn1086  1.926   .     S
O1080  Zn1087  1.934   .     S
O1081  Zn1088  1.930   .     S
O1082  Zn1085  1.925   .     S
O1083  Zn1086  1.937   .     S
O1084  Zn1087  1.928   .     S
C1089  O1147   1.267   .     A
C1089  C1095   1.436   .     S
C1089  O1149   1.267   .     A
C1090  H1135   1.079   .     S
C1090  C1104   1.391   .     A
C1090  C1114   1.409   .     A
C1091  C1106   1.509   .     S
C1091  C1103   1.396   .     A
C1091  C1104   1.408   .     A
C1092  O1148   1.282   .     A
C1092  O1150   1.279   .     A
C1092  C1094   1.454   .     S
C1093  C1102   1.497   .     S
C1093  C1113   1.422   .     A
C1093  C1105   1.426   .     A
C1094  C1163   1.334   .     S
C1094  H1206   1.088   .     S
C1096  C1099   1.450   .     S
C1096  C689    1.331   1_565 S
C1096  H721    1.088   1_565 S
C1097  C1098   1.435   .     S
C1098  O1145   1.274   .     A
C1098  O1151   1.274   .     A
C1099  O1146   1.272   .     A
C1099  O1152   1.270   .     A
C1100  C1105   1.415   .     A
C1100  C498    1.510   1_556 S
C1100  C499    1.396   1_556 S
C1101  O1141   1.272   .     A
C1101  C1104   1.457   .     S
C1101  O1143   1.277   .     A
C1102  O1144   1.293   .     A
C1102  O1142   1.283   .     A
C1103  H1134   1.082   .     S
C1105  C1108   1.528   .     S
C1106  H1120   1.111   .     S
C1106  H1139   1.109   .     S
C1106  H1119   1.110   .     S
C1107  C1116   1.511   .     S
C1107  H1121   1.111   .     S
C1107  H1123   1.108   .     S
C1107  H1122   1.110   .     S
C1108  H1128   1.103   .     S
C1108  H1127   1.110   .     S
C1108  C1109   1.532   .     S
C1109  H1126   1.111   .     S
C1109  H1124   1.111   .     S
C1109  H513    1.107   1_556 S
C1110  H1131   1.110   .     S
C1110  H1132   1.111   .     S
C1111  H1136   1.079   .     S
C1112  C1113   1.414   .     A
C1112  C499    1.410   1_556 S
C1112  C502    1.423   1_556 S
C1113  C1117   1.408   .     A
C1115  C1116   1.411   .     A
C1115  C502    1.424   1_556 S
C1115  C491    1.409   1_556 S
C1116  C1117   1.394   .     A
C1117  H1137   1.081   .     S
H1118  C1163   1.086   .     S
H1130  C498    1.106   1_556 S
H1133  C689    1.086   1_565 S
O1140  Zn1156  1.929   .     S
O1140  Zn1153  1.957   .     S
O1140  Zn1155  1.940   .     S
O1140  Zn1154  1.937   .     S
O1141  Zn1154  1.930   .     S
O1142  Zn1156  1.937   .     S
O1143  Zn1155  1.929   .     S
O1144  Zn1153  1.923   .     S
O1145  Zn1153  1.927   .     S
O1146  Zn1156  1.934   .     S
O1147  Zn1154  1.926   .     S
O1148  Zn1155  1.934   .     S
O1149  Zn1156  1.930   .     S
O1150  Zn1153  1.925   .     S
O1151  Zn1154  1.937   .     S
O1152  Zn1155  1.928   .     S
C1157  O1215   1.267   .     A
C1157  C1163   1.436   .     S
C1157  O1217   1.267   .     A
C1158  H1203   1.079   .     S
C1158  C1172   1.391   .     A
C1158  C1182   1.409   .     A
C1159  C1174   1.509   .     S
C1159  C1171   1.396   .     A
C1159  C1172   1.408   .     A
C1160  O1216   1.282   .     A
C1160  O1218   1.279   .     A
C1160  C1162   1.454   .     S
C1161  C1170   1.497   .     S
C1161  C1181   1.422   .     A
C1161  C1173   1.426   .     A
C1162  C1027   1.334   1_655 S
C1162  H1070   1.088   1_655 S
C1164  C1167   1.450   .     S
C1164  C757    1.331   1_565 S
C1164  H789    1.088   1_565 S
C1165  C1166   1.435   .     S
C1166  O1213   1.274   .     A
C1166  O1219   1.274   .     A
C1167  O1214   1.272   .     A
C1167  O1220   1.270   .     A
C1168  C1173   1.415   .     A
C1168  C566    1.510   1_556 S
C1168  C567    1.396   1_556 S
C1169  O1209   1.272   .     A
C1169  C1172   1.457   .     S
C1169  O1211   1.277   .     A
C1170  O1212   1.293   .     A
C1170  O1210   1.283   .     A
C1171  H1202   1.082   .     S
C1173  C1176   1.528   .     S
C1174  H1188   1.111   .     S
C1174  H1207   1.109   .     S
C1174  H1187   1.110   .     S
C1175  C1184   1.511   .     S
C1175  H1189   1.111   .     S
C1175  H1191   1.108   .     S
C1175  H1190   1.110   .     S
C1176  H1196   1.103   .     S
C1176  H1195   1.110   .     S
C1176  C1177   1.532   .     S
C1177  H1194   1.111   .     S
C1177  H1192   1.111   .     S
C1177  H581    1.107   1_556 S
C1178  H1199   1.110   .     S
C1178  H1200   1.111   .     S
C1179  H1204   1.079   .     S
C1180  C1181   1.414   .     A
C1180  C567    1.410   1_556 S
C1180  C570    1.423   1_556 S
C1181  C1185   1.408   .     A
C1183  C1184   1.411   .     A
C1183  C570    1.424   1_556 S
C1183  C559    1.409   1_556 S
C1184  C1185   1.394   .     A
C1185  H1205   1.081   .     S
H1186  C1027   1.086   1_655 S
H1198  C566    1.106   1_556 S
H1201  C757    1.086   1_565 S
O1208  Zn1224  1.929   .     S
O1208  Zn1221  1.957   .     S
O1208  Zn1223  1.940   .     S
O1208  Zn1222  1.937   .     S
O1209  Zn1222  1.930   .     S
O1210  Zn1224  1.937   .     S
O1211  Zn1223  1.929   .     S
O1212  Zn1221  1.923   .     S
O1213  Zn1221  1.927   .     S
O1214  Zn1224  1.934   .     S
O1215  Zn1222  1.926   .     S
O1216  Zn1223  1.934   .     S
O1217  Zn1224  1.930   .     S
O1218  Zn1221  1.925   .     S
O1219  Zn1222  1.937   .     S
O1220  Zn1223  1.928   .     S
