data_str_m1_o10_o16_pcu_sym.226
_audit_creation_date              2020-01-03
_audit_creation_method            'Materials Studio'
_symmetry_space_group_name_H-M    'P1'
_symmetry_Int_Tables_number       1
_symmetry_cell_setting            triclinic
loop_
_symmetry_equiv_pos_as_xyz
  x,y,z
_cell_length_a                    32.4481
_cell_length_b                    32.7738
_cell_length_c                    30.9970
_cell_angle_alpha                 96.0688
_cell_angle_beta                  74.3230
_cell_angle_gamma                 98.4017
loop_
_atom_site_label
_atom_site_type_symbol
_atom_site_fract_x
_atom_site_fract_y
_atom_site_fract_z
_atom_site_U_iso_or_equiv
_atom_site_adp_type
_atom_site_occupancy
Br1    Br    0.07121   0.12526   0.05424   0.00000  Uiso   1.00
C2     C     0.05281   0.15978   0.26004   0.00000  Uiso   1.00
C3     C     0.16559   0.15357   0.05953   0.00000  Uiso   1.00
C4     C     0.23423   0.13085   0.05626   0.00000  Uiso   1.00
C5     C     0.28088   0.17388   0.23992   0.00000  Uiso   1.00
C6     C     0.13726   0.18746   0.42048   0.00000  Uiso   1.00
C7     C     0.32689   0.17661   0.23570   0.00000  Uiso   1.00
C8     C     0.00744   0.15759   0.26412   0.00000  Uiso   1.00
C9     C     0.17954   0.32307   0.23568   0.00000  Uiso   1.00
C10    C     0.15110   0.01274   0.26586   0.00000  Uiso   1.00
C11    C     0.15585   0.05636   0.26072   0.00000  Uiso   1.00
C12    C     0.17654   0.27817   0.23992   0.00000  Uiso   1.00
C13    C     0.07658   0.18156   0.48675   0.00000  Uiso   1.00
C14    C     0.18544   0.14856   0.12939   0.00000  Uiso   1.00
C15    C     0.14910   0.18502   0.37092   0.00000  Uiso   1.00
C16    C     0.24639   0.13301   0.00998   0.00000  Uiso   1.00
C17    C     0.19436   0.14230   0.08101   0.00000  Uiso   1.00
C18    C     0.09501   0.19393   0.44318   0.00000  Uiso   1.00
C19    C     0.21410   0.01189   0.19772   0.00000  Uiso   1.00
C20    C     0.24611   0.31972   0.16375   0.00000  Uiso   1.00
C21    C     0.27715   0.01360   0.12882   0.00000  Uiso   1.00
C22    C     0.11527   0.32974   0.30592   0.00000  Uiso   1.00
C23    C     0.08884   0.02927   0.33565   0.00000  Uiso   1.00
C24    C     0.10152   0.16274   0.00824   0.00000  Uiso   1.00
C25    C     0.05401   0.00986   0.37421   0.00000  Uiso   1.00
C26    C     0.02904   0.18540   0.00692   0.00000  Uiso   1.00
C27    C     0.02120   0.23082   0.01801   0.00000  Uiso   1.00
C28    C     0.30659   0.23462   0.03745   0.00000  Uiso   1.00
C29    C     0.14706   0.16421   0.48932   0.00000  Uiso   1.00
C30    C     0.16452   0.17557   0.44434   0.00000  Uiso   1.00
C31    C     0.17592   0.15335   0.01251   0.00000  Uiso   1.00
C32    C     0.21861   0.14652   0.48839   0.00000  Uiso   1.00
C33    C     0.23445   0.15678   0.44410   0.00000  Uiso   1.00
C34    C     0.20874   0.17381   0.42357   0.00000  Uiso   1.00
H35    H     0.25682   0.12258   0.07302   0.00000  Uiso   1.00
H36    H     0.29573   0.03864   0.14539   0.00000  Uiso   1.00
H37    H     0.30023   0.32792   0.10507   0.00000  Uiso   1.00
H38    H     0.26561   0.30575   0.18143   0.00000  Uiso   1.00
H39    H     0.22837   0.29514   0.14572   0.00000  Uiso   1.00
H40    H     0.19707   0.02683   0.17812   0.00000  Uiso   1.00
H41    H     0.23350   0.03678   0.21364   0.00000  Uiso   1.00
H42    H     0.03129   0.31980   0.36091   0.00000  Uiso   1.00
H43    H     0.06885   0.32820   0.39580   0.00000  Uiso   1.00
H44    H     0.03561   0.03423   0.39504   0.00000  Uiso   1.00
H45    H     0.11041   0.05306   0.35014   0.00000  Uiso   1.00
H46    H     0.31880   0.14022   0.29084   0.00000  Uiso   1.00
H47    H     0.07301   0.04459   0.31520   0.00000  Uiso   1.00
H48    H     0.09216   0.30647   0.29296   0.00000  Uiso   1.00
H49    H     0.13012   0.31525   0.32795   0.00000  Uiso   1.00
H50    H     0.28814   0.22122   0.01279   0.00000  Uiso   1.00
H51    H     0.29386   0.21834   0.06894   0.00000  Uiso   1.00
H52    H     0.30190   0.26775   0.04516   0.00000  Uiso   1.00
H53    H     0.03907   0.24512   0.04288   0.00000  Uiso   1.00
H54    H     0.03305   0.24816   0.48721   0.00000  Uiso   1.00
H55    H     0.01089   0.17101   0.48236   0.00000  Uiso   1.00
H56    H     0.01548   0.16901   0.03805   0.00000  Uiso   1.00
H57    H     0.26777   0.15421   0.42623   0.00000  Uiso   1.00
H58    H     0.27832   0.12623   0.49140   0.00000  Uiso   1.00
H59    H     0.13725   0.16632   0.08014   0.00000  Uiso   1.00
H60    H     0.07458   0.20447   0.42522   0.00000  Uiso   1.00
H61    H     0.22416   0.18554   0.39103   0.00000  Uiso   1.00
H62    H     0.01619   0.19405   0.20940   0.00000  Uiso   1.00
H63    H     0.25912   0.02753   0.10951   0.00000  Uiso   1.00
O64    O     0.16667   0.16667   0.25000   0.00000  Uiso   1.00
O65    O     0.15451   0.12637   0.15458   0.00000  Uiso   1.00
O66    O     0.12940   0.20391   0.34968   0.00000  Uiso   1.00
O67    O     0.20824   0.17759   0.14606   0.00000  Uiso   1.00
O68    O     0.17451   0.15880   0.34968   0.00000  Uiso   1.00
O69    O     0.17930   0.08019   0.28213   0.00000  Uiso   1.00
O70    O     0.14632   0.26085   0.27014   0.00000  Uiso   1.00
O71    O     0.07412   0.13291   0.23413   0.00000  Uiso   1.00
O72    O     0.26693   0.19272   0.21360   0.00000  Uiso   1.00
O73    O     0.07071   0.18878   0.28213   0.00000  Uiso   1.00
O74    O     0.25491   0.15226   0.27013   0.00000  Uiso   1.00
O75    O     0.13760   0.06944   0.23413   0.00000  Uiso   1.00
O76    O     0.20345   0.25620   0.21361   0.00000  Uiso   1.00
Zn77   Zn    0.19338   0.13994   0.28734   0.00000  Uiso   1.00
Zn78   Zn    0.13379   0.12458   0.21875   0.00000  Uiso   1.00
Zn79   Zn    0.21056   0.19775   0.20657   0.00000  Uiso   1.00
Zn80   Zn    0.12893   0.20439   0.28734   0.00000  Uiso   1.00
Br81   Br    0.40454   0.12526   0.05424   0.00000  Uiso   1.00
C82    C     0.38615   0.15978   0.26004   0.00000  Uiso   1.00
C83    C     0.49892   0.15357   0.05953   0.00000  Uiso   1.00
C84    C     0.56756   0.13085   0.05626   0.00000  Uiso   1.00
C85    C     0.61421   0.17388   0.23992   0.00000  Uiso   1.00
C86    C     0.47060   0.18746   0.42048   0.00000  Uiso   1.00
C87    C     0.66022   0.17661   0.23570   0.00000  Uiso   1.00
C88    C     0.34077   0.15759   0.26412   0.00000  Uiso   1.00
C89    C     0.51287   0.32307   0.23568   0.00000  Uiso   1.00
C90    C     0.48443   0.01274   0.26586   0.00000  Uiso   1.00
C91    C     0.48919   0.05636   0.26072   0.00000  Uiso   1.00
C92    C     0.50987   0.27817   0.23992   0.00000  Uiso   1.00
C93    C     0.40991   0.18156   0.48675   0.00000  Uiso   1.00
C94    C     0.51878   0.14856   0.12939   0.00000  Uiso   1.00
C95    C     0.48243   0.18502   0.37092   0.00000  Uiso   1.00
C96    C     0.57972   0.13301   0.00998   0.00000  Uiso   1.00
C97    C     0.52769   0.14230   0.08101   0.00000  Uiso   1.00
C98    C     0.42835   0.19393   0.44318   0.00000  Uiso   1.00
C99    C     0.54743   0.01189   0.19772   0.00000  Uiso   1.00
C100   C     0.57944   0.31972   0.16375   0.00000  Uiso   1.00
C101   C     0.61049   0.01360   0.12882   0.00000  Uiso   1.00
C102   C     0.44860   0.32974   0.30592   0.00000  Uiso   1.00
C103   C     0.42217   0.02927   0.33565   0.00000  Uiso   1.00
C104   C     0.43485   0.16274   0.00824   0.00000  Uiso   1.00
C105   C     0.38735   0.00986   0.37421   0.00000  Uiso   1.00
C106   C     0.36237   0.18540   0.00692   0.00000  Uiso   1.00
C107   C     0.35453   0.23082   0.01801   0.00000  Uiso   1.00
C108   C     0.63992   0.23462   0.03745   0.00000  Uiso   1.00
C109   C     0.48039   0.16421   0.48932   0.00000  Uiso   1.00
C110   C     0.49785   0.17557   0.44434   0.00000  Uiso   1.00
C111   C     0.50926   0.15335   0.01251   0.00000  Uiso   1.00
C112   C     0.55194   0.14652   0.48839   0.00000  Uiso   1.00
C113   C     0.56778   0.15678   0.44410   0.00000  Uiso   1.00
C114   C     0.54208   0.17381   0.42357   0.00000  Uiso   1.00
H115   H     0.59015   0.12258   0.07302   0.00000  Uiso   1.00
H116   H     0.62906   0.03864   0.14539   0.00000  Uiso   1.00
H117   H     0.63357   0.32792   0.10507   0.00000  Uiso   1.00
H118   H     0.59894   0.30575   0.18143   0.00000  Uiso   1.00
H119   H     0.56171   0.29514   0.14572   0.00000  Uiso   1.00
H120   H     0.53040   0.02683   0.17812   0.00000  Uiso   1.00
H121   H     0.56684   0.03678   0.21364   0.00000  Uiso   1.00
H122   H     0.36462   0.31980   0.36091   0.00000  Uiso   1.00
H123   H     0.40219   0.32820   0.39580   0.00000  Uiso   1.00
H124   H     0.36895   0.03423   0.39504   0.00000  Uiso   1.00
H125   H     0.44374   0.05306   0.35014   0.00000  Uiso   1.00
H126   H     0.65213   0.14022   0.29084   0.00000  Uiso   1.00
H127   H     0.40634   0.04459   0.31520   0.00000  Uiso   1.00
H128   H     0.42549   0.30647   0.29296   0.00000  Uiso   1.00
H129   H     0.46345   0.31525   0.32795   0.00000  Uiso   1.00
H130   H     0.62148   0.22122   0.01279   0.00000  Uiso   1.00
H131   H     0.62720   0.21834   0.06894   0.00000  Uiso   1.00
H132   H     0.63523   0.26775   0.04516   0.00000  Uiso   1.00
H133   H     0.37240   0.24512   0.04288   0.00000  Uiso   1.00
H134   H     0.36638   0.24816   0.48721   0.00000  Uiso   1.00
H135   H     0.34422   0.17101   0.48236   0.00000  Uiso   1.00
H136   H     0.34881   0.16901   0.03805   0.00000  Uiso   1.00
H137   H     0.60110   0.15421   0.42623   0.00000  Uiso   1.00
H138   H     0.61165   0.12623   0.49140   0.00000  Uiso   1.00
H139   H     0.47058   0.16632   0.08014   0.00000  Uiso   1.00
H140   H     0.40791   0.20447   0.42522   0.00000  Uiso   1.00
H141   H     0.55749   0.18554   0.39103   0.00000  Uiso   1.00
H142   H     0.34953   0.19405   0.20940   0.00000  Uiso   1.00
H143   H     0.59246   0.02753   0.10951   0.00000  Uiso   1.00
O144   O     0.50000   0.16667   0.25000   0.00000  Uiso   1.00
O145   O     0.48784   0.12637   0.15458   0.00000  Uiso   1.00
O146   O     0.46274   0.20391   0.34968   0.00000  Uiso   1.00
O147   O     0.54157   0.17759   0.14606   0.00000  Uiso   1.00
O148   O     0.50785   0.15880   0.34968   0.00000  Uiso   1.00
O149   O     0.51264   0.08019   0.28213   0.00000  Uiso   1.00
O150   O     0.47965   0.26085   0.27014   0.00000  Uiso   1.00
O151   O     0.40745   0.13291   0.23413   0.00000  Uiso   1.00
O152   O     0.60026   0.19272   0.21360   0.00000  Uiso   1.00
O153   O     0.40405   0.18878   0.28213   0.00000  Uiso   1.00
O154   O     0.58824   0.15226   0.27013   0.00000  Uiso   1.00
O155   O     0.47093   0.06944   0.23413   0.00000  Uiso   1.00
O156   O     0.53678   0.25620   0.21361   0.00000  Uiso   1.00
Zn157  Zn    0.52672   0.13994   0.28734   0.00000  Uiso   1.00
Zn158  Zn    0.46713   0.12458   0.21875   0.00000  Uiso   1.00
Zn159  Zn    0.54389   0.19775   0.20657   0.00000  Uiso   1.00
Zn160  Zn    0.46226   0.20439   0.28734   0.00000  Uiso   1.00
Br161  Br    0.73788   0.12526   0.05424   0.00000  Uiso   1.00
C162   C     0.71948   0.15978   0.26004   0.00000  Uiso   1.00
C163   C     0.83225   0.15357   0.05953   0.00000  Uiso   1.00
C164   C     0.90089   0.13085   0.05626   0.00000  Uiso   1.00
C165   C     0.94754   0.17388   0.23992   0.00000  Uiso   1.00
C166   C     0.80393   0.18746   0.42048   0.00000  Uiso   1.00
C167   C     0.99356   0.17661   0.23570   0.00000  Uiso   1.00
C168   C     0.67411   0.15759   0.26412   0.00000  Uiso   1.00
C169   C     0.84620   0.32307   0.23568   0.00000  Uiso   1.00
C170   C     0.81776   0.01274   0.26586   0.00000  Uiso   1.00
C171   C     0.82252   0.05636   0.26072   0.00000  Uiso   1.00
C172   C     0.84320   0.27817   0.23992   0.00000  Uiso   1.00
C173   C     0.74324   0.18156   0.48675   0.00000  Uiso   1.00
C174   C     0.85211   0.14856   0.12939   0.00000  Uiso   1.00
C175   C     0.81577   0.18502   0.37092   0.00000  Uiso   1.00
C176   C     0.91306   0.13301   0.00998   0.00000  Uiso   1.00
C177   C     0.86103   0.14230   0.08101   0.00000  Uiso   1.00
C178   C     0.76168   0.19393   0.44318   0.00000  Uiso   1.00
C179   C     0.88076   0.01189   0.19772   0.00000  Uiso   1.00
C180   C     0.91278   0.31972   0.16375   0.00000  Uiso   1.00
C181   C     0.94382   0.01360   0.12882   0.00000  Uiso   1.00
C182   C     0.78194   0.32974   0.30592   0.00000  Uiso   1.00
C183   C     0.75550   0.02927   0.33565   0.00000  Uiso   1.00
C184   C     0.76819   0.16274   0.00824   0.00000  Uiso   1.00
C185   C     0.72068   0.00986   0.37421   0.00000  Uiso   1.00
C186   C     0.69570   0.18540   0.00692   0.00000  Uiso   1.00
C187   C     0.68787   0.23082   0.01801   0.00000  Uiso   1.00
C188   C     0.97326   0.23462   0.03745   0.00000  Uiso   1.00
C189   C     0.81373   0.16421   0.48932   0.00000  Uiso   1.00
C190   C     0.83118   0.17557   0.44434   0.00000  Uiso   1.00
C191   C     0.84259   0.15335   0.01251   0.00000  Uiso   1.00
C192   C     0.88527   0.14652   0.48839   0.00000  Uiso   1.00
C193   C     0.90112   0.15678   0.44410   0.00000  Uiso   1.00
C194   C     0.87541   0.17381   0.42357   0.00000  Uiso   1.00
H195   H     0.92349   0.12258   0.07302   0.00000  Uiso   1.00
H196   H     0.96240   0.03864   0.14539   0.00000  Uiso   1.00
H197   H     0.96690   0.32792   0.10507   0.00000  Uiso   1.00
H198   H     0.93227   0.30575   0.18143   0.00000  Uiso   1.00
H199   H     0.89504   0.29514   0.14572   0.00000  Uiso   1.00
H200   H     0.86373   0.02683   0.17812   0.00000  Uiso   1.00
H201   H     0.90017   0.03678   0.21364   0.00000  Uiso   1.00
H202   H     0.69795   0.31980   0.36091   0.00000  Uiso   1.00
H203   H     0.73552   0.32820   0.39580   0.00000  Uiso   1.00
H204   H     0.70228   0.03423   0.39504   0.00000  Uiso   1.00
H205   H     0.77708   0.05306   0.35014   0.00000  Uiso   1.00
H206   H     0.98546   0.14022   0.29084   0.00000  Uiso   1.00
H207   H     0.73967   0.04459   0.31520   0.00000  Uiso   1.00
H208   H     0.75882   0.30647   0.29296   0.00000  Uiso   1.00
H209   H     0.79679   0.31525   0.32795   0.00000  Uiso   1.00
H210   H     0.95481   0.22122   0.01279   0.00000  Uiso   1.00
H211   H     0.96053   0.21834   0.06894   0.00000  Uiso   1.00
H212   H     0.96856   0.26775   0.04516   0.00000  Uiso   1.00
H213   H     0.70574   0.24512   0.04288   0.00000  Uiso   1.00
H214   H     0.69971   0.24816   0.48721   0.00000  Uiso   1.00
H215   H     0.67756   0.17101   0.48236   0.00000  Uiso   1.00
H216   H     0.68214   0.16901   0.03805   0.00000  Uiso   1.00
H217   H     0.93444   0.15421   0.42623   0.00000  Uiso   1.00
H218   H     0.94499   0.12623   0.49140   0.00000  Uiso   1.00
H219   H     0.80391   0.16632   0.08014   0.00000  Uiso   1.00
H220   H     0.74125   0.20447   0.42522   0.00000  Uiso   1.00
H221   H     0.89083   0.18554   0.39103   0.00000  Uiso   1.00
H222   H     0.68286   0.19405   0.20940   0.00000  Uiso   1.00
H223   H     0.92579   0.02753   0.10951   0.00000  Uiso   1.00
O224   O     0.83333   0.16667   0.25000   0.00000  Uiso   1.00
O225   O     0.82118   0.12637   0.15458   0.00000  Uiso   1.00
O226   O     0.79607   0.20391   0.34968   0.00000  Uiso   1.00
O227   O     0.87491   0.17759   0.14606   0.00000  Uiso   1.00
O228   O     0.84118   0.15880   0.34968   0.00000  Uiso   1.00
O229   O     0.84597   0.08019   0.28213   0.00000  Uiso   1.00
O230   O     0.81298   0.26085   0.27014   0.00000  Uiso   1.00
O231   O     0.74078   0.13291   0.23413   0.00000  Uiso   1.00
O232   O     0.93360   0.19272   0.21360   0.00000  Uiso   1.00
O233   O     0.73738   0.18878   0.28213   0.00000  Uiso   1.00
O234   O     0.92158   0.15226   0.27013   0.00000  Uiso   1.00
O235   O     0.80426   0.06944   0.23413   0.00000  Uiso   1.00
O236   O     0.87012   0.25620   0.21361   0.00000  Uiso   1.00
Zn237  Zn    0.86005   0.13994   0.28734   0.00000  Uiso   1.00
Zn238  Zn    0.80046   0.12458   0.21875   0.00000  Uiso   1.00
Zn239  Zn    0.87723   0.19775   0.20657   0.00000  Uiso   1.00
Zn240  Zn    0.79560   0.20439   0.28734   0.00000  Uiso   1.00
Br241  Br    0.07121   0.45859   0.05424   0.00000  Uiso   1.00
C242   C     0.05281   0.49311   0.26004   0.00000  Uiso   1.00
C243   C     0.16559   0.48690   0.05953   0.00000  Uiso   1.00
C244   C     0.23423   0.46418   0.05626   0.00000  Uiso   1.00
C245   C     0.28088   0.50721   0.23992   0.00000  Uiso   1.00
C246   C     0.13726   0.52080   0.42048   0.00000  Uiso   1.00
C247   C     0.32689   0.50995   0.23570   0.00000  Uiso   1.00
C248   C     0.00744   0.49092   0.26412   0.00000  Uiso   1.00
C249   C     0.17954   0.65641   0.23568   0.00000  Uiso   1.00
C250   C     0.15110   0.34607   0.26586   0.00000  Uiso   1.00
C251   C     0.15585   0.38970   0.26072   0.00000  Uiso   1.00
C252   C     0.17654   0.61150   0.23992   0.00000  Uiso   1.00
C253   C     0.07658   0.51490   0.48675   0.00000  Uiso   1.00
C254   C     0.18544   0.48190   0.12939   0.00000  Uiso   1.00
C255   C     0.14910   0.51835   0.37092   0.00000  Uiso   1.00
C256   C     0.24639   0.46634   0.00998   0.00000  Uiso   1.00
C257   C     0.19436   0.47564   0.08101   0.00000  Uiso   1.00
C258   C     0.09501   0.52726   0.44318   0.00000  Uiso   1.00
C259   C     0.21410   0.34523   0.19772   0.00000  Uiso   1.00
C260   C     0.24611   0.65305   0.16375   0.00000  Uiso   1.00
C261   C     0.27715   0.34693   0.12882   0.00000  Uiso   1.00
C262   C     0.11527   0.66308   0.30592   0.00000  Uiso   1.00
C263   C     0.08884   0.36260   0.33565   0.00000  Uiso   1.00
C264   C     0.10152   0.49608   0.00824   0.00000  Uiso   1.00
C265   C     0.05401   0.34319   0.37421   0.00000  Uiso   1.00
C266   C     0.02904   0.51873   0.00692   0.00000  Uiso   1.00
C267   C     0.02120   0.56415   0.01801   0.00000  Uiso   1.00
C268   C     0.30659   0.56796   0.03745   0.00000  Uiso   1.00
C269   C     0.14706   0.49754   0.48932   0.00000  Uiso   1.00
C270   C     0.16452   0.50890   0.44434   0.00000  Uiso   1.00
C271   C     0.17592   0.48668   0.01251   0.00000  Uiso   1.00
C272   C     0.21861   0.47985   0.48839   0.00000  Uiso   1.00
C273   C     0.23445   0.49011   0.44410   0.00000  Uiso   1.00
C274   C     0.20874   0.50714   0.42357   0.00000  Uiso   1.00
H275   H     0.25682   0.45591   0.07302   0.00000  Uiso   1.00
H276   H     0.29573   0.37197   0.14539   0.00000  Uiso   1.00
H277   H     0.30023   0.66125   0.10507   0.00000  Uiso   1.00
H278   H     0.26561   0.63908   0.18143   0.00000  Uiso   1.00
H279   H     0.22837   0.62847   0.14572   0.00000  Uiso   1.00
H280   H     0.19707   0.36016   0.17812   0.00000  Uiso   1.00
H281   H     0.23350   0.37011   0.21364   0.00000  Uiso   1.00
H282   H     0.03129   0.65313   0.36091   0.00000  Uiso   1.00
H283   H     0.06885   0.66153   0.39580   0.00000  Uiso   1.00
H284   H     0.03561   0.36756   0.39504   0.00000  Uiso   1.00
H285   H     0.11041   0.38639   0.35014   0.00000  Uiso   1.00
H286   H     0.31880   0.47356   0.29084   0.00000  Uiso   1.00
H287   H     0.07301   0.37792   0.31520   0.00000  Uiso   1.00
H288   H     0.09216   0.63981   0.29296   0.00000  Uiso   1.00
H289   H     0.13012   0.64859   0.32795   0.00000  Uiso   1.00
H290   H     0.28814   0.55455   0.01279   0.00000  Uiso   1.00
H291   H     0.29386   0.55167   0.06894   0.00000  Uiso   1.00
H292   H     0.30190   0.60108   0.04516   0.00000  Uiso   1.00
H293   H     0.03907   0.57846   0.04288   0.00000  Uiso   1.00
H294   H     0.03305   0.58150   0.48721   0.00000  Uiso   1.00
H295   H     0.01089   0.50434   0.48236   0.00000  Uiso   1.00
H296   H     0.01548   0.50234   0.03805   0.00000  Uiso   1.00
H297   H     0.26777   0.48755   0.42623   0.00000  Uiso   1.00
H298   H     0.27832   0.45957   0.49140   0.00000  Uiso   1.00
H299   H     0.13725   0.49966   0.08014   0.00000  Uiso   1.00
H300   H     0.07458   0.53780   0.42522   0.00000  Uiso   1.00
H301   H     0.22416   0.51887   0.39103   0.00000  Uiso   1.00
H302   H     0.01619   0.52739   0.20940   0.00000  Uiso   1.00
H303   H     0.25912   0.36087   0.10951   0.00000  Uiso   1.00
O304   O     0.16667   0.50000   0.25000   0.00000  Uiso   1.00
O305   O     0.15451   0.45970   0.15458   0.00000  Uiso   1.00
O306   O     0.12940   0.53724   0.34968   0.00000  Uiso   1.00
O307   O     0.20824   0.51092   0.14606   0.00000  Uiso   1.00
O308   O     0.17451   0.49213   0.34968   0.00000  Uiso   1.00
O309   O     0.17930   0.41352   0.28213   0.00000  Uiso   1.00
O310   O     0.14632   0.59418   0.27014   0.00000  Uiso   1.00
O311   O     0.07412   0.46625   0.23413   0.00000  Uiso   1.00
O312   O     0.26693   0.52605   0.21360   0.00000  Uiso   1.00
O313   O     0.07071   0.52211   0.28213   0.00000  Uiso   1.00
O314   O     0.25491   0.48559   0.27013   0.00000  Uiso   1.00
O315   O     0.13760   0.40277   0.23413   0.00000  Uiso   1.00
O316   O     0.20345   0.58953   0.21361   0.00000  Uiso   1.00
Zn317  Zn    0.19338   0.47327   0.28734   0.00000  Uiso   1.00
Zn318  Zn    0.13379   0.45791   0.21875   0.00000  Uiso   1.00
Zn319  Zn    0.21056   0.53109   0.20657   0.00000  Uiso   1.00
Zn320  Zn    0.12893   0.53773   0.28734   0.00000  Uiso   1.00
Br321  Br    0.40454   0.45859   0.05424   0.00000  Uiso   1.00
C322   C     0.38615   0.49311   0.26004   0.00000  Uiso   1.00
C323   C     0.49892   0.48690   0.05953   0.00000  Uiso   1.00
C324   C     0.56756   0.46418   0.05626   0.00000  Uiso   1.00
C325   C     0.61421   0.50721   0.23992   0.00000  Uiso   1.00
C326   C     0.47060   0.52080   0.42048   0.00000  Uiso   1.00
C327   C     0.66022   0.50995   0.23570   0.00000  Uiso   1.00
C328   C     0.34077   0.49092   0.26412   0.00000  Uiso   1.00
C329   C     0.51287   0.65641   0.23568   0.00000  Uiso   1.00
C330   C     0.48443   0.34607   0.26586   0.00000  Uiso   1.00
C331   C     0.48919   0.38970   0.26072   0.00000  Uiso   1.00
C332   C     0.50987   0.61150   0.23992   0.00000  Uiso   1.00
C333   C     0.40991   0.51490   0.48675   0.00000  Uiso   1.00
C334   C     0.51878   0.48190   0.12939   0.00000  Uiso   1.00
C335   C     0.48243   0.51835   0.37092   0.00000  Uiso   1.00
C336   C     0.57972   0.46634   0.00998   0.00000  Uiso   1.00
C337   C     0.52769   0.47564   0.08101   0.00000  Uiso   1.00
C338   C     0.42835   0.52726   0.44318   0.00000  Uiso   1.00
C339   C     0.54743   0.34523   0.19772   0.00000  Uiso   1.00
C340   C     0.57944   0.65305   0.16375   0.00000  Uiso   1.00
C341   C     0.61049   0.34693   0.12882   0.00000  Uiso   1.00
C342   C     0.44860   0.66308   0.30592   0.00000  Uiso   1.00
C343   C     0.42217   0.36260   0.33565   0.00000  Uiso   1.00
C344   C     0.43485   0.49608   0.00824   0.00000  Uiso   1.00
C345   C     0.38735   0.34319   0.37421   0.00000  Uiso   1.00
C346   C     0.36237   0.51873   0.00692   0.00000  Uiso   1.00
C347   C     0.35453   0.56415   0.01801   0.00000  Uiso   1.00
C348   C     0.63992   0.56796   0.03745   0.00000  Uiso   1.00
C349   C     0.48039   0.49754   0.48932   0.00000  Uiso   1.00
C350   C     0.49785   0.50890   0.44434   0.00000  Uiso   1.00
C351   C     0.50926   0.48668   0.01251   0.00000  Uiso   1.00
C352   C     0.55194   0.47985   0.48839   0.00000  Uiso   1.00
C353   C     0.56778   0.49011   0.44410   0.00000  Uiso   1.00
C354   C     0.54208   0.50714   0.42357   0.00000  Uiso   1.00
H355   H     0.59015   0.45591   0.07302   0.00000  Uiso   1.00
H356   H     0.62906   0.37197   0.14539   0.00000  Uiso   1.00
H357   H     0.63357   0.66125   0.10507   0.00000  Uiso   1.00
H358   H     0.59894   0.63908   0.18143   0.00000  Uiso   1.00
H359   H     0.56171   0.62847   0.14572   0.00000  Uiso   1.00
H360   H     0.53040   0.36016   0.17812   0.00000  Uiso   1.00
H361   H     0.56684   0.37011   0.21364   0.00000  Uiso   1.00
H362   H     0.36462   0.65313   0.36091   0.00000  Uiso   1.00
H363   H     0.40219   0.66153   0.39580   0.00000  Uiso   1.00
H364   H     0.36895   0.36756   0.39504   0.00000  Uiso   1.00
H365   H     0.44374   0.38639   0.35014   0.00000  Uiso   1.00
H366   H     0.65213   0.47356   0.29084   0.00000  Uiso   1.00
H367   H     0.40634   0.37792   0.31520   0.00000  Uiso   1.00
H368   H     0.42549   0.63981   0.29296   0.00000  Uiso   1.00
H369   H     0.46345   0.64859   0.32795   0.00000  Uiso   1.00
H370   H     0.62148   0.55455   0.01279   0.00000  Uiso   1.00
H371   H     0.62720   0.55167   0.06894   0.00000  Uiso   1.00
H372   H     0.63523   0.60108   0.04516   0.00000  Uiso   1.00
H373   H     0.37240   0.57846   0.04288   0.00000  Uiso   1.00
H374   H     0.36638   0.58150   0.48721   0.00000  Uiso   1.00
H375   H     0.34422   0.50434   0.48236   0.00000  Uiso   1.00
H376   H     0.34881   0.50234   0.03805   0.00000  Uiso   1.00
H377   H     0.60110   0.48755   0.42623   0.00000  Uiso   1.00
H378   H     0.61165   0.45957   0.49140   0.00000  Uiso   1.00
H379   H     0.47058   0.49966   0.08014   0.00000  Uiso   1.00
H380   H     0.40791   0.53780   0.42522   0.00000  Uiso   1.00
H381   H     0.55749   0.51887   0.39103   0.00000  Uiso   1.00
H382   H     0.34953   0.52739   0.20940   0.00000  Uiso   1.00
H383   H     0.59246   0.36087   0.10951   0.00000  Uiso   1.00
O384   O     0.50000   0.50000   0.25000   0.00000  Uiso   1.00
O385   O     0.48784   0.45970   0.15458   0.00000  Uiso   1.00
O386   O     0.46274   0.53724   0.34968   0.00000  Uiso   1.00
O387   O     0.54157   0.51092   0.14606   0.00000  Uiso   1.00
O388   O     0.50785   0.49213   0.34968   0.00000  Uiso   1.00
O389   O     0.51264   0.41352   0.28213   0.00000  Uiso   1.00
O390   O     0.47965   0.59418   0.27014   0.00000  Uiso   1.00
O391   O     0.40745   0.46625   0.23413   0.00000  Uiso   1.00
O392   O     0.60026   0.52605   0.21360   0.00000  Uiso   1.00
O393   O     0.40405   0.52211   0.28213   0.00000  Uiso   1.00
O394   O     0.58824   0.48559   0.27013   0.00000  Uiso   1.00
O395   O     0.47093   0.40277   0.23413   0.00000  Uiso   1.00
O396   O     0.53678   0.58953   0.21361   0.00000  Uiso   1.00
Zn397  Zn    0.52672   0.47327   0.28734   0.00000  Uiso   1.00
Zn398  Zn    0.46713   0.45791   0.21875   0.00000  Uiso   1.00
Zn399  Zn    0.54389   0.53109   0.20657   0.00000  Uiso   1.00
Zn400  Zn    0.46226   0.53773   0.28734   0.00000  Uiso   1.00
Br401  Br    0.73788   0.45859   0.05424   0.00000  Uiso   1.00
C402   C     0.71948   0.49311   0.26004   0.00000  Uiso   1.00
C403   C     0.83225   0.48690   0.05953   0.00000  Uiso   1.00
C404   C     0.90089   0.46418   0.05626   0.00000  Uiso   1.00
C405   C     0.94754   0.50721   0.23992   0.00000  Uiso   1.00
C406   C     0.80393   0.52080   0.42048   0.00000  Uiso   1.00
C407   C     0.99356   0.50995   0.23570   0.00000  Uiso   1.00
C408   C     0.67411   0.49092   0.26412   0.00000  Uiso   1.00
C409   C     0.84620   0.65641   0.23568   0.00000  Uiso   1.00
C410   C     0.81776   0.34607   0.26586   0.00000  Uiso   1.00
C411   C     0.82252   0.38970   0.26072   0.00000  Uiso   1.00
C412   C     0.84320   0.61150   0.23992   0.00000  Uiso   1.00
C413   C     0.74324   0.51490   0.48675   0.00000  Uiso   1.00
C414   C     0.85211   0.48190   0.12939   0.00000  Uiso   1.00
C415   C     0.81577   0.51835   0.37092   0.00000  Uiso   1.00
C416   C     0.91306   0.46634   0.00998   0.00000  Uiso   1.00
C417   C     0.86103   0.47564   0.08101   0.00000  Uiso   1.00
C418   C     0.76168   0.52726   0.44318   0.00000  Uiso   1.00
C419   C     0.88076   0.34523   0.19772   0.00000  Uiso   1.00
C420   C     0.91278   0.65305   0.16375   0.00000  Uiso   1.00
C421   C     0.94382   0.34693   0.12882   0.00000  Uiso   1.00
C422   C     0.78194   0.66308   0.30592   0.00000  Uiso   1.00
C423   C     0.75550   0.36260   0.33565   0.00000  Uiso   1.00
C424   C     0.76819   0.49608   0.00824   0.00000  Uiso   1.00
C425   C     0.72068   0.34319   0.37421   0.00000  Uiso   1.00
C426   C     0.69570   0.51873   0.00692   0.00000  Uiso   1.00
C427   C     0.68787   0.56415   0.01801   0.00000  Uiso   1.00
C428   C     0.97326   0.56796   0.03745   0.00000  Uiso   1.00
C429   C     0.81373   0.49754   0.48932   0.00000  Uiso   1.00
C430   C     0.83118   0.50890   0.44434   0.00000  Uiso   1.00
C431   C     0.84259   0.48668   0.01251   0.00000  Uiso   1.00
C432   C     0.88527   0.47985   0.48839   0.00000  Uiso   1.00
C433   C     0.90112   0.49011   0.44410   0.00000  Uiso   1.00
C434   C     0.87541   0.50714   0.42357   0.00000  Uiso   1.00
H435   H     0.92349   0.45591   0.07302   0.00000  Uiso   1.00
H436   H     0.96240   0.37197   0.14539   0.00000  Uiso   1.00
H437   H     0.96690   0.66125   0.10507   0.00000  Uiso   1.00
H438   H     0.93227   0.63908   0.18143   0.00000  Uiso   1.00
H439   H     0.89504   0.62847   0.14572   0.00000  Uiso   1.00
H440   H     0.86373   0.36016   0.17812   0.00000  Uiso   1.00
H441   H     0.90017   0.37011   0.21364   0.00000  Uiso   1.00
H442   H     0.69795   0.65313   0.36091   0.00000  Uiso   1.00
H443   H     0.73552   0.66153   0.39580   0.00000  Uiso   1.00
H444   H     0.70228   0.36756   0.39504   0.00000  Uiso   1.00
H445   H     0.77708   0.38639   0.35014   0.00000  Uiso   1.00
H446   H     0.98546   0.47356   0.29084   0.00000  Uiso   1.00
H447   H     0.73967   0.37792   0.31520   0.00000  Uiso   1.00
H448   H     0.75882   0.63981   0.29296   0.00000  Uiso   1.00
H449   H     0.79679   0.64859   0.32795   0.00000  Uiso   1.00
H450   H     0.95481   0.55455   0.01279   0.00000  Uiso   1.00
H451   H     0.96053   0.55167   0.06894   0.00000  Uiso   1.00
H452   H     0.96856   0.60108   0.04516   0.00000  Uiso   1.00
H453   H     0.70574   0.57846   0.04288   0.00000  Uiso   1.00
H454   H     0.69971   0.58150   0.48721   0.00000  Uiso   1.00
H455   H     0.67756   0.50434   0.48236   0.00000  Uiso   1.00
H456   H     0.68214   0.50234   0.03805   0.00000  Uiso   1.00
H457   H     0.93444   0.48755   0.42623   0.00000  Uiso   1.00
H458   H     0.94499   0.45957   0.49140   0.00000  Uiso   1.00
H459   H     0.80391   0.49966   0.08014   0.00000  Uiso   1.00
H460   H     0.74125   0.53780   0.42522   0.00000  Uiso   1.00
H461   H     0.89083   0.51887   0.39103   0.00000  Uiso   1.00
H462   H     0.68286   0.52739   0.20940   0.00000  Uiso   1.00
H463   H     0.92579   0.36087   0.10951   0.00000  Uiso   1.00
O464   O     0.83333   0.50000   0.25000   0.00000  Uiso   1.00
O465   O     0.82118   0.45970   0.15458   0.00000  Uiso   1.00
O466   O     0.79607   0.53724   0.34968   0.00000  Uiso   1.00
O467   O     0.87491   0.51092   0.14606   0.00000  Uiso   1.00
O468   O     0.84118   0.49213   0.34968   0.00000  Uiso   1.00
O469   O     0.84597   0.41352   0.28213   0.00000  Uiso   1.00
O470   O     0.81298   0.59418   0.27014   0.00000  Uiso   1.00
O471   O     0.74078   0.46625   0.23413   0.00000  Uiso   1.00
O472   O     0.93360   0.52605   0.21360   0.00000  Uiso   1.00
O473   O     0.73738   0.52211   0.28213   0.00000  Uiso   1.00
O474   O     0.92158   0.48559   0.27013   0.00000  Uiso   1.00
O475   O     0.80426   0.40277   0.23413   0.00000  Uiso   1.00
O476   O     0.87012   0.58953   0.21361   0.00000  Uiso   1.00
Zn477  Zn    0.86005   0.47327   0.28734   0.00000  Uiso   1.00
Zn478  Zn    0.80046   0.45791   0.21875   0.00000  Uiso   1.00
Zn479  Zn    0.87723   0.53109   0.20657   0.00000  Uiso   1.00
Zn480  Zn    0.79560   0.53773   0.28734   0.00000  Uiso   1.00
Br481  Br    0.07121   0.79192   0.05424   0.00000  Uiso   1.00
C482   C     0.05281   0.82644   0.26004   0.00000  Uiso   1.00
C483   C     0.16559   0.82024   0.05953   0.00000  Uiso   1.00
C484   C     0.23423   0.79752   0.05626   0.00000  Uiso   1.00
C485   C     0.28088   0.84054   0.23992   0.00000  Uiso   1.00
C486   C     0.13726   0.85413   0.42048   0.00000  Uiso   1.00
C487   C     0.32689   0.84328   0.23570   0.00000  Uiso   1.00
C488   C     0.00744   0.82425   0.26412   0.00000  Uiso   1.00
C489   C     0.17954   0.98974   0.23568   0.00000  Uiso   1.00
C490   C     0.15110   0.67940   0.26586   0.00000  Uiso   1.00
C491   C     0.15585   0.72303   0.26072   0.00000  Uiso   1.00
C492   C     0.17654   0.94483   0.23992   0.00000  Uiso   1.00
C493   C     0.07658   0.84823   0.48675   0.00000  Uiso   1.00
C494   C     0.18544   0.81523   0.12939   0.00000  Uiso   1.00
C495   C     0.14910   0.85168   0.37092   0.00000  Uiso   1.00
C496   C     0.24639   0.79968   0.00998   0.00000  Uiso   1.00
C497   C     0.19436   0.80897   0.08101   0.00000  Uiso   1.00
C498   C     0.09501   0.86060   0.44318   0.00000  Uiso   1.00
C499   C     0.21410   0.67856   0.19772   0.00000  Uiso   1.00
C500   C     0.24611   0.98639   0.16375   0.00000  Uiso   1.00
C501   C     0.27715   0.68026   0.12882   0.00000  Uiso   1.00
C502   C     0.11527   0.99641   0.30592   0.00000  Uiso   1.00
C503   C     0.08884   0.69593   0.33565   0.00000  Uiso   1.00
C504   C     0.10152   0.82941   0.00824   0.00000  Uiso   1.00
C505   C     0.05401   0.67653   0.37421   0.00000  Uiso   1.00
C506   C     0.02904   0.85206   0.00692   0.00000  Uiso   1.00
C507   C     0.02120   0.89749   0.01801   0.00000  Uiso   1.00
C508   C     0.30659   0.90129   0.03745   0.00000  Uiso   1.00
C509   C     0.14706   0.83087   0.48932   0.00000  Uiso   1.00
C510   C     0.16452   0.84223   0.44434   0.00000  Uiso   1.00
C511   C     0.17592   0.82001   0.01251   0.00000  Uiso   1.00
C512   C     0.21861   0.81318   0.48839   0.00000  Uiso   1.00
C513   C     0.23445   0.82344   0.44410   0.00000  Uiso   1.00
C514   C     0.20874   0.84048   0.42357   0.00000  Uiso   1.00
H515   H     0.25682   0.78924   0.07302   0.00000  Uiso   1.00
H516   H     0.29573   0.70531   0.14539   0.00000  Uiso   1.00
H517   H     0.30023   0.99459   0.10507   0.00000  Uiso   1.00
H518   H     0.26561   0.97241   0.18143   0.00000  Uiso   1.00
H519   H     0.22837   0.96180   0.14572   0.00000  Uiso   1.00
H520   H     0.19707   0.69349   0.17812   0.00000  Uiso   1.00
H521   H     0.23350   0.70344   0.21364   0.00000  Uiso   1.00
H522   H     0.03129   0.98646   0.36091   0.00000  Uiso   1.00
H523   H     0.06885   0.99486   0.39580   0.00000  Uiso   1.00
H524   H     0.03561   0.70090   0.39504   0.00000  Uiso   1.00
H525   H     0.11041   0.71973   0.35014   0.00000  Uiso   1.00
H526   H     0.31880   0.80689   0.29084   0.00000  Uiso   1.00
H527   H     0.07301   0.71125   0.31520   0.00000  Uiso   1.00
H528   H     0.09216   0.97314   0.29296   0.00000  Uiso   1.00
H529   H     0.13012   0.98192   0.32795   0.00000  Uiso   1.00
H530   H     0.28814   0.88789   0.01279   0.00000  Uiso   1.00
H531   H     0.29386   0.88501   0.06894   0.00000  Uiso   1.00
H532   H     0.30190   0.93441   0.04516   0.00000  Uiso   1.00
H533   H     0.03907   0.91179   0.04288   0.00000  Uiso   1.00
H534   H     0.03305   0.91483   0.48721   0.00000  Uiso   1.00
H535   H     0.01089   0.83768   0.48236   0.00000  Uiso   1.00
H536   H     0.01548   0.83568   0.03805   0.00000  Uiso   1.00
H537   H     0.26777   0.82088   0.42623   0.00000  Uiso   1.00
H538   H     0.27832   0.79290   0.49140   0.00000  Uiso   1.00
H539   H     0.13725   0.83299   0.08014   0.00000  Uiso   1.00
H540   H     0.07458   0.87113   0.42522   0.00000  Uiso   1.00
H541   H     0.22416   0.85220   0.39103   0.00000  Uiso   1.00
H542   H     0.01619   0.86072   0.20940   0.00000  Uiso   1.00
H543   H     0.25912   0.69420   0.10951   0.00000  Uiso   1.00
O544   O     0.16667   0.83333   0.25000   0.00000  Uiso   1.00
O545   O     0.15451   0.79304   0.15458   0.00000  Uiso   1.00
O546   O     0.12940   0.87058   0.34968   0.00000  Uiso   1.00
O547   O     0.20824   0.84425   0.14606   0.00000  Uiso   1.00
O548   O     0.17451   0.82546   0.34968   0.00000  Uiso   1.00
O549   O     0.17930   0.74686   0.28213   0.00000  Uiso   1.00
O550   O     0.14632   0.92751   0.27014   0.00000  Uiso   1.00
O551   O     0.07412   0.79958   0.23413   0.00000  Uiso   1.00
O552   O     0.26693   0.85939   0.21360   0.00000  Uiso   1.00
O553   O     0.07071   0.85544   0.28213   0.00000  Uiso   1.00
O554   O     0.25491   0.81892   0.27013   0.00000  Uiso   1.00
O555   O     0.13760   0.73610   0.23413   0.00000  Uiso   1.00
O556   O     0.20345   0.92286   0.21361   0.00000  Uiso   1.00
Zn557  Zn    0.19338   0.80661   0.28734   0.00000  Uiso   1.00
Zn558  Zn    0.13379   0.79124   0.21875   0.00000  Uiso   1.00
Zn559  Zn    0.21056   0.86442   0.20657   0.00000  Uiso   1.00
Zn560  Zn    0.12893   0.87106   0.28734   0.00000  Uiso   1.00
Br561  Br    0.40454   0.79192   0.05424   0.00000  Uiso   1.00
C562   C     0.38615   0.82644   0.26004   0.00000  Uiso   1.00
C563   C     0.49892   0.82024   0.05953   0.00000  Uiso   1.00
C564   C     0.56756   0.79752   0.05626   0.00000  Uiso   1.00
C565   C     0.61421   0.84054   0.23992   0.00000  Uiso   1.00
C566   C     0.47060   0.85413   0.42048   0.00000  Uiso   1.00
C567   C     0.66022   0.84328   0.23570   0.00000  Uiso   1.00
C568   C     0.34077   0.82425   0.26412   0.00000  Uiso   1.00
C569   C     0.51287   0.98974   0.23568   0.00000  Uiso   1.00
C570   C     0.48443   0.67940   0.26586   0.00000  Uiso   1.00
C571   C     0.48919   0.72303   0.26072   0.00000  Uiso   1.00
C572   C     0.50987   0.94483   0.23992   0.00000  Uiso   1.00
C573   C     0.40991   0.84823   0.48675   0.00000  Uiso   1.00
C574   C     0.51878   0.81523   0.12939   0.00000  Uiso   1.00
C575   C     0.48243   0.85168   0.37092   0.00000  Uiso   1.00
C576   C     0.57972   0.79968   0.00998   0.00000  Uiso   1.00
C577   C     0.52769   0.80897   0.08101   0.00000  Uiso   1.00
C578   C     0.42835   0.86060   0.44318   0.00000  Uiso   1.00
C579   C     0.54743   0.67856   0.19772   0.00000  Uiso   1.00
C580   C     0.57944   0.98639   0.16375   0.00000  Uiso   1.00
C581   C     0.61049   0.68026   0.12882   0.00000  Uiso   1.00
C582   C     0.44860   0.99641   0.30592   0.00000  Uiso   1.00
C583   C     0.42217   0.69593   0.33565   0.00000  Uiso   1.00
C584   C     0.43485   0.82941   0.00824   0.00000  Uiso   1.00
C585   C     0.38735   0.67653   0.37421   0.00000  Uiso   1.00
C586   C     0.36237   0.85206   0.00692   0.00000  Uiso   1.00
C587   C     0.35453   0.89749   0.01801   0.00000  Uiso   1.00
C588   C     0.63992   0.90129   0.03745   0.00000  Uiso   1.00
C589   C     0.48039   0.83087   0.48932   0.00000  Uiso   1.00
C590   C     0.49785   0.84223   0.44434   0.00000  Uiso   1.00
C591   C     0.50926   0.82001   0.01251   0.00000  Uiso   1.00
C592   C     0.55194   0.81318   0.48839   0.00000  Uiso   1.00
C593   C     0.56778   0.82344   0.44410   0.00000  Uiso   1.00
C594   C     0.54208   0.84048   0.42357   0.00000  Uiso   1.00
H595   H     0.59015   0.78924   0.07302   0.00000  Uiso   1.00
H596   H     0.62906   0.70531   0.14539   0.00000  Uiso   1.00
H597   H     0.63357   0.99459   0.10507   0.00000  Uiso   1.00
H598   H     0.59894   0.97241   0.18143   0.00000  Uiso   1.00
H599   H     0.56171   0.96180   0.14572   0.00000  Uiso   1.00
H600   H     0.53040   0.69349   0.17812   0.00000  Uiso   1.00
H601   H     0.56684   0.70344   0.21364   0.00000  Uiso   1.00
H602   H     0.36462   0.98646   0.36091   0.00000  Uiso   1.00
H603   H     0.40219   0.99486   0.39580   0.00000  Uiso   1.00
H604   H     0.36895   0.70090   0.39504   0.00000  Uiso   1.00
H605   H     0.44374   0.71973   0.35014   0.00000  Uiso   1.00
H606   H     0.65213   0.80689   0.29084   0.00000  Uiso   1.00
H607   H     0.40634   0.71125   0.31520   0.00000  Uiso   1.00
H608   H     0.42549   0.97314   0.29296   0.00000  Uiso   1.00
H609   H     0.46345   0.98192   0.32795   0.00000  Uiso   1.00
H610   H     0.62148   0.88789   0.01279   0.00000  Uiso   1.00
H611   H     0.62720   0.88501   0.06894   0.00000  Uiso   1.00
H612   H     0.63523   0.93441   0.04516   0.00000  Uiso   1.00
H613   H     0.37240   0.91179   0.04288   0.00000  Uiso   1.00
H614   H     0.36638   0.91483   0.48721   0.00000  Uiso   1.00
H615   H     0.34422   0.83768   0.48236   0.00000  Uiso   1.00
H616   H     0.34881   0.83568   0.03805   0.00000  Uiso   1.00
H617   H     0.60110   0.82088   0.42623   0.00000  Uiso   1.00
H618   H     0.61165   0.79290   0.49140   0.00000  Uiso   1.00
H619   H     0.47058   0.83299   0.08014   0.00000  Uiso   1.00
H620   H     0.40791   0.87113   0.42522   0.00000  Uiso   1.00
H621   H     0.55749   0.85220   0.39103   0.00000  Uiso   1.00
H622   H     0.34953   0.86072   0.20940   0.00000  Uiso   1.00
H623   H     0.59246   0.69420   0.10951   0.00000  Uiso   1.00
O624   O     0.50000   0.83333   0.25000   0.00000  Uiso   1.00
O625   O     0.48784   0.79304   0.15458   0.00000  Uiso   1.00
O626   O     0.46274   0.87058   0.34968   0.00000  Uiso   1.00
O627   O     0.54157   0.84425   0.14606   0.00000  Uiso   1.00
O628   O     0.50785   0.82546   0.34968   0.00000  Uiso   1.00
O629   O     0.51264   0.74686   0.28213   0.00000  Uiso   1.00
O630   O     0.47965   0.92751   0.27014   0.00000  Uiso   1.00
O631   O     0.40745   0.79958   0.23413   0.00000  Uiso   1.00
O632   O     0.60026   0.85939   0.21360   0.00000  Uiso   1.00
O633   O     0.40405   0.85544   0.28213   0.00000  Uiso   1.00
O634   O     0.58824   0.81892   0.27013   0.00000  Uiso   1.00
O635   O     0.47093   0.73610   0.23413   0.00000  Uiso   1.00
O636   O     0.53678   0.92286   0.21361   0.00000  Uiso   1.00
Zn637  Zn    0.52672   0.80661   0.28734   0.00000  Uiso   1.00
Zn638  Zn    0.46713   0.79124   0.21875   0.00000  Uiso   1.00
Zn639  Zn    0.54389   0.86442   0.20657   0.00000  Uiso   1.00
Zn640  Zn    0.46226   0.87106   0.28734   0.00000  Uiso   1.00
Br641  Br    0.73788   0.79192   0.05424   0.00000  Uiso   1.00
C642   C     0.71948   0.82644   0.26004   0.00000  Uiso   1.00
C643   C     0.83225   0.82024   0.05953   0.00000  Uiso   1.00
C644   C     0.90089   0.79752   0.05626   0.00000  Uiso   1.00
C645   C     0.94754   0.84054   0.23992   0.00000  Uiso   1.00
C646   C     0.80393   0.85413   0.42048   0.00000  Uiso   1.00
C647   C     0.99356   0.84328   0.23570   0.00000  Uiso   1.00
C648   C     0.67411   0.82425   0.26412   0.00000  Uiso   1.00
C649   C     0.84620   0.98974   0.23568   0.00000  Uiso   1.00
C650   C     0.81776   0.67940   0.26586   0.00000  Uiso   1.00
C651   C     0.82252   0.72303   0.26072   0.00000  Uiso   1.00
C652   C     0.84320   0.94483   0.23992   0.00000  Uiso   1.00
C653   C     0.74324   0.84823   0.48675   0.00000  Uiso   1.00
C654   C     0.85211   0.81523   0.12939   0.00000  Uiso   1.00
C655   C     0.81577   0.85168   0.37092   0.00000  Uiso   1.00
C656   C     0.91306   0.79968   0.00998   0.00000  Uiso   1.00
C657   C     0.86103   0.80897   0.08101   0.00000  Uiso   1.00
C658   C     0.76168   0.86060   0.44318   0.00000  Uiso   1.00
C659   C     0.88076   0.67856   0.19772   0.00000  Uiso   1.00
C660   C     0.91278   0.98639   0.16375   0.00000  Uiso   1.00
C661   C     0.94382   0.68026   0.12882   0.00000  Uiso   1.00
C662   C     0.78194   0.99641   0.30592   0.00000  Uiso   1.00
C663   C     0.75550   0.69593   0.33565   0.00000  Uiso   1.00
C664   C     0.76819   0.82941   0.00824   0.00000  Uiso   1.00
C665   C     0.72068   0.67653   0.37421   0.00000  Uiso   1.00
C666   C     0.69570   0.85206   0.00692   0.00000  Uiso   1.00
C667   C     0.68787   0.89749   0.01801   0.00000  Uiso   1.00
C668   C     0.97326   0.90129   0.03745   0.00000  Uiso   1.00
C669   C     0.81373   0.83087   0.48932   0.00000  Uiso   1.00
C670   C     0.83118   0.84223   0.44434   0.00000  Uiso   1.00
C671   C     0.84259   0.82001   0.01251   0.00000  Uiso   1.00
C672   C     0.88527   0.81318   0.48839   0.00000  Uiso   1.00
C673   C     0.90112   0.82344   0.44410   0.00000  Uiso   1.00
C674   C     0.87541   0.84048   0.42357   0.00000  Uiso   1.00
H675   H     0.92349   0.78924   0.07302   0.00000  Uiso   1.00
H676   H     0.96240   0.70531   0.14539   0.00000  Uiso   1.00
H677   H     0.96690   0.99459   0.10507   0.00000  Uiso   1.00
H678   H     0.93227   0.97241   0.18143   0.00000  Uiso   1.00
H679   H     0.89504   0.96180   0.14572   0.00000  Uiso   1.00
H680   H     0.86373   0.69349   0.17812   0.00000  Uiso   1.00
H681   H     0.90017   0.70344   0.21364   0.00000  Uiso   1.00
H682   H     0.69795   0.98646   0.36091   0.00000  Uiso   1.00
H683   H     0.73552   0.99486   0.39580   0.00000  Uiso   1.00
H684   H     0.70228   0.70090   0.39504   0.00000  Uiso   1.00
H685   H     0.77708   0.71973   0.35014   0.00000  Uiso   1.00
H686   H     0.98546   0.80689   0.29084   0.00000  Uiso   1.00
H687   H     0.73967   0.71125   0.31520   0.00000  Uiso   1.00
H688   H     0.75882   0.97314   0.29296   0.00000  Uiso   1.00
H689   H     0.79679   0.98192   0.32795   0.00000  Uiso   1.00
H690   H     0.95481   0.88789   0.01279   0.00000  Uiso   1.00
H691   H     0.96053   0.88501   0.06894   0.00000  Uiso   1.00
H692   H     0.96856   0.93441   0.04516   0.00000  Uiso   1.00
H693   H     0.70574   0.91179   0.04288   0.00000  Uiso   1.00
H694   H     0.69971   0.91483   0.48721   0.00000  Uiso   1.00
H695   H     0.67756   0.83768   0.48236   0.00000  Uiso   1.00
H696   H     0.68214   0.83568   0.03805   0.00000  Uiso   1.00
H697   H     0.93444   0.82088   0.42623   0.00000  Uiso   1.00
H698   H     0.94499   0.79290   0.49140   0.00000  Uiso   1.00
H699   H     0.80391   0.83299   0.08014   0.00000  Uiso   1.00
H700   H     0.74125   0.87113   0.42522   0.00000  Uiso   1.00
H701   H     0.89083   0.85220   0.39103   0.00000  Uiso   1.00
H702   H     0.68286   0.86072   0.20940   0.00000  Uiso   1.00
H703   H     0.92579   0.69420   0.10951   0.00000  Uiso   1.00
O704   O     0.83333   0.83333   0.25000   0.00000  Uiso   1.00
O705   O     0.82118   0.79304   0.15458   0.00000  Uiso   1.00
O706   O     0.79607   0.87058   0.34968   0.00000  Uiso   1.00
O707   O     0.87491   0.84425   0.14606   0.00000  Uiso   1.00
O708   O     0.84118   0.82546   0.34968   0.00000  Uiso   1.00
O709   O     0.84597   0.74686   0.28213   0.00000  Uiso   1.00
O710   O     0.81298   0.92751   0.27014   0.00000  Uiso   1.00
O711   O     0.74078   0.79958   0.23413   0.00000  Uiso   1.00
O712   O     0.93360   0.85939   0.21360   0.00000  Uiso   1.00
O713   O     0.73738   0.85544   0.28213   0.00000  Uiso   1.00
O714   O     0.92158   0.81892   0.27013   0.00000  Uiso   1.00
O715   O     0.80426   0.73610   0.23413   0.00000  Uiso   1.00
O716   O     0.87012   0.92286   0.21361   0.00000  Uiso   1.00
Zn717  Zn    0.86005   0.80661   0.28734   0.00000  Uiso   1.00
Zn718  Zn    0.80046   0.79124   0.21875   0.00000  Uiso   1.00
Zn719  Zn    0.87723   0.86442   0.20657   0.00000  Uiso   1.00
Zn720  Zn    0.79560   0.87106   0.28734   0.00000  Uiso   1.00
Br721  Br    0.07121   0.12526   0.55424   0.00000  Uiso   1.00
C722   C     0.05281   0.15978   0.76004   0.00000  Uiso   1.00
C723   C     0.16559   0.15357   0.55953   0.00000  Uiso   1.00
C724   C     0.23423   0.13085   0.55626   0.00000  Uiso   1.00
C725   C     0.28088   0.17388   0.73992   0.00000  Uiso   1.00
C726   C     0.13726   0.18746   0.92048   0.00000  Uiso   1.00
C727   C     0.32689   0.17661   0.73570   0.00000  Uiso   1.00
C728   C     0.00744   0.15759   0.76412   0.00000  Uiso   1.00
C729   C     0.17954   0.32307   0.73568   0.00000  Uiso   1.00
C730   C     0.15110   0.01274   0.76586   0.00000  Uiso   1.00
C731   C     0.15585   0.05636   0.76072   0.00000  Uiso   1.00
C732   C     0.17654   0.27817   0.73992   0.00000  Uiso   1.00
C733   C     0.07658   0.18156   0.98675   0.00000  Uiso   1.00
C734   C     0.18544   0.14856   0.62939   0.00000  Uiso   1.00
C735   C     0.14910   0.18502   0.87092   0.00000  Uiso   1.00
C736   C     0.24639   0.13301   0.50998   0.00000  Uiso   1.00
C737   C     0.19436   0.14230   0.58101   0.00000  Uiso   1.00
C738   C     0.09501   0.19393   0.94318   0.00000  Uiso   1.00
C739   C     0.21410   0.01189   0.69772   0.00000  Uiso   1.00
C740   C     0.24611   0.31972   0.66375   0.00000  Uiso   1.00
C741   C     0.27715   0.01360   0.62882   0.00000  Uiso   1.00
C742   C     0.11527   0.32974   0.80592   0.00000  Uiso   1.00
C743   C     0.08884   0.02927   0.83565   0.00000  Uiso   1.00
C744   C     0.10152   0.16274   0.50824   0.00000  Uiso   1.00
C745   C     0.05401   0.00986   0.87421   0.00000  Uiso   1.00
C746   C     0.02904   0.18540   0.50692   0.00000  Uiso   1.00
C747   C     0.02120   0.23082   0.51801   0.00000  Uiso   1.00
C748   C     0.30659   0.23462   0.53745   0.00000  Uiso   1.00
C749   C     0.14706   0.16421   0.98932   0.00000  Uiso   1.00
C750   C     0.16452   0.17557   0.94434   0.00000  Uiso   1.00
C751   C     0.17592   0.15335   0.51251   0.00000  Uiso   1.00
C752   C     0.21861   0.14652   0.98839   0.00000  Uiso   1.00
C753   C     0.23445   0.15678   0.94410   0.00000  Uiso   1.00
C754   C     0.20874   0.17381   0.92357   0.00000  Uiso   1.00
H755   H     0.25682   0.12258   0.57302   0.00000  Uiso   1.00
H756   H     0.29573   0.03864   0.64539   0.00000  Uiso   1.00
H757   H     0.30023   0.32792   0.60507   0.00000  Uiso   1.00
H758   H     0.26561   0.30575   0.68143   0.00000  Uiso   1.00
H759   H     0.22837   0.29514   0.64572   0.00000  Uiso   1.00
H760   H     0.19707   0.02683   0.67812   0.00000  Uiso   1.00
H761   H     0.23350   0.03678   0.71364   0.00000  Uiso   1.00
H762   H     0.03129   0.31980   0.86091   0.00000  Uiso   1.00
H763   H     0.06885   0.32820   0.89580   0.00000  Uiso   1.00
H764   H     0.03561   0.03423   0.89504   0.00000  Uiso   1.00
H765   H     0.11041   0.05306   0.85014   0.00000  Uiso   1.00
H766   H     0.31880   0.14022   0.79084   0.00000  Uiso   1.00
H767   H     0.07301   0.04459   0.81520   0.00000  Uiso   1.00
H768   H     0.09216   0.30647   0.79296   0.00000  Uiso   1.00
H769   H     0.13012   0.31525   0.82795   0.00000  Uiso   1.00
H770   H     0.28814   0.22122   0.51279   0.00000  Uiso   1.00
H771   H     0.29386   0.21834   0.56894   0.00000  Uiso   1.00
H772   H     0.30190   0.26775   0.54516   0.00000  Uiso   1.00
H773   H     0.03907   0.24512   0.54288   0.00000  Uiso   1.00
H774   H     0.03305   0.24816   0.98721   0.00000  Uiso   1.00
H775   H     0.01089   0.17101   0.98236   0.00000  Uiso   1.00
H776   H     0.01548   0.16901   0.53805   0.00000  Uiso   1.00
H777   H     0.26777   0.15421   0.92623   0.00000  Uiso   1.00
H778   H     0.27832   0.12623   0.99140   0.00000  Uiso   1.00
H779   H     0.13725   0.16632   0.58014   0.00000  Uiso   1.00
H780   H     0.07458   0.20447   0.92522   0.00000  Uiso   1.00
H781   H     0.22416   0.18554   0.89103   0.00000  Uiso   1.00
H782   H     0.01619   0.19405   0.70940   0.00000  Uiso   1.00
H783   H     0.25912   0.02753   0.60951   0.00000  Uiso   1.00
O784   O     0.16667   0.16667   0.75000   0.00000  Uiso   1.00
O785   O     0.15451   0.12637   0.65458   0.00000  Uiso   1.00
O786   O     0.12940   0.20391   0.84968   0.00000  Uiso   1.00
O787   O     0.20824   0.17759   0.64606   0.00000  Uiso   1.00
O788   O     0.17451   0.15880   0.84968   0.00000  Uiso   1.00
O789   O     0.17930   0.08019   0.78213   0.00000  Uiso   1.00
O790   O     0.14632   0.26085   0.77014   0.00000  Uiso   1.00
O791   O     0.07412   0.13291   0.73413   0.00000  Uiso   1.00
O792   O     0.26693   0.19272   0.71360   0.00000  Uiso   1.00
O793   O     0.07071   0.18878   0.78213   0.00000  Uiso   1.00
O794   O     0.25491   0.15226   0.77013   0.00000  Uiso   1.00
O795   O     0.13760   0.06944   0.73413   0.00000  Uiso   1.00
O796   O     0.20345   0.25620   0.71361   0.00000  Uiso   1.00
Zn797  Zn    0.19338   0.13994   0.78734   0.00000  Uiso   1.00
Zn798  Zn    0.13379   0.12458   0.71875   0.00000  Uiso   1.00
Zn799  Zn    0.21056   0.19775   0.70657   0.00000  Uiso   1.00
Zn800  Zn    0.12893   0.20439   0.78734   0.00000  Uiso   1.00
Br801  Br    0.40454   0.12526   0.55424   0.00000  Uiso   1.00
C802   C     0.38615   0.15978   0.76004   0.00000  Uiso   1.00
C803   C     0.49892   0.15357   0.55953   0.00000  Uiso   1.00
C804   C     0.56756   0.13085   0.55626   0.00000  Uiso   1.00
C805   C     0.61421   0.17388   0.73992   0.00000  Uiso   1.00
C806   C     0.47060   0.18746   0.92048   0.00000  Uiso   1.00
C807   C     0.66022   0.17661   0.73570   0.00000  Uiso   1.00
C808   C     0.34077   0.15759   0.76412   0.00000  Uiso   1.00
C809   C     0.51287   0.32307   0.73568   0.00000  Uiso   1.00
C810   C     0.48443   0.01274   0.76586   0.00000  Uiso   1.00
C811   C     0.48919   0.05636   0.76072   0.00000  Uiso   1.00
C812   C     0.50987   0.27817   0.73992   0.00000  Uiso   1.00
C813   C     0.40991   0.18156   0.98675   0.00000  Uiso   1.00
C814   C     0.51878   0.14856   0.62939   0.00000  Uiso   1.00
C815   C     0.48243   0.18502   0.87092   0.00000  Uiso   1.00
C816   C     0.57972   0.13301   0.50998   0.00000  Uiso   1.00
C817   C     0.52769   0.14230   0.58101   0.00000  Uiso   1.00
C818   C     0.42835   0.19393   0.94318   0.00000  Uiso   1.00
C819   C     0.54743   0.01189   0.69772   0.00000  Uiso   1.00
C820   C     0.57944   0.31972   0.66375   0.00000  Uiso   1.00
C821   C     0.61049   0.01360   0.62882   0.00000  Uiso   1.00
C822   C     0.44860   0.32974   0.80592   0.00000  Uiso   1.00
C823   C     0.42217   0.02927   0.83565   0.00000  Uiso   1.00
C824   C     0.43485   0.16274   0.50824   0.00000  Uiso   1.00
C825   C     0.38735   0.00986   0.87421   0.00000  Uiso   1.00
C826   C     0.36237   0.18540   0.50692   0.00000  Uiso   1.00
C827   C     0.35453   0.23082   0.51801   0.00000  Uiso   1.00
C828   C     0.63992   0.23462   0.53745   0.00000  Uiso   1.00
C829   C     0.48039   0.16421   0.98932   0.00000  Uiso   1.00
C830   C     0.49785   0.17557   0.94434   0.00000  Uiso   1.00
C831   C     0.50926   0.15335   0.51251   0.00000  Uiso   1.00
C832   C     0.55194   0.14652   0.98839   0.00000  Uiso   1.00
C833   C     0.56778   0.15678   0.94410   0.00000  Uiso   1.00
C834   C     0.54208   0.17381   0.92357   0.00000  Uiso   1.00
H835   H     0.59015   0.12258   0.57302   0.00000  Uiso   1.00
H836   H     0.62906   0.03864   0.64539   0.00000  Uiso   1.00
H837   H     0.63357   0.32792   0.60507   0.00000  Uiso   1.00
H838   H     0.59894   0.30575   0.68143   0.00000  Uiso   1.00
H839   H     0.56171   0.29514   0.64572   0.00000  Uiso   1.00
H840   H     0.53040   0.02683   0.67812   0.00000  Uiso   1.00
H841   H     0.56684   0.03678   0.71364   0.00000  Uiso   1.00
H842   H     0.36462   0.31980   0.86091   0.00000  Uiso   1.00
H843   H     0.40219   0.32820   0.89580   0.00000  Uiso   1.00
H844   H     0.36895   0.03423   0.89504   0.00000  Uiso   1.00
H845   H     0.44374   0.05306   0.85014   0.00000  Uiso   1.00
H846   H     0.65213   0.14022   0.79084   0.00000  Uiso   1.00
H847   H     0.40634   0.04459   0.81520   0.00000  Uiso   1.00
H848   H     0.42549   0.30647   0.79296   0.00000  Uiso   1.00
H849   H     0.46345   0.31525   0.82795   0.00000  Uiso   1.00
H850   H     0.62148   0.22122   0.51279   0.00000  Uiso   1.00
H851   H     0.62720   0.21834   0.56894   0.00000  Uiso   1.00
H852   H     0.63523   0.26775   0.54516   0.00000  Uiso   1.00
H853   H     0.37240   0.24512   0.54288   0.00000  Uiso   1.00
H854   H     0.36638   0.24816   0.98721   0.00000  Uiso   1.00
H855   H     0.34422   0.17101   0.98236   0.00000  Uiso   1.00
H856   H     0.34881   0.16901   0.53805   0.00000  Uiso   1.00
H857   H     0.60110   0.15421   0.92623   0.00000  Uiso   1.00
H858   H     0.61165   0.12623   0.99140   0.00000  Uiso   1.00
H859   H     0.47058   0.16632   0.58014   0.00000  Uiso   1.00
H860   H     0.40791   0.20447   0.92522   0.00000  Uiso   1.00
H861   H     0.55749   0.18554   0.89103   0.00000  Uiso   1.00
H862   H     0.34953   0.19405   0.70940   0.00000  Uiso   1.00
H863   H     0.59246   0.02753   0.60951   0.00000  Uiso   1.00
O864   O     0.50000   0.16667   0.75000   0.00000  Uiso   1.00
O865   O     0.48784   0.12637   0.65458   0.00000  Uiso   1.00
O866   O     0.46274   0.20391   0.84968   0.00000  Uiso   1.00
O867   O     0.54157   0.17759   0.64606   0.00000  Uiso   1.00
O868   O     0.50785   0.15880   0.84968   0.00000  Uiso   1.00
O869   O     0.51264   0.08019   0.78213   0.00000  Uiso   1.00
O870   O     0.47965   0.26085   0.77014   0.00000  Uiso   1.00
O871   O     0.40745   0.13291   0.73413   0.00000  Uiso   1.00
O872   O     0.60026   0.19272   0.71360   0.00000  Uiso   1.00
O873   O     0.40405   0.18878   0.78213   0.00000  Uiso   1.00
O874   O     0.58824   0.15226   0.77013   0.00000  Uiso   1.00
O875   O     0.47093   0.06944   0.73413   0.00000  Uiso   1.00
O876   O     0.53678   0.25620   0.71361   0.00000  Uiso   1.00
Zn877  Zn    0.52672   0.13994   0.78734   0.00000  Uiso   1.00
Zn878  Zn    0.46713   0.12458   0.71875   0.00000  Uiso   1.00
Zn879  Zn    0.54389   0.19775   0.70657   0.00000  Uiso   1.00
Zn880  Zn    0.46226   0.20439   0.78734   0.00000  Uiso   1.00
Br881  Br    0.73788   0.12526   0.55424   0.00000  Uiso   1.00
C882   C     0.71948   0.15978   0.76004   0.00000  Uiso   1.00
C883   C     0.83225   0.15357   0.55953   0.00000  Uiso   1.00
C884   C     0.90089   0.13085   0.55626   0.00000  Uiso   1.00
C885   C     0.94754   0.17388   0.73992   0.00000  Uiso   1.00
C886   C     0.80393   0.18746   0.92048   0.00000  Uiso   1.00
C887   C     0.99356   0.17661   0.73570   0.00000  Uiso   1.00
C888   C     0.67411   0.15759   0.76412   0.00000  Uiso   1.00
C889   C     0.84620   0.32307   0.73568   0.00000  Uiso   1.00
C890   C     0.81776   0.01274   0.76586   0.00000  Uiso   1.00
C891   C     0.82252   0.05636   0.76072   0.00000  Uiso   1.00
C892   C     0.84320   0.27817   0.73992   0.00000  Uiso   1.00
C893   C     0.74324   0.18156   0.98675   0.00000  Uiso   1.00
C894   C     0.85211   0.14856   0.62939   0.00000  Uiso   1.00
C895   C     0.81577   0.18502   0.87092   0.00000  Uiso   1.00
C896   C     0.91306   0.13301   0.50998   0.00000  Uiso   1.00
C897   C     0.86103   0.14230   0.58101   0.00000  Uiso   1.00
C898   C     0.76168   0.19393   0.94318   0.00000  Uiso   1.00
C899   C     0.88076   0.01189   0.69772   0.00000  Uiso   1.00
C900   C     0.91278   0.31972   0.66375   0.00000  Uiso   1.00
C901   C     0.94382   0.01360   0.62882   0.00000  Uiso   1.00
C902   C     0.78194   0.32974   0.80592   0.00000  Uiso   1.00
C903   C     0.75550   0.02927   0.83565   0.00000  Uiso   1.00
C904   C     0.76819   0.16274   0.50824   0.00000  Uiso   1.00
C905   C     0.72068   0.00986   0.87421   0.00000  Uiso   1.00
C906   C     0.69570   0.18540   0.50692   0.00000  Uiso   1.00
C907   C     0.68787   0.23082   0.51801   0.00000  Uiso   1.00
C908   C     0.97326   0.23462   0.53745   0.00000  Uiso   1.00
C909   C     0.81373   0.16421   0.98932   0.00000  Uiso   1.00
C910   C     0.83118   0.17557   0.94434   0.00000  Uiso   1.00
C911   C     0.84259   0.15335   0.51251   0.00000  Uiso   1.00
C912   C     0.88527   0.14652   0.98839   0.00000  Uiso   1.00
C913   C     0.90112   0.15678   0.94410   0.00000  Uiso   1.00
C914   C     0.87541   0.17381   0.92357   0.00000  Uiso   1.00
H915   H     0.92349   0.12258   0.57302   0.00000  Uiso   1.00
H916   H     0.96240   0.03864   0.64539   0.00000  Uiso   1.00
H917   H     0.96690   0.32792   0.60507   0.00000  Uiso   1.00
H918   H     0.93227   0.30575   0.68143   0.00000  Uiso   1.00
H919   H     0.89504   0.29514   0.64572   0.00000  Uiso   1.00
H920   H     0.86373   0.02683   0.67812   0.00000  Uiso   1.00
H921   H     0.90017   0.03678   0.71364   0.00000  Uiso   1.00
H922   H     0.69795   0.31980   0.86091   0.00000  Uiso   1.00
H923   H     0.73552   0.32820   0.89580   0.00000  Uiso   1.00
H924   H     0.70228   0.03423   0.89504   0.00000  Uiso   1.00
H925   H     0.77708   0.05306   0.85014   0.00000  Uiso   1.00
H926   H     0.98546   0.14022   0.79084   0.00000  Uiso   1.00
H927   H     0.73967   0.04459   0.81520   0.00000  Uiso   1.00
H928   H     0.75882   0.30647   0.79296   0.00000  Uiso   1.00
H929   H     0.79679   0.31525   0.82795   0.00000  Uiso   1.00
H930   H     0.95481   0.22122   0.51279   0.00000  Uiso   1.00
H931   H     0.96053   0.21834   0.56894   0.00000  Uiso   1.00
H932   H     0.96856   0.26775   0.54516   0.00000  Uiso   1.00
H933   H     0.70574   0.24512   0.54288   0.00000  Uiso   1.00
H934   H     0.69971   0.24816   0.98721   0.00000  Uiso   1.00
H935   H     0.67756   0.17101   0.98236   0.00000  Uiso   1.00
H936   H     0.68214   0.16901   0.53805   0.00000  Uiso   1.00
H937   H     0.93444   0.15421   0.92623   0.00000  Uiso   1.00
H938   H     0.94499   0.12623   0.99140   0.00000  Uiso   1.00
H939   H     0.80391   0.16632   0.58014   0.00000  Uiso   1.00
H940   H     0.74125   0.20447   0.92522   0.00000  Uiso   1.00
H941   H     0.89083   0.18554   0.89103   0.00000  Uiso   1.00
H942   H     0.68286   0.19405   0.70940   0.00000  Uiso   1.00
H943   H     0.92579   0.02753   0.60951   0.00000  Uiso   1.00
O944   O     0.83333   0.16667   0.75000   0.00000  Uiso   1.00
O945   O     0.82118   0.12637   0.65458   0.00000  Uiso   1.00
O946   O     0.79607   0.20391   0.84968   0.00000  Uiso   1.00
O947   O     0.87491   0.17759   0.64606   0.00000  Uiso   1.00
O948   O     0.84118   0.15880   0.84968   0.00000  Uiso   1.00
O949   O     0.84597   0.08019   0.78213   0.00000  Uiso   1.00
O950   O     0.81298   0.26085   0.77014   0.00000  Uiso   1.00
O951   O     0.74078   0.13291   0.73413   0.00000  Uiso   1.00
O952   O     0.93360   0.19272   0.71360   0.00000  Uiso   1.00
O953   O     0.73738   0.18878   0.78213   0.00000  Uiso   1.00
O954   O     0.92158   0.15226   0.77013   0.00000  Uiso   1.00
O955   O     0.80426   0.06944   0.73413   0.00000  Uiso   1.00
O956   O     0.87012   0.25620   0.71361   0.00000  Uiso   1.00
Zn957  Zn    0.86005   0.13994   0.78734   0.00000  Uiso   1.00
Zn958  Zn    0.80046   0.12458   0.71875   0.00000  Uiso   1.00
Zn959  Zn    0.87723   0.19775   0.70657   0.00000  Uiso   1.00
Zn960  Zn    0.79560   0.20439   0.78734   0.00000  Uiso   1.00
Br961  Br    0.07121   0.45859   0.55424   0.00000  Uiso   1.00
C962   C     0.05281   0.49311   0.76004   0.00000  Uiso   1.00
C963   C     0.16559   0.48690   0.55953   0.00000  Uiso   1.00
C964   C     0.23423   0.46418   0.55626   0.00000  Uiso   1.00
C965   C     0.28088   0.50721   0.73992   0.00000  Uiso   1.00
C966   C     0.13726   0.52080   0.92048   0.00000  Uiso   1.00
C967   C     0.32689   0.50995   0.73570   0.00000  Uiso   1.00
C968   C     0.00744   0.49092   0.76412   0.00000  Uiso   1.00
C969   C     0.17954   0.65641   0.73568   0.00000  Uiso   1.00
C970   C     0.15110   0.34607   0.76586   0.00000  Uiso   1.00
C971   C     0.15585   0.38970   0.76072   0.00000  Uiso   1.00
C972   C     0.17654   0.61150   0.73992   0.00000  Uiso   1.00
C973   C     0.07658   0.51490   0.98675   0.00000  Uiso   1.00
C974   C     0.18544   0.48190   0.62939   0.00000  Uiso   1.00
C975   C     0.14910   0.51835   0.87092   0.00000  Uiso   1.00
C976   C     0.24639   0.46634   0.50998   0.00000  Uiso   1.00
C977   C     0.19436   0.47564   0.58101   0.00000  Uiso   1.00
C978   C     0.09501   0.52726   0.94318   0.00000  Uiso   1.00
C979   C     0.21410   0.34523   0.69772   0.00000  Uiso   1.00
C980   C     0.24611   0.65305   0.66375   0.00000  Uiso   1.00
C981   C     0.27715   0.34693   0.62882   0.00000  Uiso   1.00
C982   C     0.11527   0.66308   0.80592   0.00000  Uiso   1.00
C983   C     0.08884   0.36260   0.83565   0.00000  Uiso   1.00
C984   C     0.10152   0.49608   0.50824   0.00000  Uiso   1.00
C985   C     0.05401   0.34319   0.87421   0.00000  Uiso   1.00
C986   C     0.02904   0.51873   0.50692   0.00000  Uiso   1.00
C987   C     0.02120   0.56415   0.51801   0.00000  Uiso   1.00
C988   C     0.30659   0.56796   0.53745   0.00000  Uiso   1.00
C989   C     0.14706   0.49754   0.98932   0.00000  Uiso   1.00
C990   C     0.16452   0.50890   0.94434   0.00000  Uiso   1.00
C991   C     0.17592   0.48668   0.51251   0.00000  Uiso   1.00
C992   C     0.21861   0.47985   0.98839   0.00000  Uiso   1.00
C993   C     0.23445   0.49011   0.94410   0.00000  Uiso   1.00
C994   C     0.20874   0.50714   0.92357   0.00000  Uiso   1.00
H995   H     0.25682   0.45591   0.57302   0.00000  Uiso   1.00
H996   H     0.29573   0.37197   0.64539   0.00000  Uiso   1.00
H997   H     0.30023   0.66125   0.60507   0.00000  Uiso   1.00
H998   H     0.26561   0.63908   0.68143   0.00000  Uiso   1.00
H999   H     0.22837   0.62847   0.64572   0.00000  Uiso   1.00
H1000  H     0.19707   0.36016   0.67812   0.00000  Uiso   1.00
H1001  H     0.23350   0.37011   0.71364   0.00000  Uiso   1.00
H1002  H     0.03129   0.65313   0.86091   0.00000  Uiso   1.00
H1003  H     0.06885   0.66153   0.89580   0.00000  Uiso   1.00
H1004  H     0.03561   0.36756   0.89504   0.00000  Uiso   1.00
H1005  H     0.11041   0.38639   0.85014   0.00000  Uiso   1.00
H1006  H     0.31880   0.47356   0.79084   0.00000  Uiso   1.00
H1007  H     0.07301   0.37792   0.81520   0.00000  Uiso   1.00
H1008  H     0.09216   0.63981   0.79296   0.00000  Uiso   1.00
H1009  H     0.13012   0.64859   0.82795   0.00000  Uiso   1.00
H1010  H     0.28814   0.55455   0.51279   0.00000  Uiso   1.00
H1011  H     0.29386   0.55167   0.56894   0.00000  Uiso   1.00
H1012  H     0.30190   0.60108   0.54516   0.00000  Uiso   1.00
H1013  H     0.03907   0.57846   0.54288   0.00000  Uiso   1.00
H1014  H     0.03305   0.58150   0.98721   0.00000  Uiso   1.00
H1015  H     0.01089   0.50434   0.98236   0.00000  Uiso   1.00
H1016  H     0.01548   0.50234   0.53805   0.00000  Uiso   1.00
H1017  H     0.26777   0.48755   0.92623   0.00000  Uiso   1.00
H1018  H     0.27832   0.45957   0.99140   0.00000  Uiso   1.00
H1019  H     0.13725   0.49966   0.58014   0.00000  Uiso   1.00
H1020  H     0.07458   0.53780   0.92522   0.00000  Uiso   1.00
H1021  H     0.22416   0.51887   0.89103   0.00000  Uiso   1.00
H1022  H     0.01619   0.52739   0.70940   0.00000  Uiso   1.00
H1023  H     0.25912   0.36087   0.60951   0.00000  Uiso   1.00
O1024  O     0.16667   0.50000   0.75000   0.00000  Uiso   1.00
O1025  O     0.15451   0.45970   0.65458   0.00000  Uiso   1.00
O1026  O     0.12940   0.53724   0.84968   0.00000  Uiso   1.00
O1027  O     0.20824   0.51092   0.64606   0.00000  Uiso   1.00
O1028  O     0.17451   0.49213   0.84968   0.00000  Uiso   1.00
O1029  O     0.17930   0.41352   0.78213   0.00000  Uiso   1.00
O1030  O     0.14632   0.59418   0.77014   0.00000  Uiso   1.00
O1031  O     0.07412   0.46625   0.73413   0.00000  Uiso   1.00
O1032  O     0.26693   0.52605   0.71360   0.00000  Uiso   1.00
O1033  O     0.07071   0.52211   0.78213   0.00000  Uiso   1.00
O1034  O     0.25491   0.48559   0.77013   0.00000  Uiso   1.00
O1035  O     0.13760   0.40277   0.73413   0.00000  Uiso   1.00
O1036  O     0.20345   0.58953   0.71361   0.00000  Uiso   1.00
Zn1037 Zn    0.19338   0.47327   0.78734   0.00000  Uiso   1.00
Zn1038 Zn    0.13379   0.45791   0.71875   0.00000  Uiso   1.00
Zn1039 Zn    0.21056   0.53109   0.70657   0.00000  Uiso   1.00
Zn1040 Zn    0.12893   0.53773   0.78734   0.00000  Uiso   1.00
Br1041 Br    0.40454   0.45859   0.55424   0.00000  Uiso   1.00
C1042  C     0.38615   0.49311   0.76004   0.00000  Uiso   1.00
C1043  C     0.49892   0.48690   0.55953   0.00000  Uiso   1.00
C1044  C     0.56756   0.46418   0.55626   0.00000  Uiso   1.00
C1045  C     0.61421   0.50721   0.73992   0.00000  Uiso   1.00
C1046  C     0.47060   0.52080   0.92048   0.00000  Uiso   1.00
C1047  C     0.66022   0.50995   0.73570   0.00000  Uiso   1.00
C1048  C     0.34077   0.49092   0.76412   0.00000  Uiso   1.00
C1049  C     0.51287   0.65641   0.73568   0.00000  Uiso   1.00
C1050  C     0.48443   0.34607   0.76586   0.00000  Uiso   1.00
C1051  C     0.48919   0.38970   0.76072   0.00000  Uiso   1.00
C1052  C     0.50987   0.61150   0.73992   0.00000  Uiso   1.00
C1053  C     0.40991   0.51490   0.98675   0.00000  Uiso   1.00
C1054  C     0.51878   0.48190   0.62939   0.00000  Uiso   1.00
C1055  C     0.48243   0.51835   0.87092   0.00000  Uiso   1.00
C1056  C     0.57972   0.46634   0.50998   0.00000  Uiso   1.00
C1057  C     0.52769   0.47564   0.58101   0.00000  Uiso   1.00
C1058  C     0.42835   0.52726   0.94318   0.00000  Uiso   1.00
C1059  C     0.54743   0.34523   0.69772   0.00000  Uiso   1.00
C1060  C     0.57944   0.65305   0.66375   0.00000  Uiso   1.00
C1061  C     0.61049   0.34693   0.62882   0.00000  Uiso   1.00
C1062  C     0.44860   0.66308   0.80592   0.00000  Uiso   1.00
C1063  C     0.42217   0.36260   0.83565   0.00000  Uiso   1.00
C1064  C     0.43485   0.49608   0.50824   0.00000  Uiso   1.00
C1065  C     0.38735   0.34319   0.87421   0.00000  Uiso   1.00
C1066  C     0.36237   0.51873   0.50692   0.00000  Uiso   1.00
C1067  C     0.35453   0.56415   0.51801   0.00000  Uiso   1.00
C1068  C     0.63992   0.56796   0.53745   0.00000  Uiso   1.00
C1069  C     0.48039   0.49754   0.98932   0.00000  Uiso   1.00
C1070  C     0.49785   0.50890   0.94434   0.00000  Uiso   1.00
C1071  C     0.50926   0.48668   0.51251   0.00000  Uiso   1.00
C1072  C     0.55194   0.47985   0.98839   0.00000  Uiso   1.00
C1073  C     0.56778   0.49011   0.94410   0.00000  Uiso   1.00
C1074  C     0.54208   0.50714   0.92357   0.00000  Uiso   1.00
H1075  H     0.59015   0.45591   0.57302   0.00000  Uiso   1.00
H1076  H     0.62906   0.37197   0.64539   0.00000  Uiso   1.00
H1077  H     0.63357   0.66125   0.60507   0.00000  Uiso   1.00
H1078  H     0.59894   0.63908   0.68143   0.00000  Uiso   1.00
H1079  H     0.56171   0.62847   0.64572   0.00000  Uiso   1.00
H1080  H     0.53040   0.36016   0.67812   0.00000  Uiso   1.00
H1081  H     0.56684   0.37011   0.71364   0.00000  Uiso   1.00
H1082  H     0.36462   0.65313   0.86091   0.00000  Uiso   1.00
H1083  H     0.40219   0.66153   0.89580   0.00000  Uiso   1.00
H1084  H     0.36895   0.36756   0.89504   0.00000  Uiso   1.00
H1085  H     0.44374   0.38639   0.85014   0.00000  Uiso   1.00
H1086  H     0.65213   0.47356   0.79084   0.00000  Uiso   1.00
H1087  H     0.40634   0.37792   0.81520   0.00000  Uiso   1.00
H1088  H     0.42549   0.63981   0.79296   0.00000  Uiso   1.00
H1089  H     0.46345   0.64859   0.82795   0.00000  Uiso   1.00
H1090  H     0.62148   0.55455   0.51279   0.00000  Uiso   1.00
H1091  H     0.62720   0.55167   0.56894   0.00000  Uiso   1.00
H1092  H     0.63523   0.60108   0.54516   0.00000  Uiso   1.00
H1093  H     0.37240   0.57846   0.54288   0.00000  Uiso   1.00
H1094  H     0.36638   0.58150   0.98721   0.00000  Uiso   1.00
H1095  H     0.34422   0.50434   0.98236   0.00000  Uiso   1.00
H1096  H     0.34881   0.50234   0.53805   0.00000  Uiso   1.00
H1097  H     0.60110   0.48755   0.92623   0.00000  Uiso   1.00
H1098  H     0.61165   0.45957   0.99140   0.00000  Uiso   1.00
H1099  H     0.47058   0.49966   0.58014   0.00000  Uiso   1.00
H1100  H     0.40791   0.53780   0.92522   0.00000  Uiso   1.00
H1101  H     0.55749   0.51887   0.89103   0.00000  Uiso   1.00
H1102  H     0.34953   0.52739   0.70940   0.00000  Uiso   1.00
H1103  H     0.59246   0.36087   0.60951   0.00000  Uiso   1.00
O1104  O     0.50000   0.50000   0.75000   0.00000  Uiso   1.00
O1105  O     0.48784   0.45970   0.65458   0.00000  Uiso   1.00
O1106  O     0.46274   0.53724   0.84968   0.00000  Uiso   1.00
O1107  O     0.54157   0.51092   0.64606   0.00000  Uiso   1.00
O1108  O     0.50785   0.49213   0.84968   0.00000  Uiso   1.00
O1109  O     0.51264   0.41352   0.78213   0.00000  Uiso   1.00
O1110  O     0.47965   0.59418   0.77014   0.00000  Uiso   1.00
O1111  O     0.40745   0.46625   0.73413   0.00000  Uiso   1.00
O1112  O     0.60026   0.52605   0.71360   0.00000  Uiso   1.00
O1113  O     0.40405   0.52211   0.78213   0.00000  Uiso   1.00
O1114  O     0.58824   0.48559   0.77013   0.00000  Uiso   1.00
O1115  O     0.47093   0.40277   0.73413   0.00000  Uiso   1.00
O1116  O     0.53678   0.58953   0.71361   0.00000  Uiso   1.00
Zn1117 Zn    0.52672   0.47327   0.78734   0.00000  Uiso   1.00
Zn1118 Zn    0.46713   0.45791   0.71875   0.00000  Uiso   1.00
Zn1119 Zn    0.54389   0.53109   0.70657   0.00000  Uiso   1.00
Zn1120 Zn    0.46226   0.53773   0.78734   0.00000  Uiso   1.00
Br1121 Br    0.73788   0.45859   0.55424   0.00000  Uiso   1.00
C1122  C     0.71948   0.49311   0.76004   0.00000  Uiso   1.00
C1123  C     0.83225   0.48690   0.55953   0.00000  Uiso   1.00
C1124  C     0.90089   0.46418   0.55626   0.00000  Uiso   1.00
C1125  C     0.94754   0.50721   0.73992   0.00000  Uiso   1.00
C1126  C     0.80393   0.52080   0.92048   0.00000  Uiso   1.00
C1127  C     0.99356   0.50995   0.73570   0.00000  Uiso   1.00
C1128  C     0.67411   0.49092   0.76412   0.00000  Uiso   1.00
C1129  C     0.84620   0.65641   0.73568   0.00000  Uiso   1.00
C1130  C     0.81776   0.34607   0.76586   0.00000  Uiso   1.00
C1131  C     0.82252   0.38970   0.76072   0.00000  Uiso   1.00
C1132  C     0.84320   0.61150   0.73992   0.00000  Uiso   1.00
C1133  C     0.74324   0.51490   0.98675   0.00000  Uiso   1.00
C1134  C     0.85211   0.48190   0.62939   0.00000  Uiso   1.00
C1135  C     0.81577   0.51835   0.87092   0.00000  Uiso   1.00
C1136  C     0.91306   0.46634   0.50998   0.00000  Uiso   1.00
C1137  C     0.86103   0.47564   0.58101   0.00000  Uiso   1.00
C1138  C     0.76168   0.52726   0.94318   0.00000  Uiso   1.00
C1139  C     0.88076   0.34523   0.69772   0.00000  Uiso   1.00
C1140  C     0.91278   0.65305   0.66375   0.00000  Uiso   1.00
C1141  C     0.94382   0.34693   0.62882   0.00000  Uiso   1.00
C1142  C     0.78194   0.66308   0.80592   0.00000  Uiso   1.00
C1143  C     0.75550   0.36260   0.83565   0.00000  Uiso   1.00
C1144  C     0.76819   0.49608   0.50824   0.00000  Uiso   1.00
C1145  C     0.72068   0.34319   0.87421   0.00000  Uiso   1.00
C1146  C     0.69570   0.51873   0.50692   0.00000  Uiso   1.00
C1147  C     0.68787   0.56415   0.51801   0.00000  Uiso   1.00
C1148  C     0.97326   0.56796   0.53745   0.00000  Uiso   1.00
C1149  C     0.81373   0.49754   0.98932   0.00000  Uiso   1.00
C1150  C     0.83118   0.50890   0.94434   0.00000  Uiso   1.00
C1151  C     0.84259   0.48668   0.51251   0.00000  Uiso   1.00
C1152  C     0.88527   0.47985   0.98839   0.00000  Uiso   1.00
C1153  C     0.90112   0.49011   0.94410   0.00000  Uiso   1.00
C1154  C     0.87541   0.50714   0.92357   0.00000  Uiso   1.00
H1155  H     0.92349   0.45591   0.57302   0.00000  Uiso   1.00
H1156  H     0.96240   0.37197   0.64539   0.00000  Uiso   1.00
H1157  H     0.96690   0.66125   0.60507   0.00000  Uiso   1.00
H1158  H     0.93227   0.63908   0.68143   0.00000  Uiso   1.00
H1159  H     0.89504   0.62847   0.64572   0.00000  Uiso   1.00
H1160  H     0.86373   0.36016   0.67812   0.00000  Uiso   1.00
H1161  H     0.90017   0.37011   0.71364   0.00000  Uiso   1.00
H1162  H     0.69795   0.65313   0.86091   0.00000  Uiso   1.00
H1163  H     0.73552   0.66153   0.89580   0.00000  Uiso   1.00
H1164  H     0.70228   0.36756   0.89504   0.00000  Uiso   1.00
H1165  H     0.77708   0.38639   0.85014   0.00000  Uiso   1.00
H1166  H     0.98546   0.47356   0.79084   0.00000  Uiso   1.00
H1167  H     0.73967   0.37792   0.81520   0.00000  Uiso   1.00
H1168  H     0.75882   0.63981   0.79296   0.00000  Uiso   1.00
H1169  H     0.79679   0.64859   0.82795   0.00000  Uiso   1.00
H1170  H     0.95481   0.55455   0.51279   0.00000  Uiso   1.00
H1171  H     0.96053   0.55167   0.56894   0.00000  Uiso   1.00
H1172  H     0.96856   0.60108   0.54516   0.00000  Uiso   1.00
H1173  H     0.70574   0.57846   0.54288   0.00000  Uiso   1.00
H1174  H     0.69971   0.58150   0.98721   0.00000  Uiso   1.00
H1175  H     0.67756   0.50434   0.98236   0.00000  Uiso   1.00
H1176  H     0.68214   0.50234   0.53805   0.00000  Uiso   1.00
H1177  H     0.93444   0.48755   0.92623   0.00000  Uiso   1.00
H1178  H     0.94499   0.45957   0.99140   0.00000  Uiso   1.00
H1179  H     0.80391   0.49966   0.58014   0.00000  Uiso   1.00
H1180  H     0.74125   0.53780   0.92522   0.00000  Uiso   1.00
H1181  H     0.89083   0.51887   0.89103   0.00000  Uiso   1.00
H1182  H     0.68286   0.52739   0.70940   0.00000  Uiso   1.00
H1183  H     0.92579   0.36087   0.60951   0.00000  Uiso   1.00
O1184  O     0.83333   0.50000   0.75000   0.00000  Uiso   1.00
O1185  O     0.82118   0.45970   0.65458   0.00000  Uiso   1.00
O1186  O     0.79607   0.53724   0.84968   0.00000  Uiso   1.00
O1187  O     0.87491   0.51092   0.64606   0.00000  Uiso   1.00
O1188  O     0.84118   0.49213   0.84968   0.00000  Uiso   1.00
O1189  O     0.84597   0.41352   0.78213   0.00000  Uiso   1.00
O1190  O     0.81298   0.59418   0.77014   0.00000  Uiso   1.00
O1191  O     0.74078   0.46625   0.73413   0.00000  Uiso   1.00
O1192  O     0.93360   0.52605   0.71360   0.00000  Uiso   1.00
O1193  O     0.73738   0.52211   0.78213   0.00000  Uiso   1.00
O1194  O     0.92158   0.48559   0.77013   0.00000  Uiso   1.00
O1195  O     0.80426   0.40277   0.73413   0.00000  Uiso   1.00
O1196  O     0.87012   0.58953   0.71361   0.00000  Uiso   1.00
Zn1197 Zn    0.86005   0.47327   0.78734   0.00000  Uiso   1.00
Zn1198 Zn    0.80046   0.45791   0.71875   0.00000  Uiso   1.00
Zn1199 Zn    0.87723   0.53109   0.70657   0.00000  Uiso   1.00
Zn1200 Zn    0.79560   0.53773   0.78734   0.00000  Uiso   1.00
Br1201 Br    0.07121   0.79192   0.55424   0.00000  Uiso   1.00
C1202  C     0.05281   0.82644   0.76004   0.00000  Uiso   1.00
C1203  C     0.16559   0.82024   0.55953   0.00000  Uiso   1.00
C1204  C     0.23423   0.79752   0.55626   0.00000  Uiso   1.00
C1205  C     0.28088   0.84054   0.73992   0.00000  Uiso   1.00
C1206  C     0.13726   0.85413   0.92048   0.00000  Uiso   1.00
C1207  C     0.32689   0.84328   0.73570   0.00000  Uiso   1.00
C1208  C     0.00744   0.82425   0.76412   0.00000  Uiso   1.00
C1209  C     0.17954   0.98974   0.73568   0.00000  Uiso   1.00
C1210  C     0.15110   0.67940   0.76586   0.00000  Uiso   1.00
C1211  C     0.15585   0.72303   0.76072   0.00000  Uiso   1.00
C1212  C     0.17654   0.94483   0.73992   0.00000  Uiso   1.00
C1213  C     0.07658   0.84823   0.98675   0.00000  Uiso   1.00
C1214  C     0.18544   0.81523   0.62939   0.00000  Uiso   1.00
C1215  C     0.14910   0.85168   0.87092   0.00000  Uiso   1.00
C1216  C     0.24639   0.79968   0.50998   0.00000  Uiso   1.00
C1217  C     0.19436   0.80897   0.58101   0.00000  Uiso   1.00
C1218  C     0.09501   0.86060   0.94318   0.00000  Uiso   1.00
C1219  C     0.21410   0.67856   0.69772   0.00000  Uiso   1.00
C1220  C     0.24611   0.98639   0.66375   0.00000  Uiso   1.00
C1221  C     0.27715   0.68026   0.62882   0.00000  Uiso   1.00
C1222  C     0.11527   0.99641   0.80592   0.00000  Uiso   1.00
C1223  C     0.08884   0.69593   0.83565   0.00000  Uiso   1.00
C1224  C     0.10152   0.82941   0.50824   0.00000  Uiso   1.00
C1225  C     0.05401   0.67653   0.87421   0.00000  Uiso   1.00
C1226  C     0.02904   0.85206   0.50692   0.00000  Uiso   1.00
C1227  C     0.02120   0.89749   0.51801   0.00000  Uiso   1.00
C1228  C     0.30659   0.90129   0.53745   0.00000  Uiso   1.00
C1229  C     0.14706   0.83087   0.98932   0.00000  Uiso   1.00
C1230  C     0.16452   0.84223   0.94434   0.00000  Uiso   1.00
C1231  C     0.17592   0.82001   0.51251   0.00000  Uiso   1.00
C1232  C     0.21861   0.81318   0.98839   0.00000  Uiso   1.00
C1233  C     0.23445   0.82344   0.94410   0.00000  Uiso   1.00
C1234  C     0.20874   0.84048   0.92357   0.00000  Uiso   1.00
H1235  H     0.25682   0.78924   0.57302   0.00000  Uiso   1.00
H1236  H     0.29573   0.70531   0.64539   0.00000  Uiso   1.00
H1237  H     0.30023   0.99459   0.60507   0.00000  Uiso   1.00
H1238  H     0.26561   0.97241   0.68143   0.00000  Uiso   1.00
H1239  H     0.22837   0.96180   0.64572   0.00000  Uiso   1.00
H1240  H     0.19707   0.69349   0.67812   0.00000  Uiso   1.00
H1241  H     0.23350   0.70344   0.71364   0.00000  Uiso   1.00
H1242  H     0.03129   0.98646   0.86091   0.00000  Uiso   1.00
H1243  H     0.06885   0.99486   0.89580   0.00000  Uiso   1.00
H1244  H     0.03561   0.70090   0.89504   0.00000  Uiso   1.00
H1245  H     0.11041   0.71973   0.85014   0.00000  Uiso   1.00
H1246  H     0.31880   0.80689   0.79084   0.00000  Uiso   1.00
H1247  H     0.07301   0.71125   0.81520   0.00000  Uiso   1.00
H1248  H     0.09216   0.97314   0.79296   0.00000  Uiso   1.00
H1249  H     0.13012   0.98192   0.82795   0.00000  Uiso   1.00
H1250  H     0.28814   0.88789   0.51279   0.00000  Uiso   1.00
H1251  H     0.29386   0.88501   0.56894   0.00000  Uiso   1.00
H1252  H     0.30190   0.93441   0.54516   0.00000  Uiso   1.00
H1253  H     0.03907   0.91179   0.54288   0.00000  Uiso   1.00
H1254  H     0.03305   0.91483   0.98721   0.00000  Uiso   1.00
H1255  H     0.01089   0.83768   0.98236   0.00000  Uiso   1.00
H1256  H     0.01548   0.83568   0.53805   0.00000  Uiso   1.00
H1257  H     0.26777   0.82088   0.92623   0.00000  Uiso   1.00
H1258  H     0.27832   0.79290   0.99140   0.00000  Uiso   1.00
H1259  H     0.13725   0.83299   0.58014   0.00000  Uiso   1.00
H1260  H     0.07458   0.87113   0.92522   0.00000  Uiso   1.00
H1261  H     0.22416   0.85220   0.89103   0.00000  Uiso   1.00
H1262  H     0.01619   0.86072   0.70940   0.00000  Uiso   1.00
H1263  H     0.25912   0.69420   0.60951   0.00000  Uiso   1.00
O1264  O     0.16667   0.83333   0.75000   0.00000  Uiso   1.00
O1265  O     0.15451   0.79304   0.65458   0.00000  Uiso   1.00
O1266  O     0.12940   0.87058   0.84968   0.00000  Uiso   1.00
O1267  O     0.20824   0.84425   0.64606   0.00000  Uiso   1.00
O1268  O     0.17451   0.82546   0.84968   0.00000  Uiso   1.00
O1269  O     0.17930   0.74686   0.78213   0.00000  Uiso   1.00
O1270  O     0.14632   0.92751   0.77014   0.00000  Uiso   1.00
O1271  O     0.07412   0.79958   0.73413   0.00000  Uiso   1.00
O1272  O     0.26693   0.85939   0.71360   0.00000  Uiso   1.00
O1273  O     0.07071   0.85544   0.78213   0.00000  Uiso   1.00
O1274  O     0.25491   0.81892   0.77013   0.00000  Uiso   1.00
O1275  O     0.13760   0.73610   0.73413   0.00000  Uiso   1.00
O1276  O     0.20345   0.92286   0.71361   0.00000  Uiso   1.00
Zn1277 Zn    0.19338   0.80661   0.78734   0.00000  Uiso   1.00
Zn1278 Zn    0.13379   0.79124   0.71875   0.00000  Uiso   1.00
Zn1279 Zn    0.21056   0.86442   0.70657   0.00000  Uiso   1.00
Zn1280 Zn    0.12893   0.87106   0.78734   0.00000  Uiso   1.00
Br1281 Br    0.40454   0.79192   0.55424   0.00000  Uiso   1.00
C1282  C     0.38615   0.82644   0.76004   0.00000  Uiso   1.00
C1283  C     0.49892   0.82024   0.55953   0.00000  Uiso   1.00
C1284  C     0.56756   0.79752   0.55626   0.00000  Uiso   1.00
C1285  C     0.61421   0.84054   0.73992   0.00000  Uiso   1.00
C1286  C     0.47060   0.85413   0.92048   0.00000  Uiso   1.00
C1287  C     0.66022   0.84328   0.73570   0.00000  Uiso   1.00
C1288  C     0.34077   0.82425   0.76412   0.00000  Uiso   1.00
C1289  C     0.51287   0.98974   0.73568   0.00000  Uiso   1.00
C1290  C     0.48443   0.67940   0.76586   0.00000  Uiso   1.00
C1291  C     0.48919   0.72303   0.76072   0.00000  Uiso   1.00
C1292  C     0.50987   0.94483   0.73992   0.00000  Uiso   1.00
C1293  C     0.40991   0.84823   0.98675   0.00000  Uiso   1.00
C1294  C     0.51878   0.81523   0.62939   0.00000  Uiso   1.00
C1295  C     0.48243   0.85168   0.87092   0.00000  Uiso   1.00
C1296  C     0.57972   0.79968   0.50998   0.00000  Uiso   1.00
C1297  C     0.52769   0.80897   0.58101   0.00000  Uiso   1.00
C1298  C     0.42835   0.86060   0.94318   0.00000  Uiso   1.00
C1299  C     0.54743   0.67856   0.69772   0.00000  Uiso   1.00
C1300  C     0.57944   0.98639   0.66375   0.00000  Uiso   1.00
C1301  C     0.61049   0.68026   0.62882   0.00000  Uiso   1.00
C1302  C     0.44860   0.99641   0.80592   0.00000  Uiso   1.00
C1303  C     0.42217   0.69593   0.83565   0.00000  Uiso   1.00
C1304  C     0.43485   0.82941   0.50824   0.00000  Uiso   1.00
C1305  C     0.38735   0.67653   0.87421   0.00000  Uiso   1.00
C1306  C     0.36237   0.85206   0.50692   0.00000  Uiso   1.00
C1307  C     0.35453   0.89749   0.51801   0.00000  Uiso   1.00
C1308  C     0.63992   0.90129   0.53745   0.00000  Uiso   1.00
C1309  C     0.48039   0.83087   0.98932   0.00000  Uiso   1.00
C1310  C     0.49785   0.84223   0.94434   0.00000  Uiso   1.00
C1311  C     0.50926   0.82001   0.51251   0.00000  Uiso   1.00
C1312  C     0.55194   0.81318   0.98839   0.00000  Uiso   1.00
C1313  C     0.56778   0.82344   0.94410   0.00000  Uiso   1.00
C1314  C     0.54208   0.84048   0.92357   0.00000  Uiso   1.00
H1315  H     0.59015   0.78924   0.57302   0.00000  Uiso   1.00
H1316  H     0.62906   0.70531   0.64539   0.00000  Uiso   1.00
H1317  H     0.63357   0.99459   0.60507   0.00000  Uiso   1.00
H1318  H     0.59894   0.97241   0.68143   0.00000  Uiso   1.00
H1319  H     0.56171   0.96180   0.64572   0.00000  Uiso   1.00
H1320  H     0.53040   0.69349   0.67812   0.00000  Uiso   1.00
H1321  H     0.56684   0.70344   0.71364   0.00000  Uiso   1.00
H1322  H     0.36462   0.98646   0.86091   0.00000  Uiso   1.00
H1323  H     0.40219   0.99486   0.89580   0.00000  Uiso   1.00
H1324  H     0.36895   0.70090   0.89504   0.00000  Uiso   1.00
H1325  H     0.44374   0.71973   0.85014   0.00000  Uiso   1.00
H1326  H     0.65213   0.80689   0.79084   0.00000  Uiso   1.00
H1327  H     0.40634   0.71125   0.81520   0.00000  Uiso   1.00
H1328  H     0.42549   0.97314   0.79296   0.00000  Uiso   1.00
H1329  H     0.46345   0.98192   0.82795   0.00000  Uiso   1.00
H1330  H     0.62148   0.88789   0.51279   0.00000  Uiso   1.00
H1331  H     0.62720   0.88501   0.56894   0.00000  Uiso   1.00
H1332  H     0.63523   0.93441   0.54516   0.00000  Uiso   1.00
H1333  H     0.37240   0.91179   0.54288   0.00000  Uiso   1.00
H1334  H     0.36638   0.91483   0.98721   0.00000  Uiso   1.00
H1335  H     0.34422   0.83768   0.98236   0.00000  Uiso   1.00
H1336  H     0.34881   0.83568   0.53805   0.00000  Uiso   1.00
H1337  H     0.60110   0.82088   0.92623   0.00000  Uiso   1.00
H1338  H     0.61165   0.79290   0.99140   0.00000  Uiso   1.00
H1339  H     0.47058   0.83299   0.58014   0.00000  Uiso   1.00
H1340  H     0.40791   0.87113   0.92522   0.00000  Uiso   1.00
H1341  H     0.55749   0.85220   0.89103   0.00000  Uiso   1.00
H1342  H     0.34953   0.86072   0.70940   0.00000  Uiso   1.00
H1343  H     0.59246   0.69420   0.60951   0.00000  Uiso   1.00
O1344  O     0.50000   0.83333   0.75000   0.00000  Uiso   1.00
O1345  O     0.48784   0.79304   0.65458   0.00000  Uiso   1.00
O1346  O     0.46274   0.87058   0.84968   0.00000  Uiso   1.00
O1347  O     0.54157   0.84425   0.64606   0.00000  Uiso   1.00
O1348  O     0.50785   0.82546   0.84968   0.00000  Uiso   1.00
O1349  O     0.51264   0.74686   0.78213   0.00000  Uiso   1.00
O1350  O     0.47965   0.92751   0.77014   0.00000  Uiso   1.00
O1351  O     0.40745   0.79958   0.73413   0.00000  Uiso   1.00
O1352  O     0.60026   0.85939   0.71360   0.00000  Uiso   1.00
O1353  O     0.40405   0.85544   0.78213   0.00000  Uiso   1.00
O1354  O     0.58824   0.81892   0.77013   0.00000  Uiso   1.00
O1355  O     0.47093   0.73610   0.73413   0.00000  Uiso   1.00
O1356  O     0.53678   0.92286   0.71361   0.00000  Uiso   1.00
Zn1357 Zn    0.52672   0.80661   0.78734   0.00000  Uiso   1.00
Zn1358 Zn    0.46713   0.79124   0.71875   0.00000  Uiso   1.00
Zn1359 Zn    0.54389   0.86442   0.70657   0.00000  Uiso   1.00
Zn1360 Zn    0.46226   0.87106   0.78734   0.00000  Uiso   1.00
Br1361 Br    0.73788   0.79192   0.55424   0.00000  Uiso   1.00
C1362  C     0.71948   0.82644   0.76004   0.00000  Uiso   1.00
C1363  C     0.83225   0.82024   0.55953   0.00000  Uiso   1.00
C1364  C     0.90089   0.79752   0.55626   0.00000  Uiso   1.00
C1365  C     0.94754   0.84054   0.73992   0.00000  Uiso   1.00
C1366  C     0.80393   0.85413   0.92048   0.00000  Uiso   1.00
C1367  C     0.99356   0.84328   0.73570   0.00000  Uiso   1.00
C1368  C     0.67411   0.82425   0.76412   0.00000  Uiso   1.00
C1369  C     0.84620   0.98974   0.73568   0.00000  Uiso   1.00
C1370  C     0.81776   0.67940   0.76586   0.00000  Uiso   1.00
C1371  C     0.82252   0.72303   0.76072   0.00000  Uiso   1.00
C1372  C     0.84320   0.94483   0.73992   0.00000  Uiso   1.00
C1373  C     0.74324   0.84823   0.98675   0.00000  Uiso   1.00
C1374  C     0.85211   0.81523   0.62939   0.00000  Uiso   1.00
C1375  C     0.81577   0.85168   0.87092   0.00000  Uiso   1.00
C1376  C     0.91306   0.79968   0.50998   0.00000  Uiso   1.00
C1377  C     0.86103   0.80897   0.58101   0.00000  Uiso   1.00
C1378  C     0.76168   0.86060   0.94318   0.00000  Uiso   1.00
C1379  C     0.88076   0.67856   0.69772   0.00000  Uiso   1.00
C1380  C     0.91278   0.98639   0.66375   0.00000  Uiso   1.00
C1381  C     0.94382   0.68026   0.62882   0.00000  Uiso   1.00
C1382  C     0.78194   0.99641   0.80592   0.00000  Uiso   1.00
C1383  C     0.75550   0.69593   0.83565   0.00000  Uiso   1.00
C1384  C     0.76819   0.82941   0.50824   0.00000  Uiso   1.00
C1385  C     0.72068   0.67653   0.87421   0.00000  Uiso   1.00
C1386  C     0.69570   0.85206   0.50692   0.00000  Uiso   1.00
C1387  C     0.68787   0.89749   0.51801   0.00000  Uiso   1.00
C1388  C     0.97326   0.90129   0.53745   0.00000  Uiso   1.00
C1389  C     0.81373   0.83087   0.98932   0.00000  Uiso   1.00
C1390  C     0.83118   0.84223   0.94434   0.00000  Uiso   1.00
C1391  C     0.84259   0.82001   0.51251   0.00000  Uiso   1.00
C1392  C     0.88527   0.81318   0.98839   0.00000  Uiso   1.00
C1393  C     0.90112   0.82344   0.94410   0.00000  Uiso   1.00
C1394  C     0.87541   0.84048   0.92357   0.00000  Uiso   1.00
H1395  H     0.92349   0.78924   0.57302   0.00000  Uiso   1.00
H1396  H     0.96240   0.70531   0.64539   0.00000  Uiso   1.00
H1397  H     0.96690   0.99459   0.60507   0.00000  Uiso   1.00
H1398  H     0.93227   0.97241   0.68143   0.00000  Uiso   1.00
H1399  H     0.89504   0.96180   0.64572   0.00000  Uiso   1.00
H1400  H     0.86373   0.69349   0.67812   0.00000  Uiso   1.00
H1401  H     0.90017   0.70344   0.71364   0.00000  Uiso   1.00
H1402  H     0.69795   0.98646   0.86091   0.00000  Uiso   1.00
H1403  H     0.73552   0.99486   0.89580   0.00000  Uiso   1.00
H1404  H     0.70228   0.70090   0.89504   0.00000  Uiso   1.00
H1405  H     0.77708   0.71973   0.85014   0.00000  Uiso   1.00
H1406  H     0.98546   0.80689   0.79084   0.00000  Uiso   1.00
H1407  H     0.73967   0.71125   0.81520   0.00000  Uiso   1.00
H1408  H     0.75882   0.97314   0.79296   0.00000  Uiso   1.00
H1409  H     0.79679   0.98192   0.82795   0.00000  Uiso   1.00
H1410  H     0.95481   0.88789   0.51279   0.00000  Uiso   1.00
H1411  H     0.96053   0.88501   0.56894   0.00000  Uiso   1.00
H1412  H     0.96856   0.93441   0.54516   0.00000  Uiso   1.00
H1413  H     0.70574   0.91179   0.54288   0.00000  Uiso   1.00
H1414  H     0.69971   0.91483   0.98721   0.00000  Uiso   1.00
H1415  H     0.67756   0.83768   0.98236   0.00000  Uiso   1.00
H1416  H     0.68214   0.83568   0.53805   0.00000  Uiso   1.00
H1417  H     0.93444   0.82088   0.92623   0.00000  Uiso   1.00
H1418  H     0.94499   0.79290   0.99140   0.00000  Uiso   1.00
H1419  H     0.80391   0.83299   0.58014   0.00000  Uiso   1.00
H1420  H     0.74125   0.87113   0.92522   0.00000  Uiso   1.00
H1421  H     0.89083   0.85220   0.89103   0.00000  Uiso   1.00
H1422  H     0.68286   0.86072   0.70940   0.00000  Uiso   1.00
H1423  H     0.92579   0.69420   0.60951   0.00000  Uiso   1.00
O1424  O     0.83333   0.83333   0.75000   0.00000  Uiso   1.00
O1425  O     0.82118   0.79304   0.65458   0.00000  Uiso   1.00
O1426  O     0.79607   0.87058   0.84968   0.00000  Uiso   1.00
O1427  O     0.87491   0.84425   0.64606   0.00000  Uiso   1.00
O1428  O     0.84118   0.82546   0.84968   0.00000  Uiso   1.00
O1429  O     0.84597   0.74686   0.78213   0.00000  Uiso   1.00
O1430  O     0.81298   0.92751   0.77014   0.00000  Uiso   1.00
O1431  O     0.74078   0.79958   0.73413   0.00000  Uiso   1.00
O1432  O     0.93360   0.85939   0.71360   0.00000  Uiso   1.00
O1433  O     0.73738   0.85544   0.78213   0.00000  Uiso   1.00
O1434  O     0.92158   0.81892   0.77013   0.00000  Uiso   1.00
O1435  O     0.80426   0.73610   0.73413   0.00000  Uiso   1.00
O1436  O     0.87012   0.92286   0.71361   0.00000  Uiso   1.00
Zn1437 Zn    0.86005   0.80661   0.78734   0.00000  Uiso   1.00
Zn1438 Zn    0.80046   0.79124   0.71875   0.00000  Uiso   1.00
Zn1439 Zn    0.87723   0.86442   0.70657   0.00000  Uiso   1.00
Zn1440 Zn    0.79560   0.87106   0.78734   0.00000  Uiso   1.00
loop_
_geom_bond_atom_site_label_1
_geom_bond_atom_site_label_2
_geom_bond_distance
_geom_bond_site_symmetry_2
_ccdc_geom_bond_type
Br1    C24     1.941   .     S
C2     O73     1.275   .     A
C2     O71     1.275   .     A
C2     C8      1.435   .     S
C3     C31     1.404   .     A
C3     C17     1.393   .     A
C3     H59     1.080   .     S
C4     H35     1.084   .     S
C4     C16     1.388   .     A
C4     C17     1.396   .     A
C5     O72     1.280   .     A
C5     O74     1.276   .     A
C5     C7      1.453   .     S
C6     C15     1.476   .     S
C6     C18     1.397   .     A
C6     C30     1.413   .     A
C7     C88     1.334   .     S
C7     H142    1.088   .     S
C8     C167    1.334   1_455 S
C8     H206    1.086   1_455 S
C9     C12     1.478   .     S
C9     C250    1.372   .     S
C9     C259    1.549   .     S
C10    C11     1.437   .     S
C10    C489    1.372   1_545 S
C10    C502    1.536   1_545 S
C11    O69     1.272   .     A
C11    O75     1.275   .     A
C12    O76     1.273   .     A
C12    O70     1.271   .     A
C13    C18     1.398   .     A
C13    C744    1.415   .     S
C13    C746    1.518   .     S
C14    O67     1.271   .     A
C14    C17     1.446   .     S
C14    O65     1.277   .     A
C15    O66     1.286   .     A
C15    O68     1.283   .     A
C16    C752    1.401   1_554 S
C16    H778    1.083   1_554 S
C18    H60     1.084   .     S
C19    H40     1.112   .     S
C19    H41     1.113   .     S
C19    C489    1.549   1_545 S
C19    C500    1.537   1_545 S
C20    H39     1.112   .     S
C20    H38     1.111   .     S
C20    C259    1.537   .     S
C20    C261    1.528   .     S
C21    H36     1.111   .     S
C21    H63     1.111   .     S
C21    C500    1.528   1_545 S
C21    H517    1.110   1_545 S
C22    H48     1.112   .     S
C22    H49     1.112   .     S
C22    C250    1.536   .     S
C22    C263    1.542   .     S
C23    H45     1.112   .     S
C23    H47     1.112   .     S
C23    C25     1.527   .     S
C23    C502    1.542   1_545 S
C24    C733    1.415   1_554 S
C24    C749    1.431   1_554 S
C25    H44     1.110   .     S
C25    H522    1.111   1_545 S
C25    H523    1.111   1_545 S
C26    C27     1.534   .     S
C26    H56     1.106   .     S
C26    C733    1.518   1_554 S
C26    H775    1.111   1_554 S
C27    H53     1.112   .     S
C27    C188    1.527   1_455 S
C27    H774    1.111   1_554 S
C28    H51     1.112   .     S
C28    H50     1.111   .     S
C28    H52     1.110   .     S
C28    C107    1.527   .     S
C29    C30     1.423   .     A
C29    C744    1.431   .     S
C29    C751    1.427   .     S
C30    C34     1.412   .     A
C31    C749    1.427   1_554 S
C31    C752    1.422   1_554 S
C32    C33     1.388   .     A
C32    C736    1.401   .     S
C32    C751    1.422   .     S
C33    C34     1.382   .     A
C33    H57     1.084   .     S
C34    H61     1.081   .     S
H37    C261    1.110   .     S
H42    C265    1.111   .     S
H43    C265    1.111   .     S
H46    C88     1.086   .     S
H54    C747    1.111   .     S
H55    C746    1.111   .     S
H58    C736    1.083   .     S
H62    C167    1.088   1_455 S
O64    Zn77    1.959   .     S
O64    Zn80    1.934   .     S
O64    Zn79    1.926   .     S
O64    Zn78    1.956   .     S
O65    Zn78    1.924   .     S
O66    Zn80    1.938   .     S
O67    Zn79    1.939   .     S
O68    Zn77    1.926   .     S
O69    Zn77    1.944   .     S
O70    Zn80    1.941   .     S
O71    Zn78    1.918   .     S
O72    Zn79    1.932   .     S
O73    Zn80    1.929   .     S
O74    Zn77    1.915   .     S
O75    Zn78    1.946   .     S
O76    Zn79    1.945   .     S
Br81   C104    1.941   .     S
C82    O153    1.275   .     A
C82    O151    1.275   .     A
C82    C88     1.435   .     S
C83    C111    1.404   .     A
C83    C97     1.393   .     A
C83    H139    1.080   .     S
C84    H115    1.084   .     S
C84    C96     1.388   .     A
C84    C97     1.396   .     A
C85    O152    1.280   .     A
C85    O154    1.276   .     A
C85    C87     1.453   .     S
C86    C95     1.476   .     S
C86    C98     1.397   .     A
C86    C110    1.413   .     A
C87    C168    1.334   .     S
C87    H222    1.088   .     S
C89    C92     1.478   .     S
C89    C330    1.372   .     S
C89    C339    1.549   .     S
C90    C91     1.437   .     S
C90    C569    1.372   1_545 S
C90    C582    1.536   1_545 S
C91    O149    1.272   .     A
C91    O155    1.275   .     A
C92    O156    1.273   .     A
C92    O150    1.271   .     A
C93    C98     1.398   .     A
C93    C824    1.415   .     S
C93    C826    1.518   .     S
C94    O147    1.271   .     A
C94    C97     1.446   .     S
C94    O145    1.277   .     A
C95    O146    1.286   .     A
C95    O148    1.283   .     A
C96    C832    1.401   1_554 S
C96    H858    1.083   1_554 S
C98    H140    1.084   .     S
C99    H120    1.112   .     S
C99    H121    1.113   .     S
C99    C569    1.549   1_545 S
C99    C580    1.537   1_545 S
C100   H119    1.112   .     S
C100   H118    1.111   .     S
C100   C339    1.537   .     S
C100   C341    1.528   .     S
C101   H116    1.111   .     S
C101   H143    1.111   .     S
C101   C580    1.528   1_545 S
C101   H597    1.110   1_545 S
C102   H128    1.112   .     S
C102   H129    1.112   .     S
C102   C330    1.536   .     S
C102   C343    1.542   .     S
C103   H125    1.112   .     S
C103   H127    1.112   .     S
C103   C105    1.527   .     S
C103   C582    1.542   1_545 S
C104   C813    1.415   1_554 S
C104   C829    1.431   1_554 S
C105   H124    1.110   .     S
C105   H602    1.111   1_545 S
C105   H603    1.111   1_545 S
C106   C107    1.534   .     S
C106   H136    1.106   .     S
C106   C813    1.518   1_554 S
C106   H855    1.111   1_554 S
C107   H133    1.112   .     S
C107   H854    1.111   1_554 S
C108   H131    1.112   .     S
C108   H130    1.111   .     S
C108   H132    1.110   .     S
C108   C187    1.527   .     S
C109   C110    1.423   .     A
C109   C824    1.431   .     S
C109   C831    1.427   .     S
C110   C114    1.412   .     A
C111   C829    1.427   1_554 S
C111   C832    1.422   1_554 S
C112   C113    1.388   .     A
C112   C816    1.401   .     S
C112   C831    1.422   .     S
C113   C114    1.382   .     A
C113   H137    1.084   .     S
C114   H141    1.081   .     S
H117   C341    1.110   .     S
H122   C345    1.111   .     S
H123   C345    1.111   .     S
H126   C168    1.086   .     S
H134   C827    1.111   .     S
H135   C826    1.111   .     S
H138   C816    1.083   .     S
O144   Zn157   1.959   .     S
O144   Zn160   1.934   .     S
O144   Zn159   1.926   .     S
O144   Zn158   1.956   .     S
O145   Zn158   1.924   .     S
O146   Zn160   1.938   .     S
O147   Zn159   1.939   .     S
O148   Zn157   1.926   .     S
O149   Zn157   1.944   .     S
O150   Zn160   1.941   .     S
O151   Zn158   1.918   .     S
O152   Zn159   1.932   .     S
O153   Zn160   1.929   .     S
O154   Zn157   1.915   .     S
O155   Zn158   1.946   .     S
O156   Zn159   1.945   .     S
Br161  C184    1.941   .     S
C162   O233    1.275   .     A
C162   O231    1.275   .     A
C162   C168    1.435   .     S
C163   C191    1.404   .     A
C163   C177    1.393   .     A
C163   H219    1.080   .     S
C164   H195    1.084   .     S
C164   C176    1.388   .     A
C164   C177    1.396   .     A
C165   O232    1.280   .     A
C165   O234    1.276   .     A
C165   C167    1.453   .     S
C166   C175    1.476   .     S
C166   C178    1.397   .     A
C166   C190    1.413   .     A
C167   C8      1.334   1_655 S
C167   H62     1.088   1_655 S
C169   C172    1.478   .     S
C169   C410    1.372   .     S
C169   C419    1.549   .     S
C170   C171    1.437   .     S
C170   C649    1.372   1_545 S
C170   C662    1.536   1_545 S
C171   O229    1.272   .     A
C171   O235    1.275   .     A
C172   O236    1.273   .     A
C172   O230    1.271   .     A
C173   C178    1.398   .     A
C173   C904    1.415   .     S
C173   C906    1.518   .     S
C174   O227    1.271   .     A
C174   C177    1.446   .     S
C174   O225    1.277   .     A
C175   O226    1.286   .     A
C175   O228    1.283   .     A
C176   C912    1.401   1_554 S
C176   H938    1.083   1_554 S
C178   H220    1.084   .     S
C179   H200    1.112   .     S
C179   H201    1.113   .     S
C179   C649    1.549   1_545 S
C179   C660    1.537   1_545 S
C180   H199    1.112   .     S
C180   H198    1.111   .     S
C180   C419    1.537   .     S
C180   C421    1.528   .     S
C181   H196    1.111   .     S
C181   H223    1.111   .     S
C181   C660    1.528   1_545 S
C181   H677    1.110   1_545 S
C182   H208    1.112   .     S
C182   H209    1.112   .     S
C182   C410    1.536   .     S
C182   C423    1.542   .     S
C183   H205    1.112   .     S
C183   H207    1.112   .     S
C183   C185    1.527   .     S
C183   C662    1.542   1_545 S
C184   C893    1.415   1_554 S
C184   C909    1.431   1_554 S
C185   H204    1.110   .     S
C185   H682    1.111   1_545 S
C185   H683    1.111   1_545 S
C186   C187    1.534   .     S
C186   H216    1.106   .     S
C186   C893    1.518   1_554 S
C186   H935    1.111   1_554 S
C187   H213    1.112   .     S
C187   H934    1.111   1_554 S
C188   H211    1.112   .     S
C188   H210    1.111   .     S
C188   H212    1.110   .     S
C188   C27     1.527   1_655 S
C189   C190    1.423   .     A
C189   C904    1.431   .     S
C189   C911    1.427   .     S
C190   C194    1.412   .     A
C191   C909    1.427   1_554 S
C191   C912    1.422   1_554 S
C192   C193    1.388   .     A
C192   C896    1.401   .     S
C192   C911    1.422   .     S
C193   C194    1.382   .     A
C193   H217    1.084   .     S
C194   H221    1.081   .     S
H197   C421    1.110   .     S
H202   C425    1.111   .     S
H203   C425    1.111   .     S
H206   C8      1.086   1_655 S
H214   C907    1.111   .     S
H215   C906    1.111   .     S
H218   C896    1.083   .     S
O224   Zn237   1.959   .     S
O224   Zn240   1.934   .     S
O224   Zn239   1.926   .     S
O224   Zn238   1.956   .     S
O225   Zn238   1.924   .     S
O226   Zn240   1.938   .     S
O227   Zn239   1.939   .     S
O228   Zn237   1.926   .     S
O229   Zn237   1.944   .     S
O230   Zn240   1.941   .     S
O231   Zn238   1.918   .     S
O232   Zn239   1.932   .     S
O233   Zn240   1.929   .     S
O234   Zn237   1.915   .     S
O235   Zn238   1.946   .     S
O236   Zn239   1.945   .     S
Br241  C264    1.941   .     S
C242   O313    1.275   .     A
C242   O311    1.275   .     A
C242   C248    1.435   .     S
C243   C271    1.404   .     A
C243   C257    1.393   .     A
C243   H299    1.080   .     S
C244   H275    1.084   .     S
C244   C256    1.388   .     A
C244   C257    1.396   .     A
C245   O312    1.280   .     A
C245   O314    1.276   .     A
C245   C247    1.453   .     S
C246   C255    1.476   .     S
C246   C258    1.397   .     A
C246   C270    1.413   .     A
C247   C328    1.334   .     S
C247   H382    1.088   .     S
C248   C407    1.334   1_455 S
C248   H446    1.086   1_455 S
C249   C252    1.478   .     S
C249   C490    1.372   .     S
C249   C499    1.549   .     S
C250   C251    1.437   .     S
C251   O309    1.272   .     A
C251   O315    1.275   .     A
C252   O316    1.273   .     A
C252   O310    1.271   .     A
C253   C258    1.398   .     A
C253   C984    1.415   .     S
C253   C986    1.518   .     S
C254   O307    1.271   .     A
C254   C257    1.446   .     S
C254   O305    1.277   .     A
C255   O306    1.286   .     A
C255   O308    1.283   .     A
C256   C992    1.401   1_554 S
C256   H1018   1.083   1_554 S
C258   H300    1.084   .     S
C259   H280    1.112   .     S
C259   H281    1.113   .     S
C260   H279    1.112   .     S
C260   H278    1.111   .     S
C260   C499    1.537   .     S
C260   C501    1.528   .     S
C261   H276    1.111   .     S
C261   H303    1.111   .     S
C262   H288    1.112   .     S
C262   H289    1.112   .     S
C262   C490    1.536   .     S
C262   C503    1.542   .     S
C263   H285    1.112   .     S
C263   H287    1.112   .     S
C263   C265    1.527   .     S
C264   C973    1.415   1_554 S
C264   C989    1.431   1_554 S
C265   H284    1.110   .     S
C266   C267    1.534   .     S
C266   H296    1.106   .     S
C266   C973    1.518   1_554 S
C266   H1015   1.111   1_554 S
C267   H293    1.112   .     S
C267   C428    1.527   1_455 S
C267   H1014   1.111   1_554 S
C268   H291    1.112   .     S
C268   H290    1.111   .     S
C268   H292    1.110   .     S
C268   C347    1.527   .     S
C269   C270    1.423   .     A
C269   C984    1.431   .     S
C269   C991    1.427   .     S
C270   C274    1.412   .     A
C271   C989    1.427   1_554 S
C271   C992    1.422   1_554 S
C272   C273    1.388   .     A
C272   C976    1.401   .     S
C272   C991    1.422   .     S
C273   C274    1.382   .     A
C273   H297    1.084   .     S
C274   H301    1.081   .     S
H277   C501    1.110   .     S
H282   C505    1.111   .     S
H283   C505    1.111   .     S
H286   C328    1.086   .     S
H294   C987    1.111   .     S
H295   C986    1.111   .     S
H298   C976    1.083   .     S
H302   C407    1.088   1_455 S
O304   Zn317   1.959   .     S
O304   Zn320   1.934   .     S
O304   Zn319   1.926   .     S
O304   Zn318   1.956   .     S
O305   Zn318   1.924   .     S
O306   Zn320   1.938   .     S
O307   Zn319   1.939   .     S
O308   Zn317   1.926   .     S
O309   Zn317   1.944   .     S
O310   Zn320   1.941   .     S
O311   Zn318   1.918   .     S
O312   Zn319   1.932   .     S
O313   Zn320   1.929   .     S
O314   Zn317   1.915   .     S
O315   Zn318   1.946   .     S
O316   Zn319   1.945   .     S
Br321  C344    1.941   .     S
C322   O393    1.275   .     A
C322   O391    1.275   .     A
C322   C328    1.435   .     S
C323   C351    1.404   .     A
C323   C337    1.393   .     A
C323   H379    1.080   .     S
C324   H355    1.084   .     S
C324   C336    1.388   .     A
C324   C337    1.396   .     A
C325   O392    1.280   .     A
C325   O394    1.276   .     A
C325   C327    1.453   .     S
C326   C335    1.476   .     S
C326   C338    1.397   .     A
C326   C350    1.413   .     A
C327   C408    1.334   .     S
C327   H462    1.088   .     S
C329   C332    1.478   .     S
C329   C570    1.372   .     S
C329   C579    1.549   .     S
C330   C331    1.437   .     S
C331   O389    1.272   .     A
C331   O395    1.275   .     A
C332   O396    1.273   .     A
C332   O390    1.271   .     A
C333   C338    1.398   .     A
C333   C1064   1.415   .     S
C333   C1066   1.518   .     S
C334   O387    1.271   .     A
C334   C337    1.446   .     S
C334   O385    1.277   .     A
C335   O386    1.286   .     A
C335   O388    1.283   .     A
C336   C1072   1.401   1_554 S
C336   H1098   1.083   1_554 S
C338   H380    1.084   .     S
C339   H360    1.112   .     S
C339   H361    1.113   .     S
C340   H359    1.112   .     S
C340   H358    1.111   .     S
C340   C579    1.537   .     S
C340   C581    1.528   .     S
C341   H356    1.111   .     S
C341   H383    1.111   .     S
C342   H368    1.112   .     S
C342   H369    1.112   .     S
C342   C570    1.536   .     S
C342   C583    1.542   .     S
C343   H365    1.112   .     S
C343   H367    1.112   .     S
C343   C345    1.527   .     S
C344   C1053   1.415   1_554 S
C344   C1069   1.431   1_554 S
C345   H364    1.110   .     S
C346   C347    1.534   .     S
C346   H376    1.106   .     S
C346   C1053   1.518   1_554 S
C346   H1095   1.111   1_554 S
C347   H373    1.112   .     S
C347   H1094   1.111   1_554 S
C348   H371    1.112   .     S
C348   H370    1.111   .     S
C348   H372    1.110   .     S
C348   C427    1.527   .     S
C349   C350    1.423   .     A
C349   C1064   1.431   .     S
C349   C1071   1.427   .     S
C350   C354    1.412   .     A
C351   C1069   1.427   1_554 S
C351   C1072   1.422   1_554 S
C352   C353    1.388   .     A
C352   C1056   1.401   .     S
C352   C1071   1.422   .     S
C353   C354    1.382   .     A
C353   H377    1.084   .     S
C354   H381    1.081   .     S
H357   C581    1.110   .     S
H362   C585    1.111   .     S
H363   C585    1.111   .     S
H366   C408    1.086   .     S
H374   C1067   1.111   .     S
H375   C1066   1.111   .     S
H378   C1056   1.083   .     S
O384   Zn397   1.959   .     S
O384   Zn400   1.934   .     S
O384   Zn399   1.926   .     S
O384   Zn398   1.956   .     S
O385   Zn398   1.924   .     S
O386   Zn400   1.938   .     S
O387   Zn399   1.939   .     S
O388   Zn397   1.926   .     S
O389   Zn397   1.944   .     S
O390   Zn400   1.941   .     S
O391   Zn398   1.918   .     S
O392   Zn399   1.932   .     S
O393   Zn400   1.929   .     S
O394   Zn397   1.915   .     S
O395   Zn398   1.946   .     S
O396   Zn399   1.945   .     S
Br401  C424    1.941   .     S
C402   O473    1.275   .     A
C402   O471    1.275   .     A
C402   C408    1.435   .     S
C403   C431    1.404   .     A
C403   C417    1.393   .     A
C403   H459    1.080   .     S
C404   H435    1.084   .     S
C404   C416    1.388   .     A
C404   C417    1.396   .     A
C405   O472    1.280   .     A
C405   O474    1.276   .     A
C405   C407    1.453   .     S
C406   C415    1.476   .     S
C406   C418    1.397   .     A
C406   C430    1.413   .     A
C407   C248    1.334   1_655 S
C407   H302    1.088   1_655 S
C409   C412    1.478   .     S
C409   C650    1.372   .     S
C409   C659    1.549   .     S
C410   C411    1.437   .     S
C411   O469    1.272   .     A
C411   O475    1.275   .     A
C412   O476    1.273   .     A
C412   O470    1.271   .     A
C413   C418    1.398   .     A
C413   C1144   1.415   .     S
C413   C1146   1.518   .     S
C414   O467    1.271   .     A
C414   C417    1.446   .     S
C414   O465    1.277   .     A
C415   O466    1.286   .     A
C415   O468    1.283   .     A
C416   C1152   1.401   1_554 S
C416   H1178   1.083   1_554 S
C418   H460    1.084   .     S
C419   H440    1.112   .     S
C419   H441    1.113   .     S
C420   H439    1.112   .     S
C420   H438    1.111   .     S
C420   C659    1.537   .     S
C420   C661    1.528   .     S
C421   H436    1.111   .     S
C421   H463    1.111   .     S
C422   H448    1.112   .     S
C422   H449    1.112   .     S
C422   C650    1.536   .     S
C422   C663    1.542   .     S
C423   H445    1.112   .     S
C423   H447    1.112   .     S
C423   C425    1.527   .     S
C424   C1133   1.415   1_554 S
C424   C1149   1.431   1_554 S
C425   H444    1.110   .     S
C426   C427    1.534   .     S
C426   H456    1.106   .     S
C426   C1133   1.518   1_554 S
C426   H1175   1.111   1_554 S
C427   H453    1.112   .     S
C427   H1174   1.111   1_554 S
C428   H451    1.112   .     S
C428   H450    1.111   .     S
C428   H452    1.110   .     S
C428   C267    1.527   1_655 S
C429   C430    1.423   .     A
C429   C1144   1.431   .     S
C429   C1151   1.427   .     S
C430   C434    1.412   .     A
C431   C1149   1.427   1_554 S
C431   C1152   1.422   1_554 S
C432   C433    1.388   .     A
C432   C1136   1.401   .     S
C432   C1151   1.422   .     S
C433   C434    1.382   .     A
C433   H457    1.084   .     S
C434   H461    1.081   .     S
H437   C661    1.110   .     S
H442   C665    1.111   .     S
H443   C665    1.111   .     S
H446   C248    1.086   1_655 S
H454   C1147   1.111   .     S
H455   C1146   1.111   .     S
H458   C1136   1.083   .     S
O464   Zn477   1.959   .     S
O464   Zn480   1.934   .     S
O464   Zn479   1.926   .     S
O464   Zn478   1.956   .     S
O465   Zn478   1.924   .     S
O466   Zn480   1.938   .     S
O467   Zn479   1.939   .     S
O468   Zn477   1.926   .     S
O469   Zn477   1.944   .     S
O470   Zn480   1.941   .     S
O471   Zn478   1.918   .     S
O472   Zn479   1.932   .     S
O473   Zn480   1.929   .     S
O474   Zn477   1.915   .     S
O475   Zn478   1.946   .     S
O476   Zn479   1.945   .     S
Br481  C504    1.941   .     S
C482   O553    1.275   .     A
C482   O551    1.275   .     A
C482   C488    1.435   .     S
C483   C511    1.404   .     A
C483   C497    1.393   .     A
C483   H539    1.080   .     S
C484   H515    1.084   .     S
C484   C496    1.388   .     A
C484   C497    1.396   .     A
C485   O552    1.280   .     A
C485   O554    1.276   .     A
C485   C487    1.453   .     S
C486   C495    1.476   .     S
C486   C498    1.397   .     A
C486   C510    1.413   .     A
C487   C568    1.334   .     S
C487   H622    1.088   .     S
C488   C647    1.334   1_455 S
C488   H686    1.086   1_455 S
C489   C492    1.478   .     S
C489   C10     1.372   1_565 S
C489   C19     1.549   1_565 S
C490   C491    1.437   .     S
C491   O549    1.272   .     A
C491   O555    1.275   .     A
C492   O556    1.273   .     A
C492   O550    1.271   .     A
C493   C498    1.398   .     A
C493   C1224   1.415   .     S
C493   C1226   1.518   .     S
C494   O547    1.271   .     A
C494   C497    1.446   .     S
C494   O545    1.277   .     A
C495   O546    1.286   .     A
C495   O548    1.283   .     A
C496   C1232   1.401   1_554 S
C496   H1258   1.083   1_554 S
C498   H540    1.084   .     S
C499   H520    1.112   .     S
C499   H521    1.113   .     S
C500   H519    1.112   .     S
C500   H518    1.111   .     S
C500   C19     1.537   1_565 S
C500   C21     1.528   1_565 S
C501   H516    1.111   .     S
C501   H543    1.111   .     S
C502   H528    1.112   .     S
C502   H529    1.112   .     S
C502   C10     1.536   1_565 S
C502   C23     1.542   1_565 S
C503   H525    1.112   .     S
C503   H527    1.112   .     S
C503   C505    1.527   .     S
C504   C1213   1.415   1_554 S
C504   C1229   1.431   1_554 S
C505   H524    1.110   .     S
C506   C507    1.534   .     S
C506   H536    1.106   .     S
C506   C1213   1.518   1_554 S
C506   H1255   1.111   1_554 S
C507   H533    1.112   .     S
C507   C668    1.527   1_455 S
C507   H1254   1.111   1_554 S
C508   H531    1.112   .     S
C508   H530    1.111   .     S
C508   H532    1.110   .     S
C508   C587    1.527   .     S
C509   C510    1.423   .     A
C509   C1224   1.431   .     S
C509   C1231   1.427   .     S
C510   C514    1.412   .     A
C511   C1229   1.427   1_554 S
C511   C1232   1.422   1_554 S
C512   C513    1.388   .     A
C512   C1216   1.401   .     S
C512   C1231   1.422   .     S
C513   C514    1.382   .     A
C513   H537    1.084   .     S
C514   H541    1.081   .     S
H517   C21     1.110   1_565 S
H522   C25     1.111   1_565 S
H523   C25     1.111   1_565 S
H526   C568    1.086   .     S
H534   C1227   1.111   .     S
H535   C1226   1.111   .     S
H538   C1216   1.083   .     S
H542   C647    1.088   1_455 S
O544   Zn557   1.959   .     S
O544   Zn560   1.934   .     S
O544   Zn559   1.926   .     S
O544   Zn558   1.956   .     S
O545   Zn558   1.924   .     S
O546   Zn560   1.938   .     S
O547   Zn559   1.939   .     S
O548   Zn557   1.926   .     S
O549   Zn557   1.944   .     S
O550   Zn560   1.941   .     S
O551   Zn558   1.918   .     S
O552   Zn559   1.932   .     S
O553   Zn560   1.929   .     S
O554   Zn557   1.915   .     S
O555   Zn558   1.946   .     S
O556   Zn559   1.945   .     S
Br561  C584    1.941   .     S
C562   O633    1.275   .     A
C562   O631    1.275   .     A
C562   C568    1.435   .     S
C563   C591    1.404   .     A
C563   C577    1.393   .     A
C563   H619    1.080   .     S
C564   H595    1.084   .     S
C564   C576    1.388   .     A
C564   C577    1.396   .     A
C565   O632    1.280   .     A
C565   O634    1.276   .     A
C565   C567    1.453   .     S
C566   C575    1.476   .     S
C566   C578    1.397   .     A
C566   C590    1.413   .     A
C567   C648    1.334   .     S
C567   H702    1.088   .     S
C569   C572    1.478   .     S
C569   C90     1.372   1_565 S
C569   C99     1.549   1_565 S
C570   C571    1.437   .     S
C571   O629    1.272   .     A
C571   O635    1.275   .     A
C572   O636    1.273   .     A
C572   O630    1.271   .     A
C573   C578    1.398   .     A
C573   C1304   1.415   .     S
C573   C1306   1.518   .     S
C574   O627    1.271   .     A
C574   C577    1.446   .     S
C574   O625    1.277   .     A
C575   O626    1.286   .     A
C575   O628    1.283   .     A
C576   C1312   1.401   1_554 S
C576   H1338   1.083   1_554 S
C578   H620    1.084   .     S
C579   H600    1.112   .     S
C579   H601    1.113   .     S
C580   H599    1.112   .     S
C580   H598    1.111   .     S
C580   C99     1.537   1_565 S
C580   C101    1.528   1_565 S
C581   H596    1.111   .     S
C581   H623    1.111   .     S
C582   H608    1.112   .     S
C582   H609    1.112   .     S
C582   C90     1.536   1_565 S
C582   C103    1.542   1_565 S
C583   H605    1.112   .     S
C583   H607    1.112   .     S
C583   C585    1.527   .     S
C584   C1293   1.415   1_554 S
C584   C1309   1.431   1_554 S
C585   H604    1.110   .     S
C586   C587    1.534   .     S
C586   H616    1.106   .     S
C586   C1293   1.518   1_554 S
C586   H1335   1.111   1_554 S
C587   H613    1.112   .     S
C587   H1334   1.111   1_554 S
C588   H611    1.112   .     S
C588   H610    1.111   .     S
C588   H612    1.110   .     S
C588   C667    1.527   .     S
C589   C590    1.423   .     A
C589   C1304   1.431   .     S
C589   C1311   1.427   .     S
C590   C594    1.412   .     A
C591   C1309   1.427   1_554 S
C591   C1312   1.422   1_554 S
C592   C593    1.388   .     A
C592   C1296   1.401   .     S
C592   C1311   1.422   .     S
C593   C594    1.382   .     A
C593   H617    1.084   .     S
C594   H621    1.081   .     S
H597   C101    1.110   1_565 S
H602   C105    1.111   1_565 S
H603   C105    1.111   1_565 S
H606   C648    1.086   .     S
H614   C1307   1.111   .     S
H615   C1306   1.111   .     S
H618   C1296   1.083   .     S
O624   Zn637   1.959   .     S
O624   Zn640   1.934   .     S
O624   Zn639   1.926   .     S
O624   Zn638   1.956   .     S
O625   Zn638   1.924   .     S
O626   Zn640   1.938   .     S
O627   Zn639   1.939   .     S
O628   Zn637   1.926   .     S
O629   Zn637   1.944   .     S
O630   Zn640   1.941   .     S
O631   Zn638   1.918   .     S
O632   Zn639   1.932   .     S
O633   Zn640   1.929   .     S
O634   Zn637   1.915   .     S
O635   Zn638   1.946   .     S
O636   Zn639   1.945   .     S
Br641  C664    1.941   .     S
C642   O713    1.275   .     A
C642   O711    1.275   .     A
C642   C648    1.435   .     S
C643   C671    1.404   .     A
C643   C657    1.393   .     A
C643   H699    1.080   .     S
C644   H675    1.084   .     S
C644   C656    1.388   .     A
C644   C657    1.396   .     A
C645   O712    1.280   .     A
C645   O714    1.276   .     A
C645   C647    1.453   .     S
C646   C655    1.476   .     S
C646   C658    1.397   .     A
C646   C670    1.413   .     A
C647   C488    1.334   1_655 S
C647   H542    1.088   1_655 S
C649   C652    1.478   .     S
C649   C170    1.372   1_565 S
C649   C179    1.549   1_565 S
C650   C651    1.437   .     S
C651   O709    1.272   .     A
C651   O715    1.275   .     A
C652   O716    1.273   .     A
C652   O710    1.271   .     A
C653   C658    1.398   .     A
C653   C1384   1.415   .     S
C653   C1386   1.518   .     S
C654   O707    1.271   .     A
C654   C657    1.446   .     S
C654   O705    1.277   .     A
C655   O706    1.286   .     A
C655   O708    1.283   .     A
C656   C1392   1.401   1_554 S
C656   H1418   1.083   1_554 S
C658   H700    1.084   .     S
C659   H680    1.112   .     S
C659   H681    1.113   .     S
C660   H679    1.112   .     S
C660   H678    1.111   .     S
C660   C179    1.537   1_565 S
C660   C181    1.528   1_565 S
C661   H676    1.111   .     S
C661   H703    1.111   .     S
C662   H688    1.112   .     S
C662   H689    1.112   .     S
C662   C170    1.536   1_565 S
C662   C183    1.542   1_565 S
C663   H685    1.112   .     S
C663   H687    1.112   .     S
C663   C665    1.527   .     S
C664   C1373   1.415   1_554 S
C664   C1389   1.431   1_554 S
C665   H684    1.110   .     S
C666   C667    1.534   .     S
C666   H696    1.106   .     S
C666   C1373   1.518   1_554 S
C666   H1415   1.111   1_554 S
C667   H693    1.112   .     S
C667   H1414   1.111   1_554 S
C668   H691    1.112   .     S
C668   H690    1.111   .     S
C668   H692    1.110   .     S
C668   C507    1.527   1_655 S
C669   C670    1.423   .     A
C669   C1384   1.431   .     S
C669   C1391   1.427   .     S
C670   C674    1.412   .     A
C671   C1389   1.427   1_554 S
C671   C1392   1.422   1_554 S
C672   C673    1.388   .     A
C672   C1376   1.401   .     S
C672   C1391   1.422   .     S
C673   C674    1.382   .     A
C673   H697    1.084   .     S
C674   H701    1.081   .     S
H677   C181    1.110   1_565 S
H682   C185    1.111   1_565 S
H683   C185    1.111   1_565 S
H686   C488    1.086   1_655 S
H694   C1387   1.111   .     S
H695   C1386   1.111   .     S
H698   C1376   1.083   .     S
O704   Zn717   1.959   .     S
O704   Zn720   1.934   .     S
O704   Zn719   1.926   .     S
O704   Zn718   1.956   .     S
O705   Zn718   1.924   .     S
O706   Zn720   1.938   .     S
O707   Zn719   1.939   .     S
O708   Zn717   1.926   .     S
O709   Zn717   1.944   .     S
O710   Zn720   1.941   .     S
O711   Zn718   1.918   .     S
O712   Zn719   1.932   .     S
O713   Zn720   1.929   .     S
O714   Zn717   1.915   .     S
O715   Zn718   1.946   .     S
O716   Zn719   1.945   .     S
Br721  C744    1.941   .     S
C722   O793    1.275   .     A
C722   O791    1.275   .     A
C722   C728    1.435   .     S
C723   C751    1.404   .     A
C723   C737    1.393   .     A
C723   H779    1.080   .     S
C724   H755    1.084   .     S
C724   C736    1.388   .     A
C724   C737    1.396   .     A
C725   O792    1.280   .     A
C725   O794    1.276   .     A
C725   C727    1.453   .     S
C726   C735    1.476   .     S
C726   C738    1.397   .     A
C726   C750    1.413   .     A
C727   C808    1.334   .     S
C727   H862    1.088   .     S
C728   C887    1.334   1_455 S
C728   H926    1.086   1_455 S
C729   C732    1.478   .     S
C729   C970    1.372   .     S
C729   C979    1.549   .     S
C730   C731    1.437   .     S
C730   C1209   1.372   1_545 S
C730   C1222   1.536   1_545 S
C731   O789    1.272   .     A
C731   O795    1.275   .     A
C732   O796    1.273   .     A
C732   O790    1.271   .     A
C733   C738    1.398   .     A
C733   C24     1.415   1_556 S
C733   C26     1.518   1_556 S
C734   O787    1.271   .     A
C734   C737    1.446   .     S
C734   O785    1.277   .     A
C735   O786    1.286   .     A
C735   O788    1.283   .     A
C738   H780    1.084   .     S
C739   H760    1.112   .     S
C739   H761    1.113   .     S
C739   C1209   1.549   1_545 S
C739   C1220   1.537   1_545 S
C740   H759    1.112   .     S
C740   H758    1.111   .     S
C740   C979    1.537   .     S
C740   C981    1.528   .     S
C741   H756    1.111   .     S
C741   H783    1.111   .     S
C741   C1220   1.528   1_545 S
C741   H1237   1.110   1_545 S
C742   H768    1.112   .     S
C742   H769    1.112   .     S
C742   C970    1.536   .     S
C742   C983    1.542   .     S
C743   H765    1.112   .     S
C743   H767    1.112   .     S
C743   C745    1.527   .     S
C743   C1222   1.542   1_545 S
C745   H764    1.110   .     S
C745   H1242   1.111   1_545 S
C745   H1243   1.111   1_545 S
C746   C747    1.534   .     S
C746   H776    1.106   .     S
C747   H773    1.112   .     S
C747   C908    1.527   1_455 S
C748   H771    1.112   .     S
C748   H770    1.111   .     S
C748   H772    1.110   .     S
C748   C827    1.527   .     S
C749   C750    1.423   .     A
C749   C24     1.431   1_556 S
C749   C31     1.427   1_556 S
C750   C754    1.412   .     A
C752   C753    1.388   .     A
C752   C16     1.401   1_556 S
C752   C31     1.422   1_556 S
C753   C754    1.382   .     A
C753   H777    1.084   .     S
C754   H781    1.081   .     S
H757   C981    1.110   .     S
H762   C985    1.111   .     S
H763   C985    1.111   .     S
H766   C808    1.086   .     S
H774   C27     1.111   1_556 S
H775   C26     1.111   1_556 S
H778   C16     1.083   1_556 S
H782   C887    1.088   1_455 S
O784   Zn797   1.959   .     S
O784   Zn800   1.934   .     S
O784   Zn799   1.926   .     S
O784   Zn798   1.956   .     S
O785   Zn798   1.924   .     S
O786   Zn800   1.938   .     S
O787   Zn799   1.939   .     S
O788   Zn797   1.926   .     S
O789   Zn797   1.944   .     S
O790   Zn800   1.941   .     S
O791   Zn798   1.918   .     S
O792   Zn799   1.932   .     S
O793   Zn800   1.929   .     S
O794   Zn797   1.915   .     S
O795   Zn798   1.946   .     S
O796   Zn799   1.945   .     S
Br801  C824    1.941   .     S
C802   O873    1.275   .     A
C802   O871    1.275   .     A
C802   C808    1.435   .     S
C803   C831    1.404   .     A
C803   C817    1.393   .     A
C803   H859    1.080   .     S
C804   H835    1.084   .     S
C804   C816    1.388   .     A
C804   C817    1.396   .     A
C805   O872    1.280   .     A
C805   O874    1.276   .     A
C805   C807    1.453   .     S
C806   C815    1.476   .     S
C806   C818    1.397   .     A
C806   C830    1.413   .     A
C807   C888    1.334   .     S
C807   H942    1.088   .     S
C809   C812    1.478   .     S
C809   C1050   1.372   .     S
C809   C1059   1.549   .     S
C810   C811    1.437   .     S
C810   C1289   1.372   1_545 S
C810   C1302   1.536   1_545 S
C811   O869    1.272   .     A
C811   O875    1.275   .     A
C812   O876    1.273   .     A
C812   O870    1.271   .     A
C813   C818    1.398   .     A
C813   C104    1.415   1_556 S
C813   C106    1.518   1_556 S
C814   O867    1.271   .     A
C814   C817    1.446   .     S
C814   O865    1.277   .     A
C815   O866    1.286   .     A
C815   O868    1.283   .     A
C818   H860    1.084   .     S
C819   H840    1.112   .     S
C819   H841    1.113   .     S
C819   C1289   1.549   1_545 S
C819   C1300   1.537   1_545 S
C820   H839    1.112   .     S
C820   H838    1.111   .     S
C820   C1059   1.537   .     S
C820   C1061   1.528   .     S
C821   H836    1.111   .     S
C821   H863    1.111   .     S
C821   C1300   1.528   1_545 S
C821   H1317   1.110   1_545 S
C822   H848    1.112   .     S
C822   H849    1.112   .     S
C822   C1050   1.536   .     S
C822   C1063   1.542   .     S
C823   H845    1.112   .     S
C823   H847    1.112   .     S
C823   C825    1.527   .     S
C823   C1302   1.542   1_545 S
C825   H844    1.110   .     S
C825   H1322   1.111   1_545 S
C825   H1323   1.111   1_545 S
C826   C827    1.534   .     S
C826   H856    1.106   .     S
C827   H853    1.112   .     S
C828   H851    1.112   .     S
C828   H850    1.111   .     S
C828   H852    1.110   .     S
C828   C907    1.527   .     S
C829   C830    1.423   .     A
C829   C104    1.431   1_556 S
C829   C111    1.427   1_556 S
C830   C834    1.412   .     A
C832   C833    1.388   .     A
C832   C96     1.401   1_556 S
C832   C111    1.422   1_556 S
C833   C834    1.382   .     A
C833   H857    1.084   .     S
C834   H861    1.081   .     S
H837   C1061   1.110   .     S
H842   C1065   1.111   .     S
H843   C1065   1.111   .     S
H846   C888    1.086   .     S
H854   C107    1.111   1_556 S
H855   C106    1.111   1_556 S
H858   C96     1.083   1_556 S
O864   Zn877   1.959   .     S
O864   Zn880   1.934   .     S
O864   Zn879   1.926   .     S
O864   Zn878   1.956   .     S
O865   Zn878   1.924   .     S
O866   Zn880   1.938   .     S
O867   Zn879   1.939   .     S
O868   Zn877   1.926   .     S
O869   Zn877   1.944   .     S
O870   Zn880   1.941   .     S
O871   Zn878   1.918   .     S
O872   Zn879   1.932   .     S
O873   Zn880   1.929   .     S
O874   Zn877   1.915   .     S
O875   Zn878   1.946   .     S
O876   Zn879   1.945   .     S
Br881  C904    1.941   .     S
C882   O953    1.275   .     A
C882   O951    1.275   .     A
C882   C888    1.435   .     S
C883   C911    1.404   .     A
C883   C897    1.393   .     A
C883   H939    1.080   .     S
C884   H915    1.084   .     S
C884   C896    1.388   .     A
C884   C897    1.396   .     A
C885   O952    1.280   .     A
C885   O954    1.276   .     A
C885   C887    1.453   .     S
C886   C895    1.476   .     S
C886   C898    1.397   .     A
C886   C910    1.413   .     A
C887   C728    1.334   1_655 S
C887   H782    1.088   1_655 S
C889   C892    1.478   .     S
C889   C1130   1.372   .     S
C889   C1139   1.549   .     S
C890   C891    1.437   .     S
C890   C1369   1.372   1_545 S
C890   C1382   1.536   1_545 S
C891   O949    1.272   .     A
C891   O955    1.275   .     A
C892   O956    1.273   .     A
C892   O950    1.271   .     A
C893   C898    1.398   .     A
C893   C184    1.415   1_556 S
C893   C186    1.518   1_556 S
C894   O947    1.271   .     A
C894   C897    1.446   .     S
C894   O945    1.277   .     A
C895   O946    1.286   .     A
C895   O948    1.283   .     A
C898   H940    1.084   .     S
C899   H920    1.112   .     S
C899   H921    1.113   .     S
C899   C1369   1.549   1_545 S
C899   C1380   1.537   1_545 S
C900   H919    1.112   .     S
C900   H918    1.111   .     S
C900   C1139   1.537   .     S
C900   C1141   1.528   .     S
C901   H916    1.111   .     S
C901   H943    1.111   .     S
C901   C1380   1.528   1_545 S
C901   H1397   1.110   1_545 S
C902   H928    1.112   .     S
C902   H929    1.112   .     S
C902   C1130   1.536   .     S
C902   C1143   1.542   .     S
C903   H925    1.112   .     S
C903   H927    1.112   .     S
C903   C905    1.527   .     S
C903   C1382   1.542   1_545 S
C905   H924    1.110   .     S
C905   H1402   1.111   1_545 S
C905   H1403   1.111   1_545 S
C906   C907    1.534   .     S
C906   H936    1.106   .     S
C907   H933    1.112   .     S
C908   H931    1.112   .     S
C908   H930    1.111   .     S
C908   H932    1.110   .     S
C908   C747    1.527   1_655 S
C909   C910    1.423   .     A
C909   C184    1.431   1_556 S
C909   C191    1.427   1_556 S
C910   C914    1.412   .     A
C912   C913    1.388   .     A
C912   C176    1.401   1_556 S
C912   C191    1.422   1_556 S
C913   C914    1.382   .     A
C913   H937    1.084   .     S
C914   H941    1.081   .     S
H917   C1141   1.110   .     S
H922   C1145   1.111   .     S
H923   C1145   1.111   .     S
H926   C728    1.086   1_655 S
H934   C187    1.111   1_556 S
H935   C186    1.111   1_556 S
H938   C176    1.083   1_556 S
O944   Zn957   1.959   .     S
O944   Zn960   1.934   .     S
O944   Zn959   1.926   .     S
O944   Zn958   1.956   .     S
O945   Zn958   1.924   .     S
O946   Zn960   1.938   .     S
O947   Zn959   1.939   .     S
O948   Zn957   1.926   .     S
O949   Zn957   1.944   .     S
O950   Zn960   1.941   .     S
O951   Zn958   1.918   .     S
O952   Zn959   1.932   .     S
O953   Zn960   1.929   .     S
O954   Zn957   1.915   .     S
O955   Zn958   1.946   .     S
O956   Zn959   1.945   .     S
Br961  C984    1.941   .     S
C962   O1033   1.275   .     A
C962   O1031   1.275   .     A
C962   C968    1.435   .     S
C963   C991    1.404   .     A
C963   C977    1.393   .     A
C963   H1019   1.080   .     S
C964   H995    1.084   .     S
C964   C976    1.388   .     A
C964   C977    1.396   .     A
C965   O1032   1.280   .     A
C965   O1034   1.276   .     A
C965   C967    1.453   .     S
C966   C975    1.476   .     S
C966   C978    1.397   .     A
C966   C990    1.413   .     A
C967   C1048   1.334   .     S
C967   H1102   1.088   .     S
C968   C1127   1.334   1_455 S
C968   H1166   1.086   1_455 S
C969   C972    1.478   .     S
C969   C1210   1.372   .     S
C969   C1219   1.549   .     S
C970   C971    1.437   .     S
C971   O1029   1.272   .     A
C971   O1035   1.275   .     A
C972   O1036   1.273   .     A
C972   O1030   1.271   .     A
C973   C978    1.398   .     A
C973   C264    1.415   1_556 S
C973   C266    1.518   1_556 S
C974   O1027   1.271   .     A
C974   C977    1.446   .     S
C974   O1025   1.277   .     A
C975   O1026   1.286   .     A
C975   O1028   1.283   .     A
C978   H1020   1.084   .     S
C979   H1000   1.112   .     S
C979   H1001   1.113   .     S
C980   H999    1.112   .     S
C980   H998    1.111   .     S
C980   C1219   1.537   .     S
C980   C1221   1.528   .     S
C981   H996    1.111   .     S
C981   H1023   1.111   .     S
C982   H1008   1.112   .     S
C982   H1009   1.112   .     S
C982   C1210   1.536   .     S
C982   C1223   1.542   .     S
C983   H1005   1.112   .     S
C983   H1007   1.112   .     S
C983   C985    1.527   .     S
C985   H1004   1.110   .     S
C986   C987    1.534   .     S
C986   H1016   1.106   .     S
C987   H1013   1.112   .     S
C987   C1148   1.527   1_455 S
C988   H1011   1.112   .     S
C988   H1010   1.111   .     S
C988   H1012   1.110   .     S
C988   C1067   1.527   .     S
C989   C990    1.423   .     A
C989   C264    1.431   1_556 S
C989   C271    1.427   1_556 S
C990   C994    1.412   .     A
C992   C993    1.388   .     A
C992   C256    1.401   1_556 S
C992   C271    1.422   1_556 S
C993   C994    1.382   .     A
C993   H1017   1.084   .     S
C994   H1021   1.081   .     S
H997   C1221   1.110   .     S
H1002  C1225   1.111   .     S
H1003  C1225   1.111   .     S
H1006  C1048   1.086   .     S
H1014  C267    1.111   1_556 S
H1015  C266    1.111   1_556 S
H1018  C256    1.083   1_556 S
H1022  C1127   1.088   1_455 S
O1024  Zn1037  1.959   .     S
O1024  Zn1040  1.934   .     S
O1024  Zn1039  1.926   .     S
O1024  Zn1038  1.956   .     S
O1025  Zn1038  1.924   .     S
O1026  Zn1040  1.938   .     S
O1027  Zn1039  1.939   .     S
O1028  Zn1037  1.926   .     S
O1029  Zn1037  1.944   .     S
O1030  Zn1040  1.941   .     S
O1031  Zn1038  1.918   .     S
O1032  Zn1039  1.932   .     S
O1033  Zn1040  1.929   .     S
O1034  Zn1037  1.915   .     S
O1035  Zn1038  1.946   .     S
O1036  Zn1039  1.945   .     S
Br1041 C1064   1.941   .     S
C1042  O1113   1.275   .     A
C1042  O1111   1.275   .     A
C1042  C1048   1.435   .     S
C1043  C1071   1.404   .     A
C1043  C1057   1.393   .     A
C1043  H1099   1.080   .     S
C1044  H1075   1.084   .     S
C1044  C1056   1.388   .     A
C1044  C1057   1.396   .     A
C1045  O1112   1.280   .     A
C1045  O1114   1.276   .     A
C1045  C1047   1.453   .     S
C1046  C1055   1.476   .     S
C1046  C1058   1.397   .     A
C1046  C1070   1.413   .     A
C1047  C1128   1.334   .     S
C1047  H1182   1.088   .     S
C1049  C1052   1.478   .     S
C1049  C1290   1.372   .     S
C1049  C1299   1.549   .     S
C1050  C1051   1.437   .     S
C1051  O1109   1.272   .     A
C1051  O1115   1.275   .     A
C1052  O1116   1.273   .     A
C1052  O1110   1.271   .     A
C1053  C1058   1.398   .     A
C1053  C344    1.415   1_556 S
C1053  C346    1.518   1_556 S
C1054  O1107   1.271   .     A
C1054  C1057   1.446   .     S
C1054  O1105   1.277   .     A
C1055  O1106   1.286   .     A
C1055  O1108   1.283   .     A
C1058  H1100   1.084   .     S
C1059  H1080   1.112   .     S
C1059  H1081   1.113   .     S
C1060  H1079   1.112   .     S
C1060  H1078   1.111   .     S
C1060  C1299   1.537   .     S
C1060  C1301   1.528   .     S
C1061  H1076   1.111   .     S
C1061  H1103   1.111   .     S
C1062  H1088   1.112   .     S
C1062  H1089   1.112   .     S
C1062  C1290   1.536   .     S
C1062  C1303   1.542   .     S
C1063  H1085   1.112   .     S
C1063  H1087   1.112   .     S
C1063  C1065   1.527   .     S
C1065  H1084   1.110   .     S
C1066  C1067   1.534   .     S
C1066  H1096   1.106   .     S
C1067  H1093   1.112   .     S
C1068  H1091   1.112   .     S
C1068  H1090   1.111   .     S
C1068  H1092   1.110   .     S
C1068  C1147   1.527   .     S
C1069  C1070   1.423   .     A
C1069  C344    1.431   1_556 S
C1069  C351    1.427   1_556 S
C1070  C1074   1.412   .     A
C1072  C1073   1.388   .     A
C1072  C336    1.401   1_556 S
C1072  C351    1.422   1_556 S
C1073  C1074   1.382   .     A
C1073  H1097   1.084   .     S
C1074  H1101   1.081   .     S
H1077  C1301   1.110   .     S
H1082  C1305   1.111   .     S
H1083  C1305   1.111   .     S
H1086  C1128   1.086   .     S
H1094  C347    1.111   1_556 S
H1095  C346    1.111   1_556 S
H1098  C336    1.083   1_556 S
O1104  Zn1117  1.959   .     S
O1104  Zn1120  1.934   .     S
O1104  Zn1119  1.926   .     S
O1104  Zn1118  1.956   .     S
O1105  Zn1118  1.924   .     S
O1106  Zn1120  1.938   .     S
O1107  Zn1119  1.939   .     S
O1108  Zn1117  1.926   .     S
O1109  Zn1117  1.944   .     S
O1110  Zn1120  1.941   .     S
O1111  Zn1118  1.918   .     S
O1112  Zn1119  1.932   .     S
O1113  Zn1120  1.929   .     S
O1114  Zn1117  1.915   .     S
O1115  Zn1118  1.946   .     S
O1116  Zn1119  1.945   .     S
Br1121 C1144   1.941   .     S
C1122  O1193   1.275   .     A
C1122  O1191   1.275   .     A
C1122  C1128   1.435   .     S
C1123  C1151   1.404   .     A
C1123  C1137   1.393   .     A
C1123  H1179   1.080   .     S
C1124  H1155   1.084   .     S
C1124  C1136   1.388   .     A
C1124  C1137   1.396   .     A
C1125  O1192   1.280   .     A
C1125  O1194   1.276   .     A
C1125  C1127   1.453   .     S
C1126  C1135   1.476   .     S
C1126  C1138   1.397   .     A
C1126  C1150   1.413   .     A
C1127  C968    1.334   1_655 S
C1127  H1022   1.088   1_655 S
C1129  C1132   1.478   .     S
C1129  C1370   1.372   .     S
C1129  C1379   1.549   .     S
C1130  C1131   1.437   .     S
C1131  O1189   1.272   .     A
C1131  O1195   1.275   .     A
C1132  O1196   1.273   .     A
C1132  O1190   1.271   .     A
C1133  C1138   1.398   .     A
C1133  C424    1.415   1_556 S
C1133  C426    1.518   1_556 S
C1134  O1187   1.271   .     A
C1134  C1137   1.446   .     S
C1134  O1185   1.277   .     A
C1135  O1186   1.286   .     A
C1135  O1188   1.283   .     A
C1138  H1180   1.084   .     S
C1139  H1160   1.112   .     S
C1139  H1161   1.113   .     S
C1140  H1159   1.112   .     S
C1140  H1158   1.111   .     S
C1140  C1379   1.537   .     S
C1140  C1381   1.528   .     S
C1141  H1156   1.111   .     S
C1141  H1183   1.111   .     S
C1142  H1168   1.112   .     S
C1142  H1169   1.112   .     S
C1142  C1370   1.536   .     S
C1142  C1383   1.542   .     S
C1143  H1165   1.112   .     S
C1143  H1167   1.112   .     S
C1143  C1145   1.527   .     S
C1145  H1164   1.110   .     S
C1146  C1147   1.534   .     S
C1146  H1176   1.106   .     S
C1147  H1173   1.112   .     S
C1148  H1171   1.112   .     S
C1148  H1170   1.111   .     S
C1148  H1172   1.110   .     S
C1148  C987    1.527   1_655 S
C1149  C1150   1.423   .     A
C1149  C424    1.431   1_556 S
C1149  C431    1.427   1_556 S
C1150  C1154   1.412   .     A
C1152  C1153   1.388   .     A
C1152  C416    1.401   1_556 S
C1152  C431    1.422   1_556 S
C1153  C1154   1.382   .     A
C1153  H1177   1.084   .     S
C1154  H1181   1.081   .     S
H1157  C1381   1.110   .     S
H1162  C1385   1.111   .     S
H1163  C1385   1.111   .     S
H1166  C968    1.086   1_655 S
H1174  C427    1.111   1_556 S
H1175  C426    1.111   1_556 S
H1178  C416    1.083   1_556 S
O1184  Zn1197  1.959   .     S
O1184  Zn1200  1.934   .     S
O1184  Zn1199  1.926   .     S
O1184  Zn1198  1.956   .     S
O1185  Zn1198  1.924   .     S
O1186  Zn1200  1.938   .     S
O1187  Zn1199  1.939   .     S
O1188  Zn1197  1.926   .     S
O1189  Zn1197  1.944   .     S
O1190  Zn1200  1.941   .     S
O1191  Zn1198  1.918   .     S
O1192  Zn1199  1.932   .     S
O1193  Zn1200  1.929   .     S
O1194  Zn1197  1.915   .     S
O1195  Zn1198  1.946   .     S
O1196  Zn1199  1.945   .     S
Br1201 C1224   1.941   .     S
C1202  O1273   1.275   .     A
C1202  O1271   1.275   .     A
C1202  C1208   1.435   .     S
C1203  C1231   1.404   .     A
C1203  C1217   1.393   .     A
C1203  H1259   1.080   .     S
C1204  H1235   1.084   .     S
C1204  C1216   1.388   .     A
C1204  C1217   1.396   .     A
C1205  O1272   1.280   .     A
C1205  O1274   1.276   .     A
C1205  C1207   1.453   .     S
C1206  C1215   1.476   .     S
C1206  C1218   1.397   .     A
C1206  C1230   1.413   .     A
C1207  C1288   1.334   .     S
C1207  H1342   1.088   .     S
C1208  C1367   1.334   1_455 S
C1208  H1406   1.086   1_455 S
C1209  C1212   1.478   .     S
C1209  C730    1.372   1_565 S
C1209  C739    1.549   1_565 S
C1210  C1211   1.437   .     S
C1211  O1269   1.272   .     A
C1211  O1275   1.275   .     A
C1212  O1276   1.273   .     A
C1212  O1270   1.271   .     A
C1213  C1218   1.398   .     A
C1213  C504    1.415   1_556 S
C1213  C506    1.518   1_556 S
C1214  O1267   1.271   .     A
C1214  C1217   1.446   .     S
C1214  O1265   1.277   .     A
C1215  O1266   1.286   .     A
C1215  O1268   1.283   .     A
C1218  H1260   1.084   .     S
C1219  H1240   1.112   .     S
C1219  H1241   1.113   .     S
C1220  H1239   1.112   .     S
C1220  H1238   1.111   .     S
C1220  C739    1.537   1_565 S
C1220  C741    1.528   1_565 S
C1221  H1236   1.111   .     S
C1221  H1263   1.111   .     S
C1222  H1248   1.112   .     S
C1222  H1249   1.112   .     S
C1222  C730    1.536   1_565 S
C1222  C743    1.542   1_565 S
C1223  H1245   1.112   .     S
C1223  H1247   1.112   .     S
C1223  C1225   1.527   .     S
C1225  H1244   1.110   .     S
C1226  C1227   1.534   .     S
C1226  H1256   1.106   .     S
C1227  H1253   1.112   .     S
C1227  C1388   1.527   1_455 S
C1228  H1251   1.112   .     S
C1228  H1250   1.111   .     S
C1228  H1252   1.110   .     S
C1228  C1307   1.527   .     S
C1229  C1230   1.423   .     A
C1229  C504    1.431   1_556 S
C1229  C511    1.427   1_556 S
C1230  C1234   1.412   .     A
C1232  C1233   1.388   .     A
C1232  C496    1.401   1_556 S
C1232  C511    1.422   1_556 S
C1233  C1234   1.382   .     A
C1233  H1257   1.084   .     S
C1234  H1261   1.081   .     S
H1237  C741    1.110   1_565 S
H1242  C745    1.111   1_565 S
H1243  C745    1.111   1_565 S
H1246  C1288   1.086   .     S
H1254  C507    1.111   1_556 S
H1255  C506    1.111   1_556 S
H1258  C496    1.083   1_556 S
H1262  C1367   1.088   1_455 S
O1264  Zn1277  1.959   .     S
O1264  Zn1280  1.934   .     S
O1264  Zn1279  1.926   .     S
O1264  Zn1278  1.956   .     S
O1265  Zn1278  1.924   .     S
O1266  Zn1280  1.938   .     S
O1267  Zn1279  1.939   .     S
O1268  Zn1277  1.926   .     S
O1269  Zn1277  1.944   .     S
O1270  Zn1280  1.941   .     S
O1271  Zn1278  1.918   .     S
O1272  Zn1279  1.932   .     S
O1273  Zn1280  1.929   .     S
O1274  Zn1277  1.915   .     S
O1275  Zn1278  1.946   .     S
O1276  Zn1279  1.945   .     S
Br1281 C1304   1.941   .     S
C1282  O1353   1.275   .     A
C1282  O1351   1.275   .     A
C1282  C1288   1.435   .     S
C1283  C1311   1.404   .     A
C1283  C1297   1.393   .     A
C1283  H1339   1.080   .     S
C1284  H1315   1.084   .     S
C1284  C1296   1.388   .     A
C1284  C1297   1.396   .     A
C1285  O1352   1.280   .     A
C1285  O1354   1.276   .     A
C1285  C1287   1.453   .     S
C1286  C1295   1.476   .     S
C1286  C1298   1.397   .     A
C1286  C1310   1.413   .     A
C1287  C1368   1.334   .     S
C1287  H1422   1.088   .     S
C1289  C1292   1.478   .     S
C1289  C810    1.372   1_565 S
C1289  C819    1.549   1_565 S
C1290  C1291   1.437   .     S
C1291  O1349   1.272   .     A
C1291  O1355   1.275   .     A
C1292  O1356   1.273   .     A
C1292  O1350   1.271   .     A
C1293  C1298   1.398   .     A
C1293  C584    1.415   1_556 S
C1293  C586    1.518   1_556 S
C1294  O1347   1.271   .     A
C1294  C1297   1.446   .     S
C1294  O1345   1.277   .     A
C1295  O1346   1.286   .     A
C1295  O1348   1.283   .     A
C1298  H1340   1.084   .     S
C1299  H1320   1.112   .     S
C1299  H1321   1.113   .     S
C1300  H1319   1.112   .     S
C1300  H1318   1.111   .     S
C1300  C819    1.537   1_565 S
C1300  C821    1.528   1_565 S
C1301  H1316   1.111   .     S
C1301  H1343   1.111   .     S
C1302  H1328   1.112   .     S
C1302  H1329   1.112   .     S
C1302  C810    1.536   1_565 S
C1302  C823    1.542   1_565 S
C1303  H1325   1.112   .     S
C1303  H1327   1.112   .     S
C1303  C1305   1.527   .     S
C1305  H1324   1.110   .     S
C1306  C1307   1.534   .     S
C1306  H1336   1.106   .     S
C1307  H1333   1.112   .     S
C1308  H1331   1.112   .     S
C1308  H1330   1.111   .     S
C1308  H1332   1.110   .     S
C1308  C1387   1.527   .     S
C1309  C1310   1.423   .     A
C1309  C584    1.431   1_556 S
C1309  C591    1.427   1_556 S
C1310  C1314   1.412   .     A
C1312  C1313   1.388   .     A
C1312  C576    1.401   1_556 S
C1312  C591    1.422   1_556 S
C1313  C1314   1.382   .     A
C1313  H1337   1.084   .     S
C1314  H1341   1.081   .     S
H1317  C821    1.110   1_565 S
H1322  C825    1.111   1_565 S
H1323  C825    1.111   1_565 S
H1326  C1368   1.086   .     S
H1334  C587    1.111   1_556 S
H1335  C586    1.111   1_556 S
H1338  C576    1.083   1_556 S
O1344  Zn1357  1.959   .     S
O1344  Zn1360  1.934   .     S
O1344  Zn1359  1.926   .     S
O1344  Zn1358  1.956   .     S
O1345  Zn1358  1.924   .     S
O1346  Zn1360  1.938   .     S
O1347  Zn1359  1.939   .     S
O1348  Zn1357  1.926   .     S
O1349  Zn1357  1.944   .     S
O1350  Zn1360  1.941   .     S
O1351  Zn1358  1.918   .     S
O1352  Zn1359  1.932   .     S
O1353  Zn1360  1.929   .     S
O1354  Zn1357  1.915   .     S
O1355  Zn1358  1.946   .     S
O1356  Zn1359  1.945   .     S
Br1361 C1384   1.941   .     S
C1362  O1433   1.275   .     A
C1362  O1431   1.275   .     A
C1362  C1368   1.435   .     S
C1363  C1391   1.404   .     A
C1363  C1377   1.393   .     A
C1363  H1419   1.080   .     S
C1364  H1395   1.084   .     S
C1364  C1376   1.388   .     A
C1364  C1377   1.396   .     A
C1365  O1432   1.280   .     A
C1365  O1434   1.276   .     A
C1365  C1367   1.453   .     S
C1366  C1375   1.476   .     S
C1366  C1378   1.397   .     A
C1366  C1390   1.413   .     A
C1367  C1208   1.334   1_655 S
C1367  H1262   1.088   1_655 S
C1369  C1372   1.478   .     S
C1369  C890    1.372   1_565 S
C1369  C899    1.549   1_565 S
C1370  C1371   1.437   .     S
C1371  O1429   1.272   .     A
C1371  O1435   1.275   .     A
C1372  O1436   1.273   .     A
C1372  O1430   1.271   .     A
C1373  C1378   1.398   .     A
C1373  C664    1.415   1_556 S
C1373  C666    1.518   1_556 S
C1374  O1427   1.271   .     A
C1374  C1377   1.446   .     S
C1374  O1425   1.277   .     A
C1375  O1426   1.286   .     A
C1375  O1428   1.283   .     A
C1378  H1420   1.084   .     S
C1379  H1400   1.112   .     S
C1379  H1401   1.113   .     S
C1380  H1399   1.112   .     S
C1380  H1398   1.111   .     S
C1380  C899    1.537   1_565 S
C1380  C901    1.528   1_565 S
C1381  H1396   1.111   .     S
C1381  H1423   1.111   .     S
C1382  H1408   1.112   .     S
C1382  H1409   1.112   .     S
C1382  C890    1.536   1_565 S
C1382  C903    1.542   1_565 S
C1383  H1405   1.112   .     S
C1383  H1407   1.112   .     S
C1383  C1385   1.527   .     S
C1385  H1404   1.110   .     S
C1386  C1387   1.534   .     S
C1386  H1416   1.106   .     S
C1387  H1413   1.112   .     S
C1388  H1411   1.112   .     S
C1388  H1410   1.111   .     S
C1388  H1412   1.110   .     S
C1388  C1227   1.527   1_655 S
C1389  C1390   1.423   .     A
C1389  C664    1.431   1_556 S
C1389  C671    1.427   1_556 S
C1390  C1394   1.412   .     A
C1392  C1393   1.388   .     A
C1392  C656    1.401   1_556 S
C1392  C671    1.422   1_556 S
C1393  C1394   1.382   .     A
C1393  H1417   1.084   .     S
C1394  H1421   1.081   .     S
H1397  C901    1.110   1_565 S
H1402  C905    1.111   1_565 S
H1403  C905    1.111   1_565 S
H1406  C1208   1.086   1_655 S
H1414  C667    1.111   1_556 S
H1415  C666    1.111   1_556 S
H1418  C656    1.083   1_556 S
O1424  Zn1437  1.959   .     S
O1424  Zn1440  1.934   .     S
O1424  Zn1439  1.926   .     S
O1424  Zn1438  1.956   .     S
O1425  Zn1438  1.924   .     S
O1426  Zn1440  1.938   .     S
O1427  Zn1439  1.939   .     S
O1428  Zn1437  1.926   .     S
O1429  Zn1437  1.944   .     S
O1430  Zn1440  1.941   .     S
O1431  Zn1438  1.918   .     S
O1432  Zn1439  1.932   .     S
O1433  Zn1440  1.929   .     S
O1434  Zn1437  1.915   .     S
O1435  Zn1438  1.946   .     S
O1436  Zn1439  1.945   .     S
