data_str_m1_o10_o18_pcu_sym.82
_audit_creation_date              2020-01-03
_audit_creation_method            'Materials Studio'
_symmetry_space_group_name_H-M    'P1'
_symmetry_Int_Tables_number       1
_symmetry_cell_setting            triclinic
loop_
_symmetry_equiv_pos_as_xyz
  x,y,z
_cell_length_a                    32.6497
_cell_length_b                    32.5172
_cell_length_c                    35.6949
_cell_angle_alpha                 98.1839
_cell_angle_beta                  73.2800
_cell_angle_gamma                 98.4793
loop_
_atom_site_label
_atom_site_type_symbol
_atom_site_fract_x
_atom_site_fract_y
_atom_site_fract_z
_atom_site_U_iso_or_equiv
_atom_site_adp_type
_atom_site_occupancy
Zn1    Zn    0.19244   0.14090   0.28277   0.00000  Uiso   1.00
Zn2    Zn    0.13459   0.12378   0.22257   0.00000  Uiso   1.00
Zn3    Zn    0.21166   0.19664   0.21188   0.00000  Uiso   1.00
Zn4    Zn    0.12798   0.20535   0.28277   0.00000  Uiso   1.00
O5     O     0.16667   0.16667   0.25000   0.00000  Uiso   1.00
O6     O     0.06990   0.18960   0.27820   0.00000  Uiso   1.00
O7     O     0.25440   0.15277   0.26767   0.00000  Uiso   1.00
O8     O     0.13800   0.06903   0.23607   0.00000  Uiso   1.00
O9     O     0.20437   0.25527   0.21805   0.00000  Uiso   1.00
O10    O     0.15693   0.12393   0.16625   0.00000  Uiso   1.00
O11    O     0.12687   0.20646   0.33749   0.00000  Uiso   1.00
O12    O     0.21088   0.17493   0.15877   0.00000  Uiso   1.00
O13    O     0.17198   0.16135   0.33749   0.00000  Uiso   1.00
O14    O     0.17849   0.08101   0.27820   0.00000  Uiso   1.00
O15    O     0.14581   0.26136   0.26767   0.00000  Uiso   1.00
O16    O     0.07452   0.13251   0.23607   0.00000  Uiso   1.00
O17    O     0.26785   0.19179   0.21805   0.00000  Uiso   1.00
C18    C     0.05277   0.16016   0.25833   0.00000  Uiso   1.00
C19    C     0.28095   0.17339   0.24142   0.00000  Uiso   1.00
C20    C     0.15592   0.05611   0.25892   0.00000  Uiso   1.00
C21    C     0.17684   0.27763   0.24139   0.00000  Uiso   1.00
C22    C     0.18818   0.14509   0.14415   0.00000  Uiso   1.00
C23    C     0.14549   0.18770   0.35616   0.00000  Uiso   1.00
C24    C     0.13437   0.19399   0.39937   0.00000  Uiso   1.00
C25    C     0.19664   0.13552   0.10188   0.00000  Uiso   1.00
C26    C     0.08969   0.22137   0.46194   0.00000  Uiso   1.00
C27    C     0.10149   0.21807   0.42101   0.00000  Uiso   1.00
C28    C     0.15561   0.17379   0.41911   0.00000  Uiso   1.00
C29    C     0.14298   0.17508   0.46041   0.00000  Uiso   1.00
C30    C     0.11004   0.20003   0.48175   0.00000  Uiso   1.00
C31    C     0.16259   0.15288   0.48100   0.00000  Uiso   1.00
C32    C     0.15256   0.15996   0.02273   0.00000  Uiso   1.00
C33    C     0.11648   0.18204   0.04318   0.00000  Uiso   1.00
C34    C     0.09680   0.20260   0.02259   0.00000  Uiso   1.00
C35    C     0.19085   0.12286   0.46118   0.00000  Uiso   1.00
C36    C     0.21152   0.10230   0.48091   0.00000  Uiso   1.00
C37    C     0.20527   0.11229   0.02166   0.00000  Uiso   1.00
C38    C     0.17757   0.14296   0.04233   0.00000  Uiso   1.00
C39    C     0.22530   0.09161   0.04254   0.00000  Uiso   1.00
C40    C     0.22017   0.10261   0.08257   0.00000  Uiso   1.00
C41    C     0.17680   0.15637   0.08178   0.00000  Uiso   1.00
H42    H     0.07017   0.22003   0.03891   0.00000  Uiso   1.00
H43    H     0.16144   0.18331   0.09758   0.00000  Uiso   1.00
H44    H     0.23471   0.08562   0.09847   0.00000  Uiso   1.00
H45    H     0.06415   0.24016   0.47814   0.00000  Uiso   1.00
H46    H     0.08463   0.23401   0.40636   0.00000  Uiso   1.00
H47    H     0.18241   0.15777   0.40145   0.00000  Uiso   1.00
H48    H     0.19680   0.11360   0.43007   0.00000  Uiso   1.00
H49    H     0.24415   0.06617   0.02850   0.00000  Uiso   1.00
C50    C     0.32649   0.17653   0.23953   0.00000  Uiso   1.00
H51    H     0.01582   0.19661   0.21922   0.00000  Uiso   1.00
C52    C     0.00696   0.15621   0.26313   0.00000  Uiso   1.00
C53    C     0.18086   0.32215   0.23826   0.00000  Uiso   1.00
H54    H     0.20791   0.00277   0.21634   0.00000  Uiso   1.00
C55    C     0.15159   0.01208   0.26213   0.00000  Uiso   1.00
H56    H     0.12412   0.33222   0.28408   0.00000  Uiso   1.00
O57    O     0.31241   0.12749   0.28688   0.00000  Uiso   1.00
C58    C     0.32356   0.12705   0.32224   0.00000  Uiso   1.00
H59    H     0.32987   0.15938   0.33627   0.00000  Uiso   1.00
H60    H     0.01906   0.11020   0.31656   0.00000  Uiso   1.00
C61    C     0.28631   0.10427   0.35101   0.00000  Uiso   1.00
H62    H     0.27947   0.07159   0.33839   0.00000  Uiso   1.00
H63    H     0.29468   0.10376   0.37896   0.00000  Uiso   1.00
H64    H     0.25704   0.12051   0.35734   0.00000  Uiso   1.00
N65    N     0.24027   0.07263   0.45853   0.00000  Uiso   1.00
O66    O     0.28022   0.07765   0.45958   0.00000  Uiso   1.00
O67    O     0.22895   0.04556   0.43175   0.00000  Uiso   1.00
O68    O     0.09806   0.18235   0.08325   0.00000  Uiso   1.00
C69    C     0.06947   0.14548   0.09046   0.00000  Uiso   1.00
H70    H     0.08673   0.11713   0.07988   0.00000  Uiso   1.00
H71    H     0.04324   0.14385   0.07588   0.00000  Uiso   1.00
C72    C     0.04915   0.14559   0.13453   0.00000  Uiso   1.00
H73    H     0.03088   0.17307   0.14582   0.00000  Uiso   1.00
H74    H     0.02674   0.11664   0.14070   0.00000  Uiso   1.00
H75    H     0.07451   0.14704   0.14995   0.00000  Uiso   1.00
Zn76   Zn    0.52577   0.14090   0.28277   0.00000  Uiso   1.00
Zn77   Zn    0.46792   0.12378   0.22257   0.00000  Uiso   1.00
Zn78   Zn    0.54500   0.19664   0.21188   0.00000  Uiso   1.00
Zn79   Zn    0.46131   0.20535   0.28277   0.00000  Uiso   1.00
O80    O     0.50000   0.16667   0.25000   0.00000  Uiso   1.00
O81    O     0.40323   0.18960   0.27820   0.00000  Uiso   1.00
O82    O     0.58773   0.15277   0.26767   0.00000  Uiso   1.00
O83    O     0.47133   0.06903   0.23607   0.00000  Uiso   1.00
O84    O     0.53771   0.25527   0.21805   0.00000  Uiso   1.00
O85    O     0.49027   0.12393   0.16625   0.00000  Uiso   1.00
O86    O     0.46020   0.20646   0.33749   0.00000  Uiso   1.00
O87    O     0.54421   0.17493   0.15877   0.00000  Uiso   1.00
O88    O     0.50532   0.16135   0.33749   0.00000  Uiso   1.00
O89    O     0.51182   0.08101   0.27820   0.00000  Uiso   1.00
O90    O     0.47914   0.26136   0.26767   0.00000  Uiso   1.00
O91    O     0.40785   0.13251   0.23607   0.00000  Uiso   1.00
O92    O     0.60119   0.19179   0.21805   0.00000  Uiso   1.00
C93    C     0.38611   0.16016   0.25833   0.00000  Uiso   1.00
C94    C     0.61428   0.17339   0.24142   0.00000  Uiso   1.00
C95    C     0.48925   0.05611   0.25892   0.00000  Uiso   1.00
C96    C     0.51017   0.27763   0.24139   0.00000  Uiso   1.00
C97    C     0.52152   0.14509   0.14415   0.00000  Uiso   1.00
C98    C     0.47882   0.18770   0.35616   0.00000  Uiso   1.00
C99    C     0.46770   0.19399   0.39937   0.00000  Uiso   1.00
C100   C     0.52997   0.13552   0.10188   0.00000  Uiso   1.00
C101   C     0.42302   0.22137   0.46194   0.00000  Uiso   1.00
C102   C     0.43483   0.21807   0.42101   0.00000  Uiso   1.00
C103   C     0.48894   0.17379   0.41911   0.00000  Uiso   1.00
C104   C     0.47632   0.17508   0.46041   0.00000  Uiso   1.00
C105   C     0.44337   0.20003   0.48175   0.00000  Uiso   1.00
C106   C     0.49593   0.15288   0.48100   0.00000  Uiso   1.00
C107   C     0.48589   0.15996   0.02273   0.00000  Uiso   1.00
C108   C     0.44982   0.18204   0.04318   0.00000  Uiso   1.00
C109   C     0.43014   0.20260   0.02259   0.00000  Uiso   1.00
C110   C     0.52418   0.12286   0.46118   0.00000  Uiso   1.00
C111   C     0.54486   0.10230   0.48091   0.00000  Uiso   1.00
C112   C     0.53860   0.11229   0.02166   0.00000  Uiso   1.00
C113   C     0.51090   0.14296   0.04233   0.00000  Uiso   1.00
C114   C     0.55863   0.09161   0.04254   0.00000  Uiso   1.00
C115   C     0.55350   0.10261   0.08257   0.00000  Uiso   1.00
C116   C     0.51013   0.15637   0.08178   0.00000  Uiso   1.00
H117   H     0.40350   0.22003   0.03891   0.00000  Uiso   1.00
H118   H     0.49477   0.18331   0.09758   0.00000  Uiso   1.00
H119   H     0.56804   0.08562   0.09847   0.00000  Uiso   1.00
H120   H     0.39749   0.24016   0.47814   0.00000  Uiso   1.00
H121   H     0.41796   0.23401   0.40636   0.00000  Uiso   1.00
H122   H     0.51574   0.15777   0.40145   0.00000  Uiso   1.00
H123   H     0.53013   0.11360   0.43007   0.00000  Uiso   1.00
H124   H     0.57748   0.06617   0.02850   0.00000  Uiso   1.00
C125   C     0.65983   0.17653   0.23953   0.00000  Uiso   1.00
H126   H     0.34916   0.19661   0.21922   0.00000  Uiso   1.00
C127   C     0.34029   0.15621   0.26313   0.00000  Uiso   1.00
C128   C     0.51420   0.32215   0.23826   0.00000  Uiso   1.00
H129   H     0.54124   0.00277   0.21634   0.00000  Uiso   1.00
C130   C     0.48492   0.01208   0.26213   0.00000  Uiso   1.00
H131   H     0.45746   0.33222   0.28408   0.00000  Uiso   1.00
O132   O     0.64574   0.12749   0.28688   0.00000  Uiso   1.00
C133   C     0.65689   0.12705   0.32224   0.00000  Uiso   1.00
H134   H     0.66320   0.15938   0.33627   0.00000  Uiso   1.00
H135   H     0.35240   0.11020   0.31656   0.00000  Uiso   1.00
C136   C     0.61965   0.10427   0.35101   0.00000  Uiso   1.00
H137   H     0.61281   0.07159   0.33839   0.00000  Uiso   1.00
H138   H     0.62801   0.10376   0.37896   0.00000  Uiso   1.00
H139   H     0.59037   0.12051   0.35734   0.00000  Uiso   1.00
N140   N     0.57360   0.07263   0.45853   0.00000  Uiso   1.00
O141   O     0.61356   0.07765   0.45958   0.00000  Uiso   1.00
O142   O     0.56228   0.04556   0.43175   0.00000  Uiso   1.00
O143   O     0.43139   0.18235   0.08325   0.00000  Uiso   1.00
C144   C     0.40281   0.14548   0.09046   0.00000  Uiso   1.00
H145   H     0.42006   0.11713   0.07988   0.00000  Uiso   1.00
H146   H     0.37658   0.14385   0.07588   0.00000  Uiso   1.00
C147   C     0.38248   0.14559   0.13453   0.00000  Uiso   1.00
H148   H     0.36421   0.17307   0.14582   0.00000  Uiso   1.00
H149   H     0.36007   0.11664   0.14070   0.00000  Uiso   1.00
H150   H     0.40785   0.14704   0.14995   0.00000  Uiso   1.00
Zn151  Zn    0.85910   0.14090   0.28277   0.00000  Uiso   1.00
Zn152  Zn    0.80125   0.12378   0.22257   0.00000  Uiso   1.00
Zn153  Zn    0.87833   0.19664   0.21188   0.00000  Uiso   1.00
Zn154  Zn    0.79465   0.20535   0.28277   0.00000  Uiso   1.00
O155   O     0.83333   0.16667   0.25000   0.00000  Uiso   1.00
O156   O     0.73656   0.18960   0.27820   0.00000  Uiso   1.00
O157   O     0.92106   0.15277   0.26767   0.00000  Uiso   1.00
O158   O     0.80467   0.06903   0.23607   0.00000  Uiso   1.00
O159   O     0.87104   0.25527   0.21805   0.00000  Uiso   1.00
O160   O     0.82360   0.12393   0.16625   0.00000  Uiso   1.00
O161   O     0.79354   0.20646   0.33749   0.00000  Uiso   1.00
O162   O     0.87755   0.17493   0.15877   0.00000  Uiso   1.00
O163   O     0.83865   0.16135   0.33749   0.00000  Uiso   1.00
O164   O     0.84515   0.08101   0.27820   0.00000  Uiso   1.00
O165   O     0.81247   0.26136   0.26767   0.00000  Uiso   1.00
O166   O     0.74119   0.13251   0.23607   0.00000  Uiso   1.00
O167   O     0.93452   0.19179   0.21805   0.00000  Uiso   1.00
C168   C     0.71944   0.16016   0.25833   0.00000  Uiso   1.00
C169   C     0.94762   0.17339   0.24142   0.00000  Uiso   1.00
C170   C     0.82259   0.05611   0.25892   0.00000  Uiso   1.00
C171   C     0.84350   0.27763   0.24139   0.00000  Uiso   1.00
C172   C     0.85485   0.14509   0.14415   0.00000  Uiso   1.00
C173   C     0.81216   0.18770   0.35616   0.00000  Uiso   1.00
C174   C     0.80104   0.19399   0.39937   0.00000  Uiso   1.00
C175   C     0.86331   0.13552   0.10188   0.00000  Uiso   1.00
C176   C     0.75635   0.22137   0.46194   0.00000  Uiso   1.00
C177   C     0.76816   0.21807   0.42101   0.00000  Uiso   1.00
C178   C     0.82227   0.17379   0.41911   0.00000  Uiso   1.00
C179   C     0.80965   0.17508   0.46041   0.00000  Uiso   1.00
C180   C     0.77671   0.20003   0.48175   0.00000  Uiso   1.00
C181   C     0.82926   0.15288   0.48100   0.00000  Uiso   1.00
C182   C     0.81923   0.15996   0.02273   0.00000  Uiso   1.00
C183   C     0.78315   0.18204   0.04318   0.00000  Uiso   1.00
C184   C     0.76347   0.20260   0.02259   0.00000  Uiso   1.00
C185   C     0.85751   0.12286   0.46118   0.00000  Uiso   1.00
C186   C     0.87819   0.10230   0.48091   0.00000  Uiso   1.00
C187   C     0.87194   0.11229   0.02166   0.00000  Uiso   1.00
C188   C     0.84423   0.14296   0.04233   0.00000  Uiso   1.00
C189   C     0.89197   0.09161   0.04254   0.00000  Uiso   1.00
C190   C     0.88684   0.10261   0.08257   0.00000  Uiso   1.00
C191   C     0.84347   0.15637   0.08178   0.00000  Uiso   1.00
H192   H     0.73684   0.22003   0.03891   0.00000  Uiso   1.00
H193   H     0.82810   0.18331   0.09758   0.00000  Uiso   1.00
H194   H     0.90138   0.08562   0.09847   0.00000  Uiso   1.00
H195   H     0.73082   0.24016   0.47814   0.00000  Uiso   1.00
H196   H     0.75130   0.23401   0.40636   0.00000  Uiso   1.00
H197   H     0.84907   0.15777   0.40145   0.00000  Uiso   1.00
H198   H     0.86346   0.11360   0.43007   0.00000  Uiso   1.00
H199   H     0.91081   0.06617   0.02850   0.00000  Uiso   1.00
C200   C     0.99316   0.17653   0.23953   0.00000  Uiso   1.00
H201   H     0.68249   0.19661   0.21922   0.00000  Uiso   1.00
C202   C     0.67362   0.15621   0.26313   0.00000  Uiso   1.00
C203   C     0.84753   0.32215   0.23826   0.00000  Uiso   1.00
H204   H     0.87458   0.00277   0.21634   0.00000  Uiso   1.00
C205   C     0.81826   0.01208   0.26213   0.00000  Uiso   1.00
H206   H     0.79079   0.33222   0.28408   0.00000  Uiso   1.00
O207   O     0.97908   0.12749   0.28688   0.00000  Uiso   1.00
C208   C     0.99022   0.12705   0.32224   0.00000  Uiso   1.00
H209   H     0.99653   0.15938   0.33627   0.00000  Uiso   1.00
H210   H     0.68573   0.11020   0.31656   0.00000  Uiso   1.00
C211   C     0.95298   0.10427   0.35101   0.00000  Uiso   1.00
H212   H     0.94614   0.07159   0.33839   0.00000  Uiso   1.00
H213   H     0.96135   0.10376   0.37896   0.00000  Uiso   1.00
H214   H     0.92370   0.12051   0.35734   0.00000  Uiso   1.00
N215   N     0.90694   0.07263   0.45853   0.00000  Uiso   1.00
O216   O     0.94689   0.07765   0.45958   0.00000  Uiso   1.00
O217   O     0.89561   0.04556   0.43175   0.00000  Uiso   1.00
O218   O     0.76473   0.18235   0.08325   0.00000  Uiso   1.00
C219   C     0.73614   0.14548   0.09046   0.00000  Uiso   1.00
H220   H     0.75339   0.11713   0.07988   0.00000  Uiso   1.00
H221   H     0.70991   0.14385   0.07588   0.00000  Uiso   1.00
C222   C     0.71582   0.14559   0.13453   0.00000  Uiso   1.00
H223   H     0.69754   0.17307   0.14582   0.00000  Uiso   1.00
H224   H     0.69340   0.11664   0.14070   0.00000  Uiso   1.00
H225   H     0.74118   0.14704   0.14995   0.00000  Uiso   1.00
Zn226  Zn    0.19244   0.47423   0.28277   0.00000  Uiso   1.00
Zn227  Zn    0.13459   0.45711   0.22257   0.00000  Uiso   1.00
Zn228  Zn    0.21166   0.52997   0.21188   0.00000  Uiso   1.00
Zn229  Zn    0.12798   0.53868   0.28277   0.00000  Uiso   1.00
O230   O     0.16667   0.50000   0.25000   0.00000  Uiso   1.00
O231   O     0.06990   0.52293   0.27820   0.00000  Uiso   1.00
O232   O     0.25440   0.48610   0.26767   0.00000  Uiso   1.00
O233   O     0.13800   0.40236   0.23607   0.00000  Uiso   1.00
O234   O     0.20437   0.58860   0.21805   0.00000  Uiso   1.00
O235   O     0.15693   0.45726   0.16625   0.00000  Uiso   1.00
O236   O     0.12687   0.53979   0.33749   0.00000  Uiso   1.00
O237   O     0.21088   0.50826   0.15877   0.00000  Uiso   1.00
O238   O     0.17198   0.49468   0.33749   0.00000  Uiso   1.00
O239   O     0.17849   0.41434   0.27820   0.00000  Uiso   1.00
O240   O     0.14581   0.59469   0.26767   0.00000  Uiso   1.00
O241   O     0.07452   0.46584   0.23607   0.00000  Uiso   1.00
O242   O     0.26785   0.52512   0.21805   0.00000  Uiso   1.00
C243   C     0.05277   0.49349   0.25833   0.00000  Uiso   1.00
C244   C     0.28095   0.50673   0.24142   0.00000  Uiso   1.00
C245   C     0.15592   0.38945   0.25892   0.00000  Uiso   1.00
C246   C     0.17684   0.61097   0.24139   0.00000  Uiso   1.00
C247   C     0.18818   0.47843   0.14415   0.00000  Uiso   1.00
C248   C     0.14549   0.52103   0.35616   0.00000  Uiso   1.00
C249   C     0.13437   0.52733   0.39937   0.00000  Uiso   1.00
C250   C     0.19664   0.46886   0.10188   0.00000  Uiso   1.00
C251   C     0.08969   0.55470   0.46194   0.00000  Uiso   1.00
C252   C     0.10149   0.55140   0.42101   0.00000  Uiso   1.00
C253   C     0.15561   0.50713   0.41911   0.00000  Uiso   1.00
C254   C     0.14298   0.50842   0.46041   0.00000  Uiso   1.00
C255   C     0.11004   0.53337   0.48175   0.00000  Uiso   1.00
C256   C     0.16259   0.48621   0.48100   0.00000  Uiso   1.00
C257   C     0.15256   0.49329   0.02273   0.00000  Uiso   1.00
C258   C     0.11648   0.51537   0.04318   0.00000  Uiso   1.00
C259   C     0.09680   0.53594   0.02259   0.00000  Uiso   1.00
C260   C     0.19085   0.45619   0.46118   0.00000  Uiso   1.00
C261   C     0.21152   0.43563   0.48091   0.00000  Uiso   1.00
C262   C     0.20527   0.44562   0.02166   0.00000  Uiso   1.00
C263   C     0.17757   0.47629   0.04233   0.00000  Uiso   1.00
C264   C     0.22530   0.42494   0.04254   0.00000  Uiso   1.00
C265   C     0.22017   0.43595   0.08257   0.00000  Uiso   1.00
C266   C     0.17680   0.48971   0.08178   0.00000  Uiso   1.00
H267   H     0.07017   0.55336   0.03891   0.00000  Uiso   1.00
H268   H     0.16144   0.51664   0.09758   0.00000  Uiso   1.00
H269   H     0.23471   0.41895   0.09847   0.00000  Uiso   1.00
H270   H     0.06415   0.57349   0.47814   0.00000  Uiso   1.00
H271   H     0.08463   0.56734   0.40636   0.00000  Uiso   1.00
H272   H     0.18241   0.49110   0.40145   0.00000  Uiso   1.00
H273   H     0.19680   0.44693   0.43007   0.00000  Uiso   1.00
H274   H     0.24415   0.39950   0.02850   0.00000  Uiso   1.00
C275   C     0.32649   0.50986   0.23953   0.00000  Uiso   1.00
H276   H     0.01582   0.52994   0.21922   0.00000  Uiso   1.00
C277   C     0.00696   0.48954   0.26313   0.00000  Uiso   1.00
C278   C     0.18086   0.65548   0.23826   0.00000  Uiso   1.00
H279   H     0.20791   0.33611   0.21634   0.00000  Uiso   1.00
C280   C     0.15159   0.34541   0.26213   0.00000  Uiso   1.00
H281   H     0.12412   0.66556   0.28408   0.00000  Uiso   1.00
O282   O     0.31241   0.46082   0.28688   0.00000  Uiso   1.00
C283   C     0.32356   0.46038   0.32224   0.00000  Uiso   1.00
H284   H     0.32987   0.49271   0.33627   0.00000  Uiso   1.00
H285   H     0.01906   0.44353   0.31656   0.00000  Uiso   1.00
C286   C     0.28631   0.43760   0.35101   0.00000  Uiso   1.00
H287   H     0.27947   0.40493   0.33839   0.00000  Uiso   1.00
H288   H     0.29468   0.43709   0.37896   0.00000  Uiso   1.00
H289   H     0.25704   0.45385   0.35734   0.00000  Uiso   1.00
N290   N     0.24027   0.40597   0.45853   0.00000  Uiso   1.00
O291   O     0.28022   0.41098   0.45958   0.00000  Uiso   1.00
O292   O     0.22895   0.37889   0.43175   0.00000  Uiso   1.00
O293   O     0.09806   0.51568   0.08325   0.00000  Uiso   1.00
C294   C     0.06947   0.47882   0.09046   0.00000  Uiso   1.00
H295   H     0.08673   0.45046   0.07988   0.00000  Uiso   1.00
H296   H     0.04324   0.47718   0.07588   0.00000  Uiso   1.00
C297   C     0.04915   0.47892   0.13453   0.00000  Uiso   1.00
H298   H     0.03088   0.50640   0.14582   0.00000  Uiso   1.00
H299   H     0.02674   0.44997   0.14070   0.00000  Uiso   1.00
H300   H     0.07451   0.48038   0.14995   0.00000  Uiso   1.00
Zn301  Zn    0.52577   0.47423   0.28277   0.00000  Uiso   1.00
Zn302  Zn    0.46792   0.45711   0.22257   0.00000  Uiso   1.00
Zn303  Zn    0.54500   0.52997   0.21188   0.00000  Uiso   1.00
Zn304  Zn    0.46131   0.53868   0.28277   0.00000  Uiso   1.00
O305   O     0.50000   0.50000   0.25000   0.00000  Uiso   1.00
O306   O     0.40323   0.52293   0.27820   0.00000  Uiso   1.00
O307   O     0.58773   0.48610   0.26767   0.00000  Uiso   1.00
O308   O     0.47133   0.40236   0.23607   0.00000  Uiso   1.00
O309   O     0.53771   0.58860   0.21805   0.00000  Uiso   1.00
O310   O     0.49027   0.45726   0.16625   0.00000  Uiso   1.00
O311   O     0.46020   0.53979   0.33749   0.00000  Uiso   1.00
O312   O     0.54421   0.50826   0.15877   0.00000  Uiso   1.00
O313   O     0.50532   0.49468   0.33749   0.00000  Uiso   1.00
O314   O     0.51182   0.41434   0.27820   0.00000  Uiso   1.00
O315   O     0.47914   0.59469   0.26767   0.00000  Uiso   1.00
O316   O     0.40785   0.46584   0.23607   0.00000  Uiso   1.00
O317   O     0.60119   0.52512   0.21805   0.00000  Uiso   1.00
C318   C     0.38611   0.49349   0.25833   0.00000  Uiso   1.00
C319   C     0.61428   0.50673   0.24142   0.00000  Uiso   1.00
C320   C     0.48925   0.38945   0.25892   0.00000  Uiso   1.00
C321   C     0.51017   0.61097   0.24139   0.00000  Uiso   1.00
C322   C     0.52152   0.47843   0.14415   0.00000  Uiso   1.00
C323   C     0.47882   0.52103   0.35616   0.00000  Uiso   1.00
C324   C     0.46770   0.52733   0.39937   0.00000  Uiso   1.00
C325   C     0.52997   0.46886   0.10188   0.00000  Uiso   1.00
C326   C     0.42302   0.55470   0.46194   0.00000  Uiso   1.00
C327   C     0.43483   0.55140   0.42101   0.00000  Uiso   1.00
C328   C     0.48894   0.50713   0.41911   0.00000  Uiso   1.00
C329   C     0.47632   0.50842   0.46041   0.00000  Uiso   1.00
C330   C     0.44337   0.53337   0.48175   0.00000  Uiso   1.00
C331   C     0.49593   0.48621   0.48100   0.00000  Uiso   1.00
C332   C     0.48589   0.49329   0.02273   0.00000  Uiso   1.00
C333   C     0.44982   0.51537   0.04318   0.00000  Uiso   1.00
C334   C     0.43014   0.53594   0.02259   0.00000  Uiso   1.00
C335   C     0.52418   0.45619   0.46118   0.00000  Uiso   1.00
C336   C     0.54486   0.43563   0.48091   0.00000  Uiso   1.00
C337   C     0.53860   0.44562   0.02166   0.00000  Uiso   1.00
C338   C     0.51090   0.47629   0.04233   0.00000  Uiso   1.00
C339   C     0.55863   0.42494   0.04254   0.00000  Uiso   1.00
C340   C     0.55350   0.43595   0.08257   0.00000  Uiso   1.00
C341   C     0.51013   0.48971   0.08178   0.00000  Uiso   1.00
H342   H     0.40350   0.55336   0.03891   0.00000  Uiso   1.00
H343   H     0.49477   0.51664   0.09758   0.00000  Uiso   1.00
H344   H     0.56804   0.41895   0.09847   0.00000  Uiso   1.00
H345   H     0.39749   0.57349   0.47814   0.00000  Uiso   1.00
H346   H     0.41796   0.56734   0.40636   0.00000  Uiso   1.00
H347   H     0.51574   0.49110   0.40145   0.00000  Uiso   1.00
H348   H     0.53013   0.44693   0.43007   0.00000  Uiso   1.00
H349   H     0.57748   0.39950   0.02850   0.00000  Uiso   1.00
C350   C     0.65983   0.50986   0.23953   0.00000  Uiso   1.00
H351   H     0.34916   0.52994   0.21922   0.00000  Uiso   1.00
C352   C     0.34029   0.48954   0.26313   0.00000  Uiso   1.00
C353   C     0.51420   0.65548   0.23826   0.00000  Uiso   1.00
H354   H     0.54124   0.33611   0.21634   0.00000  Uiso   1.00
C355   C     0.48492   0.34541   0.26213   0.00000  Uiso   1.00
H356   H     0.45746   0.66556   0.28408   0.00000  Uiso   1.00
O357   O     0.64574   0.46082   0.28688   0.00000  Uiso   1.00
C358   C     0.65689   0.46038   0.32224   0.00000  Uiso   1.00
H359   H     0.66320   0.49271   0.33627   0.00000  Uiso   1.00
H360   H     0.35240   0.44353   0.31656   0.00000  Uiso   1.00
C361   C     0.61965   0.43760   0.35101   0.00000  Uiso   1.00
H362   H     0.61281   0.40493   0.33839   0.00000  Uiso   1.00
H363   H     0.62801   0.43709   0.37896   0.00000  Uiso   1.00
H364   H     0.59037   0.45385   0.35734   0.00000  Uiso   1.00
N365   N     0.57360   0.40597   0.45853   0.00000  Uiso   1.00
O366   O     0.61356   0.41098   0.45958   0.00000  Uiso   1.00
O367   O     0.56228   0.37889   0.43175   0.00000  Uiso   1.00
O368   O     0.43139   0.51568   0.08325   0.00000  Uiso   1.00
C369   C     0.40281   0.47882   0.09046   0.00000  Uiso   1.00
H370   H     0.42006   0.45046   0.07988   0.00000  Uiso   1.00
H371   H     0.37658   0.47718   0.07588   0.00000  Uiso   1.00
C372   C     0.38248   0.47892   0.13453   0.00000  Uiso   1.00
H373   H     0.36421   0.50640   0.14582   0.00000  Uiso   1.00
H374   H     0.36007   0.44997   0.14070   0.00000  Uiso   1.00
H375   H     0.40785   0.48038   0.14995   0.00000  Uiso   1.00
Zn376  Zn    0.85910   0.47423   0.28277   0.00000  Uiso   1.00
Zn377  Zn    0.80125   0.45711   0.22257   0.00000  Uiso   1.00
Zn378  Zn    0.87833   0.52997   0.21188   0.00000  Uiso   1.00
Zn379  Zn    0.79465   0.53868   0.28277   0.00000  Uiso   1.00
O380   O     0.83333   0.50000   0.25000   0.00000  Uiso   1.00
O381   O     0.73656   0.52293   0.27820   0.00000  Uiso   1.00
O382   O     0.92106   0.48610   0.26767   0.00000  Uiso   1.00
O383   O     0.80467   0.40236   0.23607   0.00000  Uiso   1.00
O384   O     0.87104   0.58860   0.21805   0.00000  Uiso   1.00
O385   O     0.82360   0.45726   0.16625   0.00000  Uiso   1.00
O386   O     0.79354   0.53979   0.33749   0.00000  Uiso   1.00
O387   O     0.87755   0.50826   0.15877   0.00000  Uiso   1.00
O388   O     0.83865   0.49468   0.33749   0.00000  Uiso   1.00
O389   O     0.84515   0.41434   0.27820   0.00000  Uiso   1.00
O390   O     0.81247   0.59469   0.26767   0.00000  Uiso   1.00
O391   O     0.74119   0.46584   0.23607   0.00000  Uiso   1.00
O392   O     0.93452   0.52512   0.21805   0.00000  Uiso   1.00
C393   C     0.71944   0.49349   0.25833   0.00000  Uiso   1.00
C394   C     0.94762   0.50673   0.24142   0.00000  Uiso   1.00
C395   C     0.82259   0.38945   0.25892   0.00000  Uiso   1.00
C396   C     0.84350   0.61097   0.24139   0.00000  Uiso   1.00
C397   C     0.85485   0.47843   0.14415   0.00000  Uiso   1.00
C398   C     0.81216   0.52103   0.35616   0.00000  Uiso   1.00
C399   C     0.80104   0.52733   0.39937   0.00000  Uiso   1.00
C400   C     0.86331   0.46886   0.10188   0.00000  Uiso   1.00
C401   C     0.75635   0.55470   0.46194   0.00000  Uiso   1.00
C402   C     0.76816   0.55140   0.42101   0.00000  Uiso   1.00
C403   C     0.82227   0.50713   0.41911   0.00000  Uiso   1.00
C404   C     0.80965   0.50842   0.46041   0.00000  Uiso   1.00
C405   C     0.77671   0.53337   0.48175   0.00000  Uiso   1.00
C406   C     0.82926   0.48621   0.48100   0.00000  Uiso   1.00
C407   C     0.81923   0.49329   0.02273   0.00000  Uiso   1.00
C408   C     0.78315   0.51537   0.04318   0.00000  Uiso   1.00
C409   C     0.76347   0.53594   0.02259   0.00000  Uiso   1.00
C410   C     0.85751   0.45619   0.46118   0.00000  Uiso   1.00
C411   C     0.87819   0.43563   0.48091   0.00000  Uiso   1.00
C412   C     0.87194   0.44562   0.02166   0.00000  Uiso   1.00
C413   C     0.84423   0.47629   0.04233   0.00000  Uiso   1.00
C414   C     0.89197   0.42494   0.04254   0.00000  Uiso   1.00
C415   C     0.88684   0.43595   0.08257   0.00000  Uiso   1.00
C416   C     0.84347   0.48971   0.08178   0.00000  Uiso   1.00
H417   H     0.73684   0.55336   0.03891   0.00000  Uiso   1.00
H418   H     0.82810   0.51664   0.09758   0.00000  Uiso   1.00
H419   H     0.90138   0.41895   0.09847   0.00000  Uiso   1.00
H420   H     0.73082   0.57349   0.47814   0.00000  Uiso   1.00
H421   H     0.75130   0.56734   0.40636   0.00000  Uiso   1.00
H422   H     0.84907   0.49110   0.40145   0.00000  Uiso   1.00
H423   H     0.86346   0.44693   0.43007   0.00000  Uiso   1.00
H424   H     0.91081   0.39950   0.02850   0.00000  Uiso   1.00
C425   C     0.99316   0.50986   0.23953   0.00000  Uiso   1.00
H426   H     0.68249   0.52994   0.21922   0.00000  Uiso   1.00
C427   C     0.67362   0.48954   0.26313   0.00000  Uiso   1.00
C428   C     0.84753   0.65548   0.23826   0.00000  Uiso   1.00
H429   H     0.87458   0.33611   0.21634   0.00000  Uiso   1.00
C430   C     0.81826   0.34541   0.26213   0.00000  Uiso   1.00
H431   H     0.79079   0.66556   0.28408   0.00000  Uiso   1.00
O432   O     0.97908   0.46082   0.28688   0.00000  Uiso   1.00
C433   C     0.99022   0.46038   0.32224   0.00000  Uiso   1.00
H434   H     0.99653   0.49271   0.33627   0.00000  Uiso   1.00
H435   H     0.68573   0.44353   0.31656   0.00000  Uiso   1.00
C436   C     0.95298   0.43760   0.35101   0.00000  Uiso   1.00
H437   H     0.94614   0.40493   0.33839   0.00000  Uiso   1.00
H438   H     0.96135   0.43709   0.37896   0.00000  Uiso   1.00
H439   H     0.92370   0.45385   0.35734   0.00000  Uiso   1.00
N440   N     0.90694   0.40597   0.45853   0.00000  Uiso   1.00
O441   O     0.94689   0.41098   0.45958   0.00000  Uiso   1.00
O442   O     0.89561   0.37889   0.43175   0.00000  Uiso   1.00
O443   O     0.76473   0.51568   0.08325   0.00000  Uiso   1.00
C444   C     0.73614   0.47882   0.09046   0.00000  Uiso   1.00
H445   H     0.75339   0.45046   0.07988   0.00000  Uiso   1.00
H446   H     0.70991   0.47718   0.07588   0.00000  Uiso   1.00
C447   C     0.71582   0.47892   0.13453   0.00000  Uiso   1.00
H448   H     0.69754   0.50640   0.14582   0.00000  Uiso   1.00
H449   H     0.69340   0.44997   0.14070   0.00000  Uiso   1.00
H450   H     0.74118   0.48038   0.14995   0.00000  Uiso   1.00
Zn451  Zn    0.19244   0.80756   0.28277   0.00000  Uiso   1.00
Zn452  Zn    0.13459   0.79044   0.22257   0.00000  Uiso   1.00
Zn453  Zn    0.21166   0.86331   0.21188   0.00000  Uiso   1.00
Zn454  Zn    0.12798   0.87202   0.28277   0.00000  Uiso   1.00
O455   O     0.16667   0.83333   0.25000   0.00000  Uiso   1.00
O456   O     0.06990   0.85627   0.27820   0.00000  Uiso   1.00
O457   O     0.25440   0.81944   0.26767   0.00000  Uiso   1.00
O458   O     0.13800   0.73570   0.23607   0.00000  Uiso   1.00
O459   O     0.20437   0.92193   0.21805   0.00000  Uiso   1.00
O460   O     0.15693   0.79060   0.16625   0.00000  Uiso   1.00
O461   O     0.12687   0.87313   0.33749   0.00000  Uiso   1.00
O462   O     0.21088   0.84159   0.15877   0.00000  Uiso   1.00
O463   O     0.17198   0.82802   0.33749   0.00000  Uiso   1.00
O464   O     0.17849   0.74768   0.27820   0.00000  Uiso   1.00
O465   O     0.14581   0.92803   0.26767   0.00000  Uiso   1.00
O466   O     0.07452   0.79917   0.23607   0.00000  Uiso   1.00
O467   O     0.26785   0.85845   0.21805   0.00000  Uiso   1.00
C468   C     0.05277   0.82682   0.25833   0.00000  Uiso   1.00
C469   C     0.28095   0.84006   0.24142   0.00000  Uiso   1.00
C470   C     0.15592   0.72278   0.25892   0.00000  Uiso   1.00
C471   C     0.17684   0.94430   0.24139   0.00000  Uiso   1.00
C472   C     0.18818   0.81176   0.14415   0.00000  Uiso   1.00
C473   C     0.14549   0.85436   0.35616   0.00000  Uiso   1.00
C474   C     0.13437   0.86066   0.39937   0.00000  Uiso   1.00
C475   C     0.19664   0.80219   0.10188   0.00000  Uiso   1.00
C476   C     0.08969   0.88803   0.46194   0.00000  Uiso   1.00
C477   C     0.10149   0.88474   0.42101   0.00000  Uiso   1.00
C478   C     0.15561   0.84046   0.41911   0.00000  Uiso   1.00
C479   C     0.14298   0.84175   0.46041   0.00000  Uiso   1.00
C480   C     0.11004   0.86670   0.48175   0.00000  Uiso   1.00
C481   C     0.16259   0.81954   0.48100   0.00000  Uiso   1.00
C482   C     0.15256   0.82662   0.02273   0.00000  Uiso   1.00
C483   C     0.11648   0.84870   0.04318   0.00000  Uiso   1.00
C484   C     0.09680   0.86927   0.02259   0.00000  Uiso   1.00
C485   C     0.19085   0.78952   0.46118   0.00000  Uiso   1.00
C486   C     0.21152   0.76897   0.48091   0.00000  Uiso   1.00
C487   C     0.20527   0.77895   0.02166   0.00000  Uiso   1.00
C488   C     0.17757   0.80962   0.04233   0.00000  Uiso   1.00
C489   C     0.22530   0.75827   0.04254   0.00000  Uiso   1.00
C490   C     0.22017   0.76928   0.08257   0.00000  Uiso   1.00
C491   C     0.17680   0.82304   0.08178   0.00000  Uiso   1.00
H492   H     0.07017   0.88670   0.03891   0.00000  Uiso   1.00
H493   H     0.16144   0.84998   0.09758   0.00000  Uiso   1.00
H494   H     0.23471   0.75229   0.09847   0.00000  Uiso   1.00
H495   H     0.06415   0.90682   0.47814   0.00000  Uiso   1.00
H496   H     0.08463   0.90068   0.40636   0.00000  Uiso   1.00
H497   H     0.18241   0.82444   0.40145   0.00000  Uiso   1.00
H498   H     0.19680   0.78027   0.43007   0.00000  Uiso   1.00
H499   H     0.24415   0.73283   0.02850   0.00000  Uiso   1.00
C500   C     0.32649   0.84320   0.23953   0.00000  Uiso   1.00
H501   H     0.01582   0.86327   0.21922   0.00000  Uiso   1.00
C502   C     0.00696   0.82287   0.26313   0.00000  Uiso   1.00
C503   C     0.18086   0.98881   0.23826   0.00000  Uiso   1.00
H504   H     0.20791   0.66944   0.21634   0.00000  Uiso   1.00
C505   C     0.15159   0.67875   0.26213   0.00000  Uiso   1.00
H506   H     0.12412   0.99889   0.28408   0.00000  Uiso   1.00
O507   O     0.31241   0.79416   0.28688   0.00000  Uiso   1.00
C508   C     0.32356   0.79372   0.32224   0.00000  Uiso   1.00
H509   H     0.32987   0.82604   0.33627   0.00000  Uiso   1.00
H510   H     0.01906   0.77687   0.31656   0.00000  Uiso   1.00
C511   C     0.28631   0.77093   0.35101   0.00000  Uiso   1.00
H512   H     0.27947   0.73826   0.33839   0.00000  Uiso   1.00
H513   H     0.29468   0.77043   0.37896   0.00000  Uiso   1.00
H514   H     0.25704   0.78718   0.35734   0.00000  Uiso   1.00
N515   N     0.24027   0.73930   0.45853   0.00000  Uiso   1.00
O516   O     0.28022   0.74432   0.45958   0.00000  Uiso   1.00
O517   O     0.22895   0.71223   0.43175   0.00000  Uiso   1.00
O518   O     0.09806   0.84902   0.08325   0.00000  Uiso   1.00
C519   C     0.06947   0.81215   0.09046   0.00000  Uiso   1.00
H520   H     0.08673   0.78380   0.07988   0.00000  Uiso   1.00
H521   H     0.04324   0.81052   0.07588   0.00000  Uiso   1.00
C522   C     0.04915   0.81225   0.13453   0.00000  Uiso   1.00
H523   H     0.03088   0.83973   0.14582   0.00000  Uiso   1.00
H524   H     0.02674   0.78331   0.14070   0.00000  Uiso   1.00
H525   H     0.07451   0.81371   0.14995   0.00000  Uiso   1.00
Zn526  Zn    0.52577   0.80756   0.28277   0.00000  Uiso   1.00
Zn527  Zn    0.46792   0.79044   0.22257   0.00000  Uiso   1.00
Zn528  Zn    0.54500   0.86331   0.21188   0.00000  Uiso   1.00
Zn529  Zn    0.46131   0.87202   0.28277   0.00000  Uiso   1.00
O530   O     0.50000   0.83333   0.25000   0.00000  Uiso   1.00
O531   O     0.40323   0.85627   0.27820   0.00000  Uiso   1.00
O532   O     0.58773   0.81944   0.26767   0.00000  Uiso   1.00
O533   O     0.47133   0.73570   0.23607   0.00000  Uiso   1.00
O534   O     0.53771   0.92193   0.21805   0.00000  Uiso   1.00
O535   O     0.49027   0.79060   0.16625   0.00000  Uiso   1.00
O536   O     0.46020   0.87313   0.33749   0.00000  Uiso   1.00
O537   O     0.54421   0.84159   0.15877   0.00000  Uiso   1.00
O538   O     0.50532   0.82802   0.33749   0.00000  Uiso   1.00
O539   O     0.51182   0.74768   0.27820   0.00000  Uiso   1.00
O540   O     0.47914   0.92803   0.26767   0.00000  Uiso   1.00
O541   O     0.40785   0.79917   0.23607   0.00000  Uiso   1.00
O542   O     0.60119   0.85845   0.21805   0.00000  Uiso   1.00
C543   C     0.38611   0.82682   0.25833   0.00000  Uiso   1.00
C544   C     0.61428   0.84006   0.24142   0.00000  Uiso   1.00
C545   C     0.48925   0.72278   0.25892   0.00000  Uiso   1.00
C546   C     0.51017   0.94430   0.24139   0.00000  Uiso   1.00
C547   C     0.52152   0.81176   0.14415   0.00000  Uiso   1.00
C548   C     0.47882   0.85436   0.35616   0.00000  Uiso   1.00
C549   C     0.46770   0.86066   0.39937   0.00000  Uiso   1.00
C550   C     0.52997   0.80219   0.10188   0.00000  Uiso   1.00
C551   C     0.42302   0.88803   0.46194   0.00000  Uiso   1.00
C552   C     0.43483   0.88474   0.42101   0.00000  Uiso   1.00
C553   C     0.48894   0.84046   0.41911   0.00000  Uiso   1.00
C554   C     0.47632   0.84175   0.46041   0.00000  Uiso   1.00
C555   C     0.44337   0.86670   0.48175   0.00000  Uiso   1.00
C556   C     0.49593   0.81954   0.48100   0.00000  Uiso   1.00
C557   C     0.48589   0.82662   0.02273   0.00000  Uiso   1.00
C558   C     0.44982   0.84870   0.04318   0.00000  Uiso   1.00
C559   C     0.43014   0.86927   0.02259   0.00000  Uiso   1.00
C560   C     0.52418   0.78952   0.46118   0.00000  Uiso   1.00
C561   C     0.54486   0.76897   0.48091   0.00000  Uiso   1.00
C562   C     0.53860   0.77895   0.02166   0.00000  Uiso   1.00
C563   C     0.51090   0.80962   0.04233   0.00000  Uiso   1.00
C564   C     0.55863   0.75827   0.04254   0.00000  Uiso   1.00
C565   C     0.55350   0.76928   0.08257   0.00000  Uiso   1.00
C566   C     0.51013   0.82304   0.08178   0.00000  Uiso   1.00
H567   H     0.40350   0.88670   0.03891   0.00000  Uiso   1.00
H568   H     0.49477   0.84998   0.09758   0.00000  Uiso   1.00
H569   H     0.56804   0.75229   0.09847   0.00000  Uiso   1.00
H570   H     0.39749   0.90682   0.47814   0.00000  Uiso   1.00
H571   H     0.41796   0.90068   0.40636   0.00000  Uiso   1.00
H572   H     0.51574   0.82444   0.40145   0.00000  Uiso   1.00
H573   H     0.53013   0.78027   0.43007   0.00000  Uiso   1.00
H574   H     0.57748   0.73283   0.02850   0.00000  Uiso   1.00
C575   C     0.65983   0.84320   0.23953   0.00000  Uiso   1.00
H576   H     0.34916   0.86327   0.21922   0.00000  Uiso   1.00
C577   C     0.34029   0.82287   0.26313   0.00000  Uiso   1.00
C578   C     0.51420   0.98881   0.23826   0.00000  Uiso   1.00
H579   H     0.54124   0.66944   0.21634   0.00000  Uiso   1.00
C580   C     0.48492   0.67875   0.26213   0.00000  Uiso   1.00
H581   H     0.45746   0.99889   0.28408   0.00000  Uiso   1.00
O582   O     0.64574   0.79416   0.28688   0.00000  Uiso   1.00
C583   C     0.65689   0.79372   0.32224   0.00000  Uiso   1.00
H584   H     0.66320   0.82604   0.33627   0.00000  Uiso   1.00
H585   H     0.35240   0.77687   0.31656   0.00000  Uiso   1.00
C586   C     0.61965   0.77093   0.35101   0.00000  Uiso   1.00
H587   H     0.61281   0.73826   0.33839   0.00000  Uiso   1.00
H588   H     0.62801   0.77043   0.37896   0.00000  Uiso   1.00
H589   H     0.59037   0.78718   0.35734   0.00000  Uiso   1.00
N590   N     0.57360   0.73930   0.45853   0.00000  Uiso   1.00
O591   O     0.61356   0.74432   0.45958   0.00000  Uiso   1.00
O592   O     0.56228   0.71223   0.43175   0.00000  Uiso   1.00
O593   O     0.43139   0.84902   0.08325   0.00000  Uiso   1.00
C594   C     0.40281   0.81215   0.09046   0.00000  Uiso   1.00
H595   H     0.42006   0.78380   0.07988   0.00000  Uiso   1.00
H596   H     0.37658   0.81052   0.07588   0.00000  Uiso   1.00
C597   C     0.38248   0.81225   0.13453   0.00000  Uiso   1.00
H598   H     0.36421   0.83973   0.14582   0.00000  Uiso   1.00
H599   H     0.36007   0.78331   0.14070   0.00000  Uiso   1.00
H600   H     0.40785   0.81371   0.14995   0.00000  Uiso   1.00
Zn601  Zn    0.85910   0.80756   0.28277   0.00000  Uiso   1.00
Zn602  Zn    0.80125   0.79044   0.22257   0.00000  Uiso   1.00
Zn603  Zn    0.87833   0.86331   0.21188   0.00000  Uiso   1.00
Zn604  Zn    0.79465   0.87202   0.28277   0.00000  Uiso   1.00
O605   O     0.83333   0.83333   0.25000   0.00000  Uiso   1.00
O606   O     0.73656   0.85627   0.27820   0.00000  Uiso   1.00
O607   O     0.92106   0.81944   0.26767   0.00000  Uiso   1.00
O608   O     0.80467   0.73570   0.23607   0.00000  Uiso   1.00
O609   O     0.87104   0.92193   0.21805   0.00000  Uiso   1.00
O610   O     0.82360   0.79060   0.16625   0.00000  Uiso   1.00
O611   O     0.79354   0.87313   0.33749   0.00000  Uiso   1.00
O612   O     0.87755   0.84159   0.15877   0.00000  Uiso   1.00
O613   O     0.83865   0.82802   0.33749   0.00000  Uiso   1.00
O614   O     0.84515   0.74768   0.27820   0.00000  Uiso   1.00
O615   O     0.81247   0.92803   0.26767   0.00000  Uiso   1.00
O616   O     0.74119   0.79917   0.23607   0.00000  Uiso   1.00
O617   O     0.93452   0.85845   0.21805   0.00000  Uiso   1.00
C618   C     0.71944   0.82682   0.25833   0.00000  Uiso   1.00
C619   C     0.94762   0.84006   0.24142   0.00000  Uiso   1.00
C620   C     0.82259   0.72278   0.25892   0.00000  Uiso   1.00
C621   C     0.84350   0.94430   0.24139   0.00000  Uiso   1.00
C622   C     0.85485   0.81176   0.14415   0.00000  Uiso   1.00
C623   C     0.81216   0.85436   0.35616   0.00000  Uiso   1.00
C624   C     0.80104   0.86066   0.39937   0.00000  Uiso   1.00
C625   C     0.86331   0.80219   0.10188   0.00000  Uiso   1.00
C626   C     0.75635   0.88803   0.46194   0.00000  Uiso   1.00
C627   C     0.76816   0.88474   0.42101   0.00000  Uiso   1.00
C628   C     0.82227   0.84046   0.41911   0.00000  Uiso   1.00
C629   C     0.80965   0.84175   0.46041   0.00000  Uiso   1.00
C630   C     0.77671   0.86670   0.48175   0.00000  Uiso   1.00
C631   C     0.82926   0.81954   0.48100   0.00000  Uiso   1.00
C632   C     0.81923   0.82662   0.02273   0.00000  Uiso   1.00
C633   C     0.78315   0.84870   0.04318   0.00000  Uiso   1.00
C634   C     0.76347   0.86927   0.02259   0.00000  Uiso   1.00
C635   C     0.85751   0.78952   0.46118   0.00000  Uiso   1.00
C636   C     0.87819   0.76897   0.48091   0.00000  Uiso   1.00
C637   C     0.87194   0.77895   0.02166   0.00000  Uiso   1.00
C638   C     0.84423   0.80962   0.04233   0.00000  Uiso   1.00
C639   C     0.89197   0.75827   0.04254   0.00000  Uiso   1.00
C640   C     0.88684   0.76928   0.08257   0.00000  Uiso   1.00
C641   C     0.84347   0.82304   0.08178   0.00000  Uiso   1.00
H642   H     0.73684   0.88670   0.03891   0.00000  Uiso   1.00
H643   H     0.82810   0.84998   0.09758   0.00000  Uiso   1.00
H644   H     0.90138   0.75229   0.09847   0.00000  Uiso   1.00
H645   H     0.73082   0.90682   0.47814   0.00000  Uiso   1.00
H646   H     0.75130   0.90068   0.40636   0.00000  Uiso   1.00
H647   H     0.84907   0.82444   0.40145   0.00000  Uiso   1.00
H648   H     0.86346   0.78027   0.43007   0.00000  Uiso   1.00
H649   H     0.91081   0.73283   0.02850   0.00000  Uiso   1.00
C650   C     0.99316   0.84320   0.23953   0.00000  Uiso   1.00
H651   H     0.68249   0.86327   0.21922   0.00000  Uiso   1.00
C652   C     0.67362   0.82287   0.26313   0.00000  Uiso   1.00
C653   C     0.84753   0.98881   0.23826   0.00000  Uiso   1.00
H654   H     0.87458   0.66944   0.21634   0.00000  Uiso   1.00
C655   C     0.81826   0.67875   0.26213   0.00000  Uiso   1.00
H656   H     0.79079   0.99889   0.28408   0.00000  Uiso   1.00
O657   O     0.97908   0.79416   0.28688   0.00000  Uiso   1.00
C658   C     0.99022   0.79372   0.32224   0.00000  Uiso   1.00
H659   H     0.99653   0.82604   0.33627   0.00000  Uiso   1.00
H660   H     0.68573   0.77687   0.31656   0.00000  Uiso   1.00
C661   C     0.95298   0.77093   0.35101   0.00000  Uiso   1.00
H662   H     0.94614   0.73826   0.33839   0.00000  Uiso   1.00
H663   H     0.96135   0.77043   0.37896   0.00000  Uiso   1.00
H664   H     0.92370   0.78718   0.35734   0.00000  Uiso   1.00
N665   N     0.90694   0.73930   0.45853   0.00000  Uiso   1.00
O666   O     0.94689   0.74432   0.45958   0.00000  Uiso   1.00
O667   O     0.89561   0.71223   0.43175   0.00000  Uiso   1.00
O668   O     0.76473   0.84902   0.08325   0.00000  Uiso   1.00
C669   C     0.73614   0.81215   0.09046   0.00000  Uiso   1.00
H670   H     0.75339   0.78380   0.07988   0.00000  Uiso   1.00
H671   H     0.70991   0.81052   0.07588   0.00000  Uiso   1.00
C672   C     0.71582   0.81225   0.13453   0.00000  Uiso   1.00
H673   H     0.69754   0.83973   0.14582   0.00000  Uiso   1.00
H674   H     0.69340   0.78331   0.14070   0.00000  Uiso   1.00
H675   H     0.74118   0.81371   0.14995   0.00000  Uiso   1.00
Zn676  Zn    0.19244   0.14090   0.78277   0.00000  Uiso   1.00
Zn677  Zn    0.13459   0.12378   0.72257   0.00000  Uiso   1.00
Zn678  Zn    0.21166   0.19664   0.71188   0.00000  Uiso   1.00
Zn679  Zn    0.12798   0.20535   0.78277   0.00000  Uiso   1.00
O680   O     0.16667   0.16667   0.75000   0.00000  Uiso   1.00
O681   O     0.06990   0.18960   0.77820   0.00000  Uiso   1.00
O682   O     0.25440   0.15277   0.76767   0.00000  Uiso   1.00
O683   O     0.13800   0.06903   0.73607   0.00000  Uiso   1.00
O684   O     0.20437   0.25527   0.71805   0.00000  Uiso   1.00
O685   O     0.15693   0.12393   0.66625   0.00000  Uiso   1.00
O686   O     0.12687   0.20646   0.83749   0.00000  Uiso   1.00
O687   O     0.21088   0.17493   0.65877   0.00000  Uiso   1.00
O688   O     0.17198   0.16135   0.83749   0.00000  Uiso   1.00
O689   O     0.17849   0.08101   0.77820   0.00000  Uiso   1.00
O690   O     0.14581   0.26136   0.76767   0.00000  Uiso   1.00
O691   O     0.07452   0.13251   0.73607   0.00000  Uiso   1.00
O692   O     0.26785   0.19179   0.71805   0.00000  Uiso   1.00
C693   C     0.05277   0.16016   0.75833   0.00000  Uiso   1.00
C694   C     0.28095   0.17339   0.74142   0.00000  Uiso   1.00
C695   C     0.15592   0.05611   0.75892   0.00000  Uiso   1.00
C696   C     0.17684   0.27763   0.74139   0.00000  Uiso   1.00
C697   C     0.18818   0.14509   0.64415   0.00000  Uiso   1.00
C698   C     0.14549   0.18770   0.85616   0.00000  Uiso   1.00
C699   C     0.13437   0.19399   0.89937   0.00000  Uiso   1.00
C700   C     0.19664   0.13552   0.60188   0.00000  Uiso   1.00
C701   C     0.08969   0.22137   0.96194   0.00000  Uiso   1.00
C702   C     0.10149   0.21807   0.92101   0.00000  Uiso   1.00
C703   C     0.15561   0.17379   0.91911   0.00000  Uiso   1.00
C704   C     0.14298   0.17508   0.96041   0.00000  Uiso   1.00
C705   C     0.11004   0.20003   0.98175   0.00000  Uiso   1.00
C706   C     0.16259   0.15288   0.98100   0.00000  Uiso   1.00
C707   C     0.15256   0.15996   0.52273   0.00000  Uiso   1.00
C708   C     0.11648   0.18204   0.54318   0.00000  Uiso   1.00
C709   C     0.09680   0.20260   0.52259   0.00000  Uiso   1.00
C710   C     0.19085   0.12286   0.96118   0.00000  Uiso   1.00
C711   C     0.21152   0.10230   0.98091   0.00000  Uiso   1.00
C712   C     0.20527   0.11229   0.52166   0.00000  Uiso   1.00
C713   C     0.17757   0.14296   0.54233   0.00000  Uiso   1.00
C714   C     0.22530   0.09161   0.54254   0.00000  Uiso   1.00
C715   C     0.22017   0.10261   0.58257   0.00000  Uiso   1.00
C716   C     0.17680   0.15637   0.58178   0.00000  Uiso   1.00
H717   H     0.07017   0.22003   0.53891   0.00000  Uiso   1.00
H718   H     0.16144   0.18331   0.59758   0.00000  Uiso   1.00
H719   H     0.23471   0.08562   0.59847   0.00000  Uiso   1.00
H720   H     0.06415   0.24016   0.97814   0.00000  Uiso   1.00
H721   H     0.08463   0.23401   0.90636   0.00000  Uiso   1.00
H722   H     0.18241   0.15777   0.90145   0.00000  Uiso   1.00
H723   H     0.19680   0.11360   0.93007   0.00000  Uiso   1.00
H724   H     0.24415   0.06617   0.52850   0.00000  Uiso   1.00
C725   C     0.32649   0.17653   0.73953   0.00000  Uiso   1.00
H726   H     0.01582   0.19661   0.71922   0.00000  Uiso   1.00
C727   C     0.00696   0.15621   0.76313   0.00000  Uiso   1.00
C728   C     0.18086   0.32215   0.73826   0.00000  Uiso   1.00
H729   H     0.20791   0.00277   0.71634   0.00000  Uiso   1.00
C730   C     0.15159   0.01208   0.76213   0.00000  Uiso   1.00
H731   H     0.12412   0.33222   0.78408   0.00000  Uiso   1.00
O732   O     0.31241   0.12749   0.78688   0.00000  Uiso   1.00
C733   C     0.32356   0.12705   0.82224   0.00000  Uiso   1.00
H734   H     0.32987   0.15938   0.83627   0.00000  Uiso   1.00
H735   H     0.01906   0.11020   0.81656   0.00000  Uiso   1.00
C736   C     0.28631   0.10427   0.85101   0.00000  Uiso   1.00
H737   H     0.27947   0.07159   0.83839   0.00000  Uiso   1.00
H738   H     0.29468   0.10376   0.87896   0.00000  Uiso   1.00
H739   H     0.25704   0.12051   0.85734   0.00000  Uiso   1.00
N740   N     0.24027   0.07263   0.95853   0.00000  Uiso   1.00
O741   O     0.28022   0.07765   0.95958   0.00000  Uiso   1.00
O742   O     0.22895   0.04556   0.93175   0.00000  Uiso   1.00
O743   O     0.09806   0.18235   0.58325   0.00000  Uiso   1.00
C744   C     0.06947   0.14548   0.59046   0.00000  Uiso   1.00
H745   H     0.08673   0.11713   0.57988   0.00000  Uiso   1.00
H746   H     0.04324   0.14385   0.57588   0.00000  Uiso   1.00
C747   C     0.04915   0.14559   0.63453   0.00000  Uiso   1.00
H748   H     0.03088   0.17307   0.64582   0.00000  Uiso   1.00
H749   H     0.02674   0.11664   0.64070   0.00000  Uiso   1.00
H750   H     0.07451   0.14704   0.64995   0.00000  Uiso   1.00
Zn751  Zn    0.52577   0.14090   0.78277   0.00000  Uiso   1.00
Zn752  Zn    0.46792   0.12378   0.72257   0.00000  Uiso   1.00
Zn753  Zn    0.54500   0.19664   0.71188   0.00000  Uiso   1.00
Zn754  Zn    0.46131   0.20535   0.78277   0.00000  Uiso   1.00
O755   O     0.50000   0.16667   0.75000   0.00000  Uiso   1.00
O756   O     0.40323   0.18960   0.77820   0.00000  Uiso   1.00
O757   O     0.58773   0.15277   0.76767   0.00000  Uiso   1.00
O758   O     0.47133   0.06903   0.73607   0.00000  Uiso   1.00
O759   O     0.53771   0.25527   0.71805   0.00000  Uiso   1.00
O760   O     0.49027   0.12393   0.66625   0.00000  Uiso   1.00
O761   O     0.46020   0.20646   0.83749   0.00000  Uiso   1.00
O762   O     0.54421   0.17493   0.65877   0.00000  Uiso   1.00
O763   O     0.50532   0.16135   0.83749   0.00000  Uiso   1.00
O764   O     0.51182   0.08101   0.77820   0.00000  Uiso   1.00
O765   O     0.47914   0.26136   0.76767   0.00000  Uiso   1.00
O766   O     0.40785   0.13251   0.73607   0.00000  Uiso   1.00
O767   O     0.60119   0.19179   0.71805   0.00000  Uiso   1.00
C768   C     0.38611   0.16016   0.75833   0.00000  Uiso   1.00
C769   C     0.61428   0.17339   0.74142   0.00000  Uiso   1.00
C770   C     0.48925   0.05611   0.75892   0.00000  Uiso   1.00
C771   C     0.51017   0.27763   0.74139   0.00000  Uiso   1.00
C772   C     0.52152   0.14509   0.64415   0.00000  Uiso   1.00
C773   C     0.47882   0.18770   0.85616   0.00000  Uiso   1.00
C774   C     0.46770   0.19399   0.89937   0.00000  Uiso   1.00
C775   C     0.52997   0.13552   0.60188   0.00000  Uiso   1.00
C776   C     0.42302   0.22137   0.96194   0.00000  Uiso   1.00
C777   C     0.43483   0.21807   0.92101   0.00000  Uiso   1.00
C778   C     0.48894   0.17379   0.91911   0.00000  Uiso   1.00
C779   C     0.47632   0.17508   0.96041   0.00000  Uiso   1.00
C780   C     0.44337   0.20003   0.98175   0.00000  Uiso   1.00
C781   C     0.49593   0.15288   0.98100   0.00000  Uiso   1.00
C782   C     0.48589   0.15996   0.52273   0.00000  Uiso   1.00
C783   C     0.44982   0.18204   0.54318   0.00000  Uiso   1.00
C784   C     0.43014   0.20260   0.52259   0.00000  Uiso   1.00
C785   C     0.52418   0.12286   0.96118   0.00000  Uiso   1.00
C786   C     0.54486   0.10230   0.98091   0.00000  Uiso   1.00
C787   C     0.53860   0.11229   0.52166   0.00000  Uiso   1.00
C788   C     0.51090   0.14296   0.54233   0.00000  Uiso   1.00
C789   C     0.55863   0.09161   0.54254   0.00000  Uiso   1.00
C790   C     0.55350   0.10261   0.58257   0.00000  Uiso   1.00
C791   C     0.51013   0.15637   0.58178   0.00000  Uiso   1.00
H792   H     0.40350   0.22003   0.53891   0.00000  Uiso   1.00
H793   H     0.49477   0.18331   0.59758   0.00000  Uiso   1.00
H794   H     0.56804   0.08562   0.59847   0.00000  Uiso   1.00
H795   H     0.39749   0.24016   0.97814   0.00000  Uiso   1.00
H796   H     0.41796   0.23401   0.90636   0.00000  Uiso   1.00
H797   H     0.51574   0.15777   0.90145   0.00000  Uiso   1.00
H798   H     0.53013   0.11360   0.93007   0.00000  Uiso   1.00
H799   H     0.57748   0.06617   0.52850   0.00000  Uiso   1.00
C800   C     0.65983   0.17653   0.73953   0.00000  Uiso   1.00
H801   H     0.34916   0.19661   0.71922   0.00000  Uiso   1.00
C802   C     0.34029   0.15621   0.76313   0.00000  Uiso   1.00
C803   C     0.51420   0.32215   0.73826   0.00000  Uiso   1.00
H804   H     0.54124   0.00277   0.71634   0.00000  Uiso   1.00
C805   C     0.48492   0.01208   0.76213   0.00000  Uiso   1.00
H806   H     0.45746   0.33222   0.78408   0.00000  Uiso   1.00
O807   O     0.64574   0.12749   0.78688   0.00000  Uiso   1.00
C808   C     0.65689   0.12705   0.82224   0.00000  Uiso   1.00
H809   H     0.66320   0.15938   0.83627   0.00000  Uiso   1.00
H810   H     0.35240   0.11020   0.81656   0.00000  Uiso   1.00
C811   C     0.61965   0.10427   0.85101   0.00000  Uiso   1.00
H812   H     0.61281   0.07159   0.83839   0.00000  Uiso   1.00
H813   H     0.62801   0.10376   0.87896   0.00000  Uiso   1.00
H814   H     0.59037   0.12051   0.85734   0.00000  Uiso   1.00
N815   N     0.57360   0.07263   0.95853   0.00000  Uiso   1.00
O816   O     0.61356   0.07765   0.95958   0.00000  Uiso   1.00
O817   O     0.56228   0.04556   0.93175   0.00000  Uiso   1.00
O818   O     0.43139   0.18235   0.58325   0.00000  Uiso   1.00
C819   C     0.40281   0.14548   0.59046   0.00000  Uiso   1.00
H820   H     0.42006   0.11713   0.57988   0.00000  Uiso   1.00
H821   H     0.37658   0.14385   0.57588   0.00000  Uiso   1.00
C822   C     0.38248   0.14559   0.63453   0.00000  Uiso   1.00
H823   H     0.36421   0.17307   0.64582   0.00000  Uiso   1.00
H824   H     0.36007   0.11664   0.64070   0.00000  Uiso   1.00
H825   H     0.40785   0.14704   0.64995   0.00000  Uiso   1.00
Zn826  Zn    0.85910   0.14090   0.78277   0.00000  Uiso   1.00
Zn827  Zn    0.80125   0.12378   0.72257   0.00000  Uiso   1.00
Zn828  Zn    0.87833   0.19664   0.71188   0.00000  Uiso   1.00
Zn829  Zn    0.79465   0.20535   0.78277   0.00000  Uiso   1.00
O830   O     0.83333   0.16667   0.75000   0.00000  Uiso   1.00
O831   O     0.73656   0.18960   0.77820   0.00000  Uiso   1.00
O832   O     0.92106   0.15277   0.76767   0.00000  Uiso   1.00
O833   O     0.80467   0.06903   0.73607   0.00000  Uiso   1.00
O834   O     0.87104   0.25527   0.71805   0.00000  Uiso   1.00
O835   O     0.82360   0.12393   0.66625   0.00000  Uiso   1.00
O836   O     0.79354   0.20646   0.83749   0.00000  Uiso   1.00
O837   O     0.87755   0.17493   0.65877   0.00000  Uiso   1.00
O838   O     0.83865   0.16135   0.83749   0.00000  Uiso   1.00
O839   O     0.84515   0.08101   0.77820   0.00000  Uiso   1.00
O840   O     0.81247   0.26136   0.76767   0.00000  Uiso   1.00
O841   O     0.74119   0.13251   0.73607   0.00000  Uiso   1.00
O842   O     0.93452   0.19179   0.71805   0.00000  Uiso   1.00
C843   C     0.71944   0.16016   0.75833   0.00000  Uiso   1.00
C844   C     0.94762   0.17339   0.74142   0.00000  Uiso   1.00
C845   C     0.82259   0.05611   0.75892   0.00000  Uiso   1.00
C846   C     0.84350   0.27763   0.74139   0.00000  Uiso   1.00
C847   C     0.85485   0.14509   0.64415   0.00000  Uiso   1.00
C848   C     0.81216   0.18770   0.85616   0.00000  Uiso   1.00
C849   C     0.80104   0.19399   0.89937   0.00000  Uiso   1.00
C850   C     0.86331   0.13552   0.60188   0.00000  Uiso   1.00
C851   C     0.75635   0.22137   0.96194   0.00000  Uiso   1.00
C852   C     0.76816   0.21807   0.92101   0.00000  Uiso   1.00
C853   C     0.82227   0.17379   0.91911   0.00000  Uiso   1.00
C854   C     0.80965   0.17508   0.96041   0.00000  Uiso   1.00
C855   C     0.77671   0.20003   0.98175   0.00000  Uiso   1.00
C856   C     0.82926   0.15288   0.98100   0.00000  Uiso   1.00
C857   C     0.81923   0.15996   0.52273   0.00000  Uiso   1.00
C858   C     0.78315   0.18204   0.54318   0.00000  Uiso   1.00
C859   C     0.76347   0.20260   0.52259   0.00000  Uiso   1.00
C860   C     0.85751   0.12286   0.96118   0.00000  Uiso   1.00
C861   C     0.87819   0.10230   0.98091   0.00000  Uiso   1.00
C862   C     0.87194   0.11229   0.52166   0.00000  Uiso   1.00
C863   C     0.84423   0.14296   0.54233   0.00000  Uiso   1.00
C864   C     0.89197   0.09161   0.54254   0.00000  Uiso   1.00
C865   C     0.88684   0.10261   0.58257   0.00000  Uiso   1.00
C866   C     0.84347   0.15637   0.58178   0.00000  Uiso   1.00
H867   H     0.73684   0.22003   0.53891   0.00000  Uiso   1.00
H868   H     0.82810   0.18331   0.59758   0.00000  Uiso   1.00
H869   H     0.90138   0.08562   0.59847   0.00000  Uiso   1.00
H870   H     0.73082   0.24016   0.97814   0.00000  Uiso   1.00
H871   H     0.75130   0.23401   0.90636   0.00000  Uiso   1.00
H872   H     0.84907   0.15777   0.90145   0.00000  Uiso   1.00
H873   H     0.86346   0.11360   0.93007   0.00000  Uiso   1.00
H874   H     0.91081   0.06617   0.52850   0.00000  Uiso   1.00
C875   C     0.99316   0.17653   0.73953   0.00000  Uiso   1.00
H876   H     0.68249   0.19661   0.71922   0.00000  Uiso   1.00
C877   C     0.67362   0.15621   0.76313   0.00000  Uiso   1.00
C878   C     0.84753   0.32215   0.73826   0.00000  Uiso   1.00
H879   H     0.87458   0.00277   0.71634   0.00000  Uiso   1.00
C880   C     0.81826   0.01208   0.76213   0.00000  Uiso   1.00
H881   H     0.79079   0.33222   0.78408   0.00000  Uiso   1.00
O882   O     0.97908   0.12749   0.78688   0.00000  Uiso   1.00
C883   C     0.99022   0.12705   0.82224   0.00000  Uiso   1.00
H884   H     0.99653   0.15938   0.83627   0.00000  Uiso   1.00
H885   H     0.68573   0.11020   0.81656   0.00000  Uiso   1.00
C886   C     0.95298   0.10427   0.85101   0.00000  Uiso   1.00
H887   H     0.94614   0.07159   0.83839   0.00000  Uiso   1.00
H888   H     0.96135   0.10376   0.87896   0.00000  Uiso   1.00
H889   H     0.92370   0.12051   0.85734   0.00000  Uiso   1.00
N890   N     0.90694   0.07263   0.95853   0.00000  Uiso   1.00
O891   O     0.94689   0.07765   0.95958   0.00000  Uiso   1.00
O892   O     0.89561   0.04556   0.93175   0.00000  Uiso   1.00
O893   O     0.76473   0.18235   0.58325   0.00000  Uiso   1.00
C894   C     0.73614   0.14548   0.59046   0.00000  Uiso   1.00
H895   H     0.75339   0.11713   0.57988   0.00000  Uiso   1.00
H896   H     0.70991   0.14385   0.57588   0.00000  Uiso   1.00
C897   C     0.71582   0.14559   0.63453   0.00000  Uiso   1.00
H898   H     0.69754   0.17307   0.64582   0.00000  Uiso   1.00
H899   H     0.69340   0.11664   0.64070   0.00000  Uiso   1.00
H900   H     0.74118   0.14704   0.64995   0.00000  Uiso   1.00
Zn901  Zn    0.19244   0.47423   0.78277   0.00000  Uiso   1.00
Zn902  Zn    0.13459   0.45711   0.72257   0.00000  Uiso   1.00
Zn903  Zn    0.21166   0.52997   0.71188   0.00000  Uiso   1.00
Zn904  Zn    0.12798   0.53868   0.78277   0.00000  Uiso   1.00
O905   O     0.16667   0.50000   0.75000   0.00000  Uiso   1.00
O906   O     0.06990   0.52293   0.77820   0.00000  Uiso   1.00
O907   O     0.25440   0.48610   0.76767   0.00000  Uiso   1.00
O908   O     0.13800   0.40236   0.73607   0.00000  Uiso   1.00
O909   O     0.20437   0.58860   0.71805   0.00000  Uiso   1.00
O910   O     0.15693   0.45726   0.66625   0.00000  Uiso   1.00
O911   O     0.12687   0.53979   0.83749   0.00000  Uiso   1.00
O912   O     0.21088   0.50826   0.65877   0.00000  Uiso   1.00
O913   O     0.17198   0.49468   0.83749   0.00000  Uiso   1.00
O914   O     0.17849   0.41434   0.77820   0.00000  Uiso   1.00
O915   O     0.14581   0.59469   0.76767   0.00000  Uiso   1.00
O916   O     0.07452   0.46584   0.73607   0.00000  Uiso   1.00
O917   O     0.26785   0.52512   0.71805   0.00000  Uiso   1.00
C918   C     0.05277   0.49349   0.75833   0.00000  Uiso   1.00
C919   C     0.28095   0.50673   0.74142   0.00000  Uiso   1.00
C920   C     0.15592   0.38945   0.75892   0.00000  Uiso   1.00
C921   C     0.17684   0.61097   0.74139   0.00000  Uiso   1.00
C922   C     0.18818   0.47843   0.64415   0.00000  Uiso   1.00
C923   C     0.14549   0.52103   0.85616   0.00000  Uiso   1.00
C924   C     0.13437   0.52733   0.89937   0.00000  Uiso   1.00
C925   C     0.19664   0.46886   0.60188   0.00000  Uiso   1.00
C926   C     0.08969   0.55470   0.96194   0.00000  Uiso   1.00
C927   C     0.10149   0.55140   0.92101   0.00000  Uiso   1.00
C928   C     0.15561   0.50713   0.91911   0.00000  Uiso   1.00
C929   C     0.14298   0.50842   0.96041   0.00000  Uiso   1.00
C930   C     0.11004   0.53337   0.98175   0.00000  Uiso   1.00
C931   C     0.16259   0.48621   0.98100   0.00000  Uiso   1.00
C932   C     0.15256   0.49329   0.52273   0.00000  Uiso   1.00
C933   C     0.11648   0.51537   0.54318   0.00000  Uiso   1.00
C934   C     0.09680   0.53594   0.52259   0.00000  Uiso   1.00
C935   C     0.19085   0.45619   0.96118   0.00000  Uiso   1.00
C936   C     0.21152   0.43563   0.98091   0.00000  Uiso   1.00
C937   C     0.20527   0.44562   0.52166   0.00000  Uiso   1.00
C938   C     0.17757   0.47629   0.54233   0.00000  Uiso   1.00
C939   C     0.22530   0.42494   0.54254   0.00000  Uiso   1.00
C940   C     0.22017   0.43595   0.58257   0.00000  Uiso   1.00
C941   C     0.17680   0.48971   0.58178   0.00000  Uiso   1.00
H942   H     0.07017   0.55336   0.53891   0.00000  Uiso   1.00
H943   H     0.16144   0.51664   0.59758   0.00000  Uiso   1.00
H944   H     0.23471   0.41895   0.59847   0.00000  Uiso   1.00
H945   H     0.06415   0.57349   0.97814   0.00000  Uiso   1.00
H946   H     0.08463   0.56734   0.90636   0.00000  Uiso   1.00
H947   H     0.18241   0.49110   0.90145   0.00000  Uiso   1.00
H948   H     0.19680   0.44693   0.93007   0.00000  Uiso   1.00
H949   H     0.24415   0.39950   0.52850   0.00000  Uiso   1.00
C950   C     0.32649   0.50986   0.73953   0.00000  Uiso   1.00
H951   H     0.01582   0.52994   0.71922   0.00000  Uiso   1.00
C952   C     0.00696   0.48954   0.76313   0.00000  Uiso   1.00
C953   C     0.18086   0.65548   0.73826   0.00000  Uiso   1.00
H954   H     0.20791   0.33611   0.71634   0.00000  Uiso   1.00
C955   C     0.15159   0.34541   0.76213   0.00000  Uiso   1.00
H956   H     0.12412   0.66556   0.78408   0.00000  Uiso   1.00
O957   O     0.31241   0.46082   0.78688   0.00000  Uiso   1.00
C958   C     0.32356   0.46038   0.82224   0.00000  Uiso   1.00
H959   H     0.32987   0.49271   0.83627   0.00000  Uiso   1.00
H960   H     0.01906   0.44353   0.81656   0.00000  Uiso   1.00
C961   C     0.28631   0.43760   0.85101   0.00000  Uiso   1.00
H962   H     0.27947   0.40493   0.83839   0.00000  Uiso   1.00
H963   H     0.29468   0.43709   0.87896   0.00000  Uiso   1.00
H964   H     0.25704   0.45385   0.85734   0.00000  Uiso   1.00
N965   N     0.24027   0.40597   0.95853   0.00000  Uiso   1.00
O966   O     0.28022   0.41098   0.95958   0.00000  Uiso   1.00
O967   O     0.22895   0.37889   0.93175   0.00000  Uiso   1.00
O968   O     0.09806   0.51568   0.58325   0.00000  Uiso   1.00
C969   C     0.06947   0.47882   0.59046   0.00000  Uiso   1.00
H970   H     0.08673   0.45046   0.57988   0.00000  Uiso   1.00
H971   H     0.04324   0.47718   0.57588   0.00000  Uiso   1.00
C972   C     0.04915   0.47892   0.63453   0.00000  Uiso   1.00
H973   H     0.03088   0.50640   0.64582   0.00000  Uiso   1.00
H974   H     0.02674   0.44997   0.64070   0.00000  Uiso   1.00
H975   H     0.07451   0.48038   0.64995   0.00000  Uiso   1.00
Zn976  Zn    0.52577   0.47423   0.78277   0.00000  Uiso   1.00
Zn977  Zn    0.46792   0.45711   0.72257   0.00000  Uiso   1.00
Zn978  Zn    0.54500   0.52997   0.71188   0.00000  Uiso   1.00
Zn979  Zn    0.46131   0.53868   0.78277   0.00000  Uiso   1.00
O980   O     0.50000   0.50000   0.75000   0.00000  Uiso   1.00
O981   O     0.40323   0.52293   0.77820   0.00000  Uiso   1.00
O982   O     0.58773   0.48610   0.76767   0.00000  Uiso   1.00
O983   O     0.47133   0.40236   0.73607   0.00000  Uiso   1.00
O984   O     0.53771   0.58860   0.71805   0.00000  Uiso   1.00
O985   O     0.49027   0.45726   0.66625   0.00000  Uiso   1.00
O986   O     0.46020   0.53979   0.83749   0.00000  Uiso   1.00
O987   O     0.54421   0.50826   0.65877   0.00000  Uiso   1.00
O988   O     0.50532   0.49468   0.83749   0.00000  Uiso   1.00
O989   O     0.51182   0.41434   0.77820   0.00000  Uiso   1.00
O990   O     0.47914   0.59469   0.76767   0.00000  Uiso   1.00
O991   O     0.40785   0.46584   0.73607   0.00000  Uiso   1.00
O992   O     0.60119   0.52512   0.71805   0.00000  Uiso   1.00
C993   C     0.38611   0.49349   0.75833   0.00000  Uiso   1.00
C994   C     0.61428   0.50673   0.74142   0.00000  Uiso   1.00
C995   C     0.48925   0.38945   0.75892   0.00000  Uiso   1.00
C996   C     0.51017   0.61097   0.74139   0.00000  Uiso   1.00
C997   C     0.52152   0.47843   0.64415   0.00000  Uiso   1.00
C998   C     0.47882   0.52103   0.85616   0.00000  Uiso   1.00
C999   C     0.46770   0.52733   0.89937   0.00000  Uiso   1.00
C1000  C     0.52997   0.46886   0.60188   0.00000  Uiso   1.00
C1001  C     0.42302   0.55470   0.96194   0.00000  Uiso   1.00
C1002  C     0.43483   0.55140   0.92101   0.00000  Uiso   1.00
C1003  C     0.48894   0.50713   0.91911   0.00000  Uiso   1.00
C1004  C     0.47632   0.50842   0.96041   0.00000  Uiso   1.00
C1005  C     0.44337   0.53337   0.98175   0.00000  Uiso   1.00
C1006  C     0.49593   0.48621   0.98100   0.00000  Uiso   1.00
C1007  C     0.48589   0.49329   0.52273   0.00000  Uiso   1.00
C1008  C     0.44982   0.51537   0.54318   0.00000  Uiso   1.00
C1009  C     0.43014   0.53594   0.52259   0.00000  Uiso   1.00
C1010  C     0.52418   0.45619   0.96118   0.00000  Uiso   1.00
C1011  C     0.54486   0.43563   0.98091   0.00000  Uiso   1.00
C1012  C     0.53860   0.44562   0.52166   0.00000  Uiso   1.00
C1013  C     0.51090   0.47629   0.54233   0.00000  Uiso   1.00
C1014  C     0.55863   0.42494   0.54254   0.00000  Uiso   1.00
C1015  C     0.55350   0.43595   0.58257   0.00000  Uiso   1.00
C1016  C     0.51013   0.48971   0.58178   0.00000  Uiso   1.00
H1017  H     0.40350   0.55336   0.53891   0.00000  Uiso   1.00
H1018  H     0.49477   0.51664   0.59758   0.00000  Uiso   1.00
H1019  H     0.56804   0.41895   0.59847   0.00000  Uiso   1.00
H1020  H     0.39749   0.57349   0.97814   0.00000  Uiso   1.00
H1021  H     0.41796   0.56734   0.90636   0.00000  Uiso   1.00
H1022  H     0.51574   0.49110   0.90145   0.00000  Uiso   1.00
H1023  H     0.53013   0.44693   0.93007   0.00000  Uiso   1.00
H1024  H     0.57748   0.39950   0.52850   0.00000  Uiso   1.00
C1025  C     0.65983   0.50986   0.73953   0.00000  Uiso   1.00
H1026  H     0.34916   0.52994   0.71922   0.00000  Uiso   1.00
C1027  C     0.34029   0.48954   0.76313   0.00000  Uiso   1.00
C1028  C     0.51420   0.65548   0.73826   0.00000  Uiso   1.00
H1029  H     0.54124   0.33611   0.71634   0.00000  Uiso   1.00
C1030  C     0.48492   0.34541   0.76213   0.00000  Uiso   1.00
H1031  H     0.45746   0.66556   0.78408   0.00000  Uiso   1.00
O1032  O     0.64574   0.46082   0.78688   0.00000  Uiso   1.00
C1033  C     0.65689   0.46038   0.82224   0.00000  Uiso   1.00
H1034  H     0.66320   0.49271   0.83627   0.00000  Uiso   1.00
H1035  H     0.35240   0.44353   0.81656   0.00000  Uiso   1.00
C1036  C     0.61965   0.43760   0.85101   0.00000  Uiso   1.00
H1037  H     0.61281   0.40493   0.83839   0.00000  Uiso   1.00
H1038  H     0.62801   0.43709   0.87896   0.00000  Uiso   1.00
H1039  H     0.59037   0.45385   0.85734   0.00000  Uiso   1.00
N1040  N     0.57360   0.40597   0.95853   0.00000  Uiso   1.00
O1041  O     0.61356   0.41098   0.95958   0.00000  Uiso   1.00
O1042  O     0.56228   0.37889   0.93175   0.00000  Uiso   1.00
O1043  O     0.43139   0.51568   0.58325   0.00000  Uiso   1.00
C1044  C     0.40281   0.47882   0.59046   0.00000  Uiso   1.00
H1045  H     0.42006   0.45046   0.57988   0.00000  Uiso   1.00
H1046  H     0.37658   0.47718   0.57588   0.00000  Uiso   1.00
C1047  C     0.38248   0.47892   0.63453   0.00000  Uiso   1.00
H1048  H     0.36421   0.50640   0.64582   0.00000  Uiso   1.00
H1049  H     0.36007   0.44997   0.64070   0.00000  Uiso   1.00
H1050  H     0.40785   0.48038   0.64995   0.00000  Uiso   1.00
Zn1051 Zn    0.85910   0.47423   0.78277   0.00000  Uiso   1.00
Zn1052 Zn    0.80125   0.45711   0.72257   0.00000  Uiso   1.00
Zn1053 Zn    0.87833   0.52997   0.71188   0.00000  Uiso   1.00
Zn1054 Zn    0.79465   0.53868   0.78277   0.00000  Uiso   1.00
O1055  O     0.83333   0.50000   0.75000   0.00000  Uiso   1.00
O1056  O     0.73656   0.52293   0.77820   0.00000  Uiso   1.00
O1057  O     0.92106   0.48610   0.76767   0.00000  Uiso   1.00
O1058  O     0.80467   0.40236   0.73607   0.00000  Uiso   1.00
O1059  O     0.87104   0.58860   0.71805   0.00000  Uiso   1.00
O1060  O     0.82360   0.45726   0.66625   0.00000  Uiso   1.00
O1061  O     0.79354   0.53979   0.83749   0.00000  Uiso   1.00
O1062  O     0.87755   0.50826   0.65877   0.00000  Uiso   1.00
O1063  O     0.83865   0.49468   0.83749   0.00000  Uiso   1.00
O1064  O     0.84515   0.41434   0.77820   0.00000  Uiso   1.00
O1065  O     0.81247   0.59469   0.76767   0.00000  Uiso   1.00
O1066  O     0.74119   0.46584   0.73607   0.00000  Uiso   1.00
O1067  O     0.93452   0.52512   0.71805   0.00000  Uiso   1.00
C1068  C     0.71944   0.49349   0.75833   0.00000  Uiso   1.00
C1069  C     0.94762   0.50673   0.74142   0.00000  Uiso   1.00
C1070  C     0.82259   0.38945   0.75892   0.00000  Uiso   1.00
C1071  C     0.84350   0.61097   0.74139   0.00000  Uiso   1.00
C1072  C     0.85485   0.47843   0.64415   0.00000  Uiso   1.00
C1073  C     0.81216   0.52103   0.85616   0.00000  Uiso   1.00
C1074  C     0.80104   0.52733   0.89937   0.00000  Uiso   1.00
C1075  C     0.86331   0.46886   0.60188   0.00000  Uiso   1.00
C1076  C     0.75635   0.55470   0.96194   0.00000  Uiso   1.00
C1077  C     0.76816   0.55140   0.92101   0.00000  Uiso   1.00
C1078  C     0.82227   0.50713   0.91911   0.00000  Uiso   1.00
C1079  C     0.80965   0.50842   0.96041   0.00000  Uiso   1.00
C1080  C     0.77671   0.53337   0.98175   0.00000  Uiso   1.00
C1081  C     0.82926   0.48621   0.98100   0.00000  Uiso   1.00
C1082  C     0.81923   0.49329   0.52273   0.00000  Uiso   1.00
C1083  C     0.78315   0.51537   0.54318   0.00000  Uiso   1.00
C1084  C     0.76347   0.53594   0.52259   0.00000  Uiso   1.00
C1085  C     0.85751   0.45619   0.96118   0.00000  Uiso   1.00
C1086  C     0.87819   0.43563   0.98091   0.00000  Uiso   1.00
C1087  C     0.87194   0.44562   0.52166   0.00000  Uiso   1.00
C1088  C     0.84423   0.47629   0.54233   0.00000  Uiso   1.00
C1089  C     0.89197   0.42494   0.54254   0.00000  Uiso   1.00
C1090  C     0.88684   0.43595   0.58257   0.00000  Uiso   1.00
C1091  C     0.84347   0.48971   0.58178   0.00000  Uiso   1.00
H1092  H     0.73684   0.55336   0.53891   0.00000  Uiso   1.00
H1093  H     0.82810   0.51664   0.59758   0.00000  Uiso   1.00
H1094  H     0.90138   0.41895   0.59847   0.00000  Uiso   1.00
H1095  H     0.73082   0.57349   0.97814   0.00000  Uiso   1.00
H1096  H     0.75130   0.56734   0.90636   0.00000  Uiso   1.00
H1097  H     0.84907   0.49110   0.90145   0.00000  Uiso   1.00
H1098  H     0.86346   0.44693   0.93007   0.00000  Uiso   1.00
H1099  H     0.91081   0.39950   0.52850   0.00000  Uiso   1.00
C1100  C     0.99316   0.50986   0.73953   0.00000  Uiso   1.00
H1101  H     0.68249   0.52994   0.71922   0.00000  Uiso   1.00
C1102  C     0.67362   0.48954   0.76313   0.00000  Uiso   1.00
C1103  C     0.84753   0.65548   0.73826   0.00000  Uiso   1.00
H1104  H     0.87458   0.33611   0.71634   0.00000  Uiso   1.00
C1105  C     0.81826   0.34541   0.76213   0.00000  Uiso   1.00
H1106  H     0.79079   0.66556   0.78408   0.00000  Uiso   1.00
O1107  O     0.97908   0.46082   0.78688   0.00000  Uiso   1.00
C1108  C     0.99022   0.46038   0.82224   0.00000  Uiso   1.00
H1109  H     0.99653   0.49271   0.83627   0.00000  Uiso   1.00
H1110  H     0.68573   0.44353   0.81656   0.00000  Uiso   1.00
C1111  C     0.95298   0.43760   0.85101   0.00000  Uiso   1.00
H1112  H     0.94614   0.40493   0.83839   0.00000  Uiso   1.00
H1113  H     0.96135   0.43709   0.87896   0.00000  Uiso   1.00
H1114  H     0.92370   0.45385   0.85734   0.00000  Uiso   1.00
N1115  N     0.90694   0.40597   0.95853   0.00000  Uiso   1.00
O1116  O     0.94689   0.41098   0.95958   0.00000  Uiso   1.00
O1117  O     0.89561   0.37889   0.93175   0.00000  Uiso   1.00
O1118  O     0.76473   0.51568   0.58325   0.00000  Uiso   1.00
C1119  C     0.73614   0.47882   0.59046   0.00000  Uiso   1.00
H1120  H     0.75339   0.45046   0.57988   0.00000  Uiso   1.00
H1121  H     0.70991   0.47718   0.57588   0.00000  Uiso   1.00
C1122  C     0.71582   0.47892   0.63453   0.00000  Uiso   1.00
H1123  H     0.69754   0.50640   0.64582   0.00000  Uiso   1.00
H1124  H     0.69340   0.44997   0.64070   0.00000  Uiso   1.00
H1125  H     0.74118   0.48038   0.64995   0.00000  Uiso   1.00
Zn1126 Zn    0.19244   0.80756   0.78277   0.00000  Uiso   1.00
Zn1127 Zn    0.13459   0.79044   0.72257   0.00000  Uiso   1.00
Zn1128 Zn    0.21166   0.86331   0.71188   0.00000  Uiso   1.00
Zn1129 Zn    0.12798   0.87202   0.78277   0.00000  Uiso   1.00
O1130  O     0.16667   0.83333   0.75000   0.00000  Uiso   1.00
O1131  O     0.06990   0.85627   0.77820   0.00000  Uiso   1.00
O1132  O     0.25440   0.81944   0.76767   0.00000  Uiso   1.00
O1133  O     0.13800   0.73570   0.73607   0.00000  Uiso   1.00
O1134  O     0.20437   0.92193   0.71805   0.00000  Uiso   1.00
O1135  O     0.15693   0.79060   0.66625   0.00000  Uiso   1.00
O1136  O     0.12687   0.87313   0.83749   0.00000  Uiso   1.00
O1137  O     0.21088   0.84159   0.65877   0.00000  Uiso   1.00
O1138  O     0.17198   0.82802   0.83749   0.00000  Uiso   1.00
O1139  O     0.17849   0.74768   0.77820   0.00000  Uiso   1.00
O1140  O     0.14581   0.92803   0.76767   0.00000  Uiso   1.00
O1141  O     0.07452   0.79917   0.73607   0.00000  Uiso   1.00
O1142  O     0.26785   0.85845   0.71805   0.00000  Uiso   1.00
C1143  C     0.05277   0.82682   0.75833   0.00000  Uiso   1.00
C1144  C     0.28095   0.84006   0.74142   0.00000  Uiso   1.00
C1145  C     0.15592   0.72278   0.75892   0.00000  Uiso   1.00
C1146  C     0.17684   0.94430   0.74139   0.00000  Uiso   1.00
C1147  C     0.18818   0.81176   0.64415   0.00000  Uiso   1.00
C1148  C     0.14549   0.85436   0.85616   0.00000  Uiso   1.00
C1149  C     0.13437   0.86066   0.89937   0.00000  Uiso   1.00
C1150  C     0.19664   0.80219   0.60188   0.00000  Uiso   1.00
C1151  C     0.08969   0.88803   0.96194   0.00000  Uiso   1.00
C1152  C     0.10149   0.88474   0.92101   0.00000  Uiso   1.00
C1153  C     0.15561   0.84046   0.91911   0.00000  Uiso   1.00
C1154  C     0.14298   0.84175   0.96041   0.00000  Uiso   1.00
C1155  C     0.11004   0.86670   0.98175   0.00000  Uiso   1.00
C1156  C     0.16259   0.81954   0.98100   0.00000  Uiso   1.00
C1157  C     0.15256   0.82662   0.52273   0.00000  Uiso   1.00
C1158  C     0.11648   0.84870   0.54318   0.00000  Uiso   1.00
C1159  C     0.09680   0.86927   0.52259   0.00000  Uiso   1.00
C1160  C     0.19085   0.78952   0.96118   0.00000  Uiso   1.00
C1161  C     0.21152   0.76897   0.98091   0.00000  Uiso   1.00
C1162  C     0.20527   0.77895   0.52166   0.00000  Uiso   1.00
C1163  C     0.17757   0.80962   0.54233   0.00000  Uiso   1.00
C1164  C     0.22530   0.75827   0.54254   0.00000  Uiso   1.00
C1165  C     0.22017   0.76928   0.58257   0.00000  Uiso   1.00
C1166  C     0.17680   0.82304   0.58178   0.00000  Uiso   1.00
H1167  H     0.07017   0.88670   0.53891   0.00000  Uiso   1.00
H1168  H     0.16144   0.84998   0.59758   0.00000  Uiso   1.00
H1169  H     0.23471   0.75229   0.59847   0.00000  Uiso   1.00
H1170  H     0.06415   0.90682   0.97814   0.00000  Uiso   1.00
H1171  H     0.08463   0.90068   0.90636   0.00000  Uiso   1.00
H1172  H     0.18241   0.82444   0.90145   0.00000  Uiso   1.00
H1173  H     0.19680   0.78027   0.93007   0.00000  Uiso   1.00
H1174  H     0.24415   0.73283   0.52850   0.00000  Uiso   1.00
C1175  C     0.32649   0.84320   0.73953   0.00000  Uiso   1.00
H1176  H     0.01582   0.86327   0.71922   0.00000  Uiso   1.00
C1177  C     0.00696   0.82287   0.76313   0.00000  Uiso   1.00
C1178  C     0.18086   0.98881   0.73826   0.00000  Uiso   1.00
H1179  H     0.20791   0.66944   0.71634   0.00000  Uiso   1.00
C1180  C     0.15159   0.67875   0.76213   0.00000  Uiso   1.00
H1181  H     0.12412   0.99889   0.78408   0.00000  Uiso   1.00
O1182  O     0.31241   0.79416   0.78688   0.00000  Uiso   1.00
C1183  C     0.32356   0.79372   0.82224   0.00000  Uiso   1.00
H1184  H     0.32987   0.82604   0.83627   0.00000  Uiso   1.00
H1185  H     0.01906   0.77687   0.81656   0.00000  Uiso   1.00
C1186  C     0.28631   0.77093   0.85101   0.00000  Uiso   1.00
H1187  H     0.27947   0.73826   0.83839   0.00000  Uiso   1.00
H1188  H     0.29468   0.77043   0.87896   0.00000  Uiso   1.00
H1189  H     0.25704   0.78718   0.85734   0.00000  Uiso   1.00
N1190  N     0.24027   0.73930   0.95853   0.00000  Uiso   1.00
O1191  O     0.28022   0.74432   0.95958   0.00000  Uiso   1.00
O1192  O     0.22895   0.71223   0.93175   0.00000  Uiso   1.00
O1193  O     0.09806   0.84902   0.58325   0.00000  Uiso   1.00
C1194  C     0.06947   0.81215   0.59046   0.00000  Uiso   1.00
H1195  H     0.08673   0.78380   0.57988   0.00000  Uiso   1.00
H1196  H     0.04324   0.81052   0.57588   0.00000  Uiso   1.00
C1197  C     0.04915   0.81225   0.63453   0.00000  Uiso   1.00
H1198  H     0.03088   0.83973   0.64582   0.00000  Uiso   1.00
H1199  H     0.02674   0.78331   0.64070   0.00000  Uiso   1.00
H1200  H     0.07451   0.81371   0.64995   0.00000  Uiso   1.00
Zn1201 Zn    0.52577   0.80756   0.78277   0.00000  Uiso   1.00
Zn1202 Zn    0.46792   0.79044   0.72257   0.00000  Uiso   1.00
Zn1203 Zn    0.54500   0.86331   0.71188   0.00000  Uiso   1.00
Zn1204 Zn    0.46131   0.87202   0.78277   0.00000  Uiso   1.00
O1205  O     0.50000   0.83333   0.75000   0.00000  Uiso   1.00
O1206  O     0.40323   0.85627   0.77820   0.00000  Uiso   1.00
O1207  O     0.58773   0.81944   0.76767   0.00000  Uiso   1.00
O1208  O     0.47133   0.73570   0.73607   0.00000  Uiso   1.00
O1209  O     0.53771   0.92193   0.71805   0.00000  Uiso   1.00
O1210  O     0.49027   0.79060   0.66625   0.00000  Uiso   1.00
O1211  O     0.46020   0.87313   0.83749   0.00000  Uiso   1.00
O1212  O     0.54421   0.84159   0.65877   0.00000  Uiso   1.00
O1213  O     0.50532   0.82802   0.83749   0.00000  Uiso   1.00
O1214  O     0.51182   0.74768   0.77820   0.00000  Uiso   1.00
O1215  O     0.47914   0.92803   0.76767   0.00000  Uiso   1.00
O1216  O     0.40785   0.79917   0.73607   0.00000  Uiso   1.00
O1217  O     0.60119   0.85845   0.71805   0.00000  Uiso   1.00
C1218  C     0.38611   0.82682   0.75833   0.00000  Uiso   1.00
C1219  C     0.61428   0.84006   0.74142   0.00000  Uiso   1.00
C1220  C     0.48925   0.72278   0.75892   0.00000  Uiso   1.00
C1221  C     0.51017   0.94430   0.74139   0.00000  Uiso   1.00
C1222  C     0.52152   0.81176   0.64415   0.00000  Uiso   1.00
C1223  C     0.47882   0.85436   0.85616   0.00000  Uiso   1.00
C1224  C     0.46770   0.86066   0.89937   0.00000  Uiso   1.00
C1225  C     0.52997   0.80219   0.60188   0.00000  Uiso   1.00
C1226  C     0.42302   0.88803   0.96194   0.00000  Uiso   1.00
C1227  C     0.43483   0.88474   0.92101   0.00000  Uiso   1.00
C1228  C     0.48894   0.84046   0.91911   0.00000  Uiso   1.00
C1229  C     0.47632   0.84175   0.96041   0.00000  Uiso   1.00
C1230  C     0.44337   0.86670   0.98175   0.00000  Uiso   1.00
C1231  C     0.49593   0.81954   0.98100   0.00000  Uiso   1.00
C1232  C     0.48589   0.82662   0.52273   0.00000  Uiso   1.00
C1233  C     0.44982   0.84870   0.54318   0.00000  Uiso   1.00
C1234  C     0.43014   0.86927   0.52259   0.00000  Uiso   1.00
C1235  C     0.52418   0.78952   0.96118   0.00000  Uiso   1.00
C1236  C     0.54486   0.76897   0.98091   0.00000  Uiso   1.00
C1237  C     0.53860   0.77895   0.52166   0.00000  Uiso   1.00
C1238  C     0.51090   0.80962   0.54233   0.00000  Uiso   1.00
C1239  C     0.55863   0.75827   0.54254   0.00000  Uiso   1.00
C1240  C     0.55350   0.76928   0.58257   0.00000  Uiso   1.00
C1241  C     0.51013   0.82304   0.58178   0.00000  Uiso   1.00
H1242  H     0.40350   0.88670   0.53891   0.00000  Uiso   1.00
H1243  H     0.49477   0.84998   0.59758   0.00000  Uiso   1.00
H1244  H     0.56804   0.75229   0.59847   0.00000  Uiso   1.00
H1245  H     0.39749   0.90682   0.97814   0.00000  Uiso   1.00
H1246  H     0.41796   0.90068   0.90636   0.00000  Uiso   1.00
H1247  H     0.51574   0.82444   0.90145   0.00000  Uiso   1.00
H1248  H     0.53013   0.78027   0.93007   0.00000  Uiso   1.00
H1249  H     0.57748   0.73283   0.52850   0.00000  Uiso   1.00
C1250  C     0.65983   0.84320   0.73953   0.00000  Uiso   1.00
H1251  H     0.34916   0.86327   0.71922   0.00000  Uiso   1.00
C1252  C     0.34029   0.82287   0.76313   0.00000  Uiso   1.00
C1253  C     0.51420   0.98881   0.73826   0.00000  Uiso   1.00
H1254  H     0.54124   0.66944   0.71634   0.00000  Uiso   1.00
C1255  C     0.48492   0.67875   0.76213   0.00000  Uiso   1.00
H1256  H     0.45746   0.99889   0.78408   0.00000  Uiso   1.00
O1257  O     0.64574   0.79416   0.78688   0.00000  Uiso   1.00
C1258  C     0.65689   0.79372   0.82224   0.00000  Uiso   1.00
H1259  H     0.66320   0.82604   0.83627   0.00000  Uiso   1.00
H1260  H     0.35240   0.77687   0.81656   0.00000  Uiso   1.00
C1261  C     0.61965   0.77093   0.85101   0.00000  Uiso   1.00
H1262  H     0.61281   0.73826   0.83839   0.00000  Uiso   1.00
H1263  H     0.62801   0.77043   0.87896   0.00000  Uiso   1.00
H1264  H     0.59037   0.78718   0.85734   0.00000  Uiso   1.00
N1265  N     0.57360   0.73930   0.95853   0.00000  Uiso   1.00
O1266  O     0.61356   0.74432   0.95958   0.00000  Uiso   1.00
O1267  O     0.56228   0.71223   0.93175   0.00000  Uiso   1.00
O1268  O     0.43139   0.84902   0.58325   0.00000  Uiso   1.00
C1269  C     0.40281   0.81215   0.59046   0.00000  Uiso   1.00
H1270  H     0.42006   0.78380   0.57988   0.00000  Uiso   1.00
H1271  H     0.37658   0.81052   0.57588   0.00000  Uiso   1.00
C1272  C     0.38248   0.81225   0.63453   0.00000  Uiso   1.00
H1273  H     0.36421   0.83973   0.64582   0.00000  Uiso   1.00
H1274  H     0.36007   0.78331   0.64070   0.00000  Uiso   1.00
H1275  H     0.40785   0.81371   0.64995   0.00000  Uiso   1.00
Zn1276 Zn    0.85910   0.80756   0.78277   0.00000  Uiso   1.00
Zn1277 Zn    0.80125   0.79044   0.72257   0.00000  Uiso   1.00
Zn1278 Zn    0.87833   0.86331   0.71188   0.00000  Uiso   1.00
Zn1279 Zn    0.79465   0.87202   0.78277   0.00000  Uiso   1.00
O1280  O     0.83333   0.83333   0.75000   0.00000  Uiso   1.00
O1281  O     0.73656   0.85627   0.77820   0.00000  Uiso   1.00
O1282  O     0.92106   0.81944   0.76767   0.00000  Uiso   1.00
O1283  O     0.80467   0.73570   0.73607   0.00000  Uiso   1.00
O1284  O     0.87104   0.92193   0.71805   0.00000  Uiso   1.00
O1285  O     0.82360   0.79060   0.66625   0.00000  Uiso   1.00
O1286  O     0.79354   0.87313   0.83749   0.00000  Uiso   1.00
O1287  O     0.87755   0.84159   0.65877   0.00000  Uiso   1.00
O1288  O     0.83865   0.82802   0.83749   0.00000  Uiso   1.00
O1289  O     0.84515   0.74768   0.77820   0.00000  Uiso   1.00
O1290  O     0.81247   0.92803   0.76767   0.00000  Uiso   1.00
O1291  O     0.74119   0.79917   0.73607   0.00000  Uiso   1.00
O1292  O     0.93452   0.85845   0.71805   0.00000  Uiso   1.00
C1293  C     0.71944   0.82682   0.75833   0.00000  Uiso   1.00
C1294  C     0.94762   0.84006   0.74142   0.00000  Uiso   1.00
C1295  C     0.82259   0.72278   0.75892   0.00000  Uiso   1.00
C1296  C     0.84350   0.94430   0.74139   0.00000  Uiso   1.00
C1297  C     0.85485   0.81176   0.64415   0.00000  Uiso   1.00
C1298  C     0.81216   0.85436   0.85616   0.00000  Uiso   1.00
C1299  C     0.80104   0.86066   0.89937   0.00000  Uiso   1.00
C1300  C     0.86331   0.80219   0.60188   0.00000  Uiso   1.00
C1301  C     0.75635   0.88803   0.96194   0.00000  Uiso   1.00
C1302  C     0.76816   0.88474   0.92101   0.00000  Uiso   1.00
C1303  C     0.82227   0.84046   0.91911   0.00000  Uiso   1.00
C1304  C     0.80965   0.84175   0.96041   0.00000  Uiso   1.00
C1305  C     0.77671   0.86670   0.98175   0.00000  Uiso   1.00
C1306  C     0.82926   0.81954   0.98100   0.00000  Uiso   1.00
C1307  C     0.81923   0.82662   0.52273   0.00000  Uiso   1.00
C1308  C     0.78315   0.84870   0.54318   0.00000  Uiso   1.00
C1309  C     0.76347   0.86927   0.52259   0.00000  Uiso   1.00
C1310  C     0.85751   0.78952   0.96118   0.00000  Uiso   1.00
C1311  C     0.87819   0.76897   0.98091   0.00000  Uiso   1.00
C1312  C     0.87194   0.77895   0.52166   0.00000  Uiso   1.00
C1313  C     0.84423   0.80962   0.54233   0.00000  Uiso   1.00
C1314  C     0.89197   0.75827   0.54254   0.00000  Uiso   1.00
C1315  C     0.88684   0.76928   0.58257   0.00000  Uiso   1.00
C1316  C     0.84347   0.82304   0.58178   0.00000  Uiso   1.00
H1317  H     0.73684   0.88670   0.53891   0.00000  Uiso   1.00
H1318  H     0.82810   0.84998   0.59758   0.00000  Uiso   1.00
H1319  H     0.90138   0.75229   0.59847   0.00000  Uiso   1.00
H1320  H     0.73082   0.90682   0.97814   0.00000  Uiso   1.00
H1321  H     0.75130   0.90068   0.90636   0.00000  Uiso   1.00
H1322  H     0.84907   0.82444   0.90145   0.00000  Uiso   1.00
H1323  H     0.86346   0.78027   0.93007   0.00000  Uiso   1.00
H1324  H     0.91081   0.73283   0.52850   0.00000  Uiso   1.00
C1325  C     0.99316   0.84320   0.73953   0.00000  Uiso   1.00
H1326  H     0.68249   0.86327   0.71922   0.00000  Uiso   1.00
C1327  C     0.67362   0.82287   0.76313   0.00000  Uiso   1.00
C1328  C     0.84753   0.98881   0.73826   0.00000  Uiso   1.00
H1329  H     0.87458   0.66944   0.71634   0.00000  Uiso   1.00
C1330  C     0.81826   0.67875   0.76213   0.00000  Uiso   1.00
H1331  H     0.79079   0.99889   0.78408   0.00000  Uiso   1.00
O1332  O     0.97908   0.79416   0.78688   0.00000  Uiso   1.00
C1333  C     0.99022   0.79372   0.82224   0.00000  Uiso   1.00
H1334  H     0.99653   0.82604   0.83627   0.00000  Uiso   1.00
H1335  H     0.68573   0.77687   0.81656   0.00000  Uiso   1.00
C1336  C     0.95298   0.77093   0.85101   0.00000  Uiso   1.00
H1337  H     0.94614   0.73826   0.83839   0.00000  Uiso   1.00
H1338  H     0.96135   0.77043   0.87896   0.00000  Uiso   1.00
H1339  H     0.92370   0.78718   0.85734   0.00000  Uiso   1.00
N1340  N     0.90694   0.73930   0.95853   0.00000  Uiso   1.00
O1341  O     0.94689   0.74432   0.95958   0.00000  Uiso   1.00
O1342  O     0.89561   0.71223   0.93175   0.00000  Uiso   1.00
O1343  O     0.76473   0.84902   0.58325   0.00000  Uiso   1.00
C1344  C     0.73614   0.81215   0.59046   0.00000  Uiso   1.00
H1345  H     0.75339   0.78380   0.57988   0.00000  Uiso   1.00
H1346  H     0.70991   0.81052   0.57588   0.00000  Uiso   1.00
C1347  C     0.71582   0.81225   0.63453   0.00000  Uiso   1.00
H1348  H     0.69754   0.83973   0.64582   0.00000  Uiso   1.00
H1349  H     0.69340   0.78331   0.64070   0.00000  Uiso   1.00
H1350  H     0.74118   0.81371   0.64995   0.00000  Uiso   1.00
loop_
_geom_bond_atom_site_label_1
_geom_bond_atom_site_label_2
_geom_bond_distance
_geom_bond_site_symmetry_2
_ccdc_geom_bond_type
Zn1    O5      1.958   .     S
Zn1    O13     1.927   .     S
Zn1    O7      1.932   .     S
Zn1    O14     1.928   .     S
Zn2    O16     1.934   .     S
Zn2    O5      1.942   .     S
Zn2    O10     1.932   .     S
Zn2    O8      1.936   .     S
Zn3    O12     1.933   .     S
Zn3    O9      1.930   .     S
Zn3    O5      1.940   .     S
Zn3    O17     1.941   .     S
Zn4    O11     1.938   .     S
Zn4    O6      1.937   .     S
Zn4    O5      1.935   .     S
Zn4    O15     1.932   .     S
O6     C18     1.269   .     A
O7     C19     1.273   .     A
O8     C20     1.276   .     A
O9     C21     1.273   .     A
O10    C22     1.273   .     A
O11    C23     1.282   .     A
O12    C22     1.276   .     A
O13    C23     1.285   .     A
O14    C20     1.276   .     A
O15    C21     1.274   .     A
O16    C18     1.267   .     A
O17    C19     1.288   .     A
C18    C52     1.444   .     S
C19    C50     1.458   .     S
C20    C55     1.436   .     S
C21    C53     1.451   .     S
C22    C25     1.450   .     S
C23    C24     1.471   .     S
C24    C27     1.400   .     A
C24    C28     1.399   .     A
C25    C40     1.392   .     A
C25    C41     1.389   .     A
C26    C27     1.392   .     A
C26    H45     1.084   .     S
C26    C30     1.403   .     A
C27    H46     1.083   .     S
C28    H47     1.076   .     S
C28    C29     1.408   .     A
C29    C30     1.416   .     A
C29    C31     1.425   .     A
C30    C709    1.390   .     S
C31    C35     1.413   .     A
C31    C707    1.422   .     S
C32    C38     1.426   .     A
C32    C33     1.429   .     A
C32    C706    1.422   1_554 S
C33    C34     1.392   .     A
C33    O68     1.382   .     S
C34    H42     1.085   .     S
C34    C705    1.390   1_554 S
C35    C36     1.393   .     A
C35    H48     1.077   .     S
C36    N65     1.437   .     S
C36    C712    1.406   .     S
C37    C38     1.425   .     A
C37    C39     1.410   .     A
C37    C711    1.406   1_554 S
C38    C41     1.408   .     A
C39    C40     1.390   .     A
C39    H49     1.081   .     S
C40    H44     1.084   .     S
C41    H43     1.078   .     S
C50    H126    1.088   .     S
C50    C127    1.347   .     S
H51    C200    1.088   1_455 S
C52    C200    1.347   1_455 S
C52    O207    1.396   1_455 S
C53    H279    1.088   .     S
C53    C280    1.332   .     S
H54    C503    1.088   1_545 S
C55    C503    1.332   1_545 S
C55    H506    1.086   1_545 S
H56    C280    1.086   .     S
O57    C58     1.413   .     S
O57    C127    1.396   .     S
C58    C61     1.521   .     S
C58    H59     1.115   .     S
C58    H135    1.113   .     S
H60    C208    1.113   1_455 S
C61    H63     1.110   .     S
C61    H64     1.111   .     S
C61    H62     1.111   .     S
N65    O67     1.301   .     A
N65    O66     1.301   .     A
O68    C69     1.412   .     S
C69    C72     1.521   .     S
C69    H71     1.115   .     S
C69    H70     1.114   .     S
C72    H75     1.111   .     S
C72    H74     1.111   .     S
C72    H73     1.110   .     S
Zn76   O80     1.958   .     S
Zn76   O88     1.927   .     S
Zn76   O82     1.932   .     S
Zn76   O89     1.928   .     S
Zn77   O91     1.934   .     S
Zn77   O80     1.942   .     S
Zn77   O85     1.932   .     S
Zn77   O83     1.936   .     S
Zn78   O87     1.933   .     S
Zn78   O84     1.930   .     S
Zn78   O80     1.940   .     S
Zn78   O92     1.941   .     S
Zn79   O86     1.938   .     S
Zn79   O81     1.937   .     S
Zn79   O80     1.935   .     S
Zn79   O90     1.932   .     S
O81    C93     1.269   .     A
O82    C94     1.273   .     A
O83    C95     1.276   .     A
O84    C96     1.273   .     A
O85    C97     1.273   .     A
O86    C98     1.282   .     A
O87    C97     1.276   .     A
O88    C98     1.285   .     A
O89    C95     1.276   .     A
O90    C96     1.274   .     A
O91    C93     1.267   .     A
O92    C94     1.288   .     A
C93    C127    1.444   .     S
C94    C125    1.458   .     S
C95    C130    1.436   .     S
C96    C128    1.451   .     S
C97    C100    1.450   .     S
C98    C99     1.471   .     S
C99    C102    1.400   .     A
C99    C103    1.399   .     A
C100   C115    1.392   .     A
C100   C116    1.389   .     A
C101   C102    1.392   .     A
C101   H120    1.084   .     S
C101   C105    1.403   .     A
C102   H121    1.083   .     S
C103   H122    1.076   .     S
C103   C104    1.408   .     A
C104   C105    1.416   .     A
C104   C106    1.425   .     A
C105   C784    1.390   .     S
C106   C110    1.413   .     A
C106   C782    1.422   .     S
C107   C113    1.426   .     A
C107   C108    1.429   .     A
C107   C781    1.422   1_554 S
C108   C109    1.392   .     A
C108   O143    1.382   .     S
C109   H117    1.085   .     S
C109   C780    1.390   1_554 S
C110   C111    1.393   .     A
C110   H123    1.077   .     S
C111   N140    1.437   .     S
C111   C787    1.406   .     S
C112   C113    1.425   .     A
C112   C114    1.410   .     A
C112   C786    1.406   1_554 S
C113   C116    1.408   .     A
C114   C115    1.390   .     A
C114   H124    1.081   .     S
C115   H119    1.084   .     S
C116   H118    1.078   .     S
C125   H201    1.088   .     S
C125   C202    1.347   .     S
C128   H354    1.088   .     S
C128   C355    1.332   .     S
H129   C578    1.088   1_545 S
C130   C578    1.332   1_545 S
C130   H581    1.086   1_545 S
H131   C355    1.086   .     S
O132   C133    1.413   .     S
O132   C202    1.396   .     S
C133   C136    1.521   .     S
C133   H134    1.115   .     S
C133   H210    1.113   .     S
C136   H138    1.110   .     S
C136   H139    1.111   .     S
C136   H137    1.111   .     S
N140   O142    1.301   .     A
N140   O141    1.301   .     A
O143   C144    1.412   .     S
C144   C147    1.521   .     S
C144   H146    1.115   .     S
C144   H145    1.114   .     S
C147   H150    1.111   .     S
C147   H149    1.111   .     S
C147   H148    1.110   .     S
Zn151  O155    1.958   .     S
Zn151  O163    1.927   .     S
Zn151  O157    1.932   .     S
Zn151  O164    1.928   .     S
Zn152  O166    1.934   .     S
Zn152  O155    1.942   .     S
Zn152  O160    1.932   .     S
Zn152  O158    1.936   .     S
Zn153  O162    1.933   .     S
Zn153  O159    1.930   .     S
Zn153  O155    1.940   .     S
Zn153  O167    1.941   .     S
Zn154  O161    1.938   .     S
Zn154  O156    1.937   .     S
Zn154  O155    1.935   .     S
Zn154  O165    1.932   .     S
O156   C168    1.269   .     A
O157   C169    1.273   .     A
O158   C170    1.276   .     A
O159   C171    1.273   .     A
O160   C172    1.273   .     A
O161   C173    1.282   .     A
O162   C172    1.276   .     A
O163   C173    1.285   .     A
O164   C170    1.276   .     A
O165   C171    1.274   .     A
O166   C168    1.267   .     A
O167   C169    1.288   .     A
C168   C202    1.444   .     S
C169   C200    1.458   .     S
C170   C205    1.436   .     S
C171   C203    1.451   .     S
C172   C175    1.450   .     S
C173   C174    1.471   .     S
C174   C177    1.400   .     A
C174   C178    1.399   .     A
C175   C190    1.392   .     A
C175   C191    1.389   .     A
C176   C177    1.392   .     A
C176   H195    1.084   .     S
C176   C180    1.403   .     A
C177   H196    1.083   .     S
C178   H197    1.076   .     S
C178   C179    1.408   .     A
C179   C180    1.416   .     A
C179   C181    1.425   .     A
C180   C859    1.390   .     S
C181   C185    1.413   .     A
C181   C857    1.422   .     S
C182   C188    1.426   .     A
C182   C183    1.429   .     A
C182   C856    1.422   1_554 S
C183   C184    1.392   .     A
C183   O218    1.382   .     S
C184   H192    1.085   .     S
C184   C855    1.390   1_554 S
C185   C186    1.393   .     A
C185   H198    1.077   .     S
C186   N215    1.437   .     S
C186   C862    1.406   .     S
C187   C188    1.425   .     A
C187   C189    1.410   .     A
C187   C861    1.406   1_554 S
C188   C191    1.408   .     A
C189   C190    1.390   .     A
C189   H199    1.081   .     S
C190   H194    1.084   .     S
C191   H193    1.078   .     S
C200   H51     1.088   1_655 S
C200   C52     1.347   1_655 S
C203   H429    1.088   .     S
C203   C430    1.332   .     S
H204   C653    1.088   1_545 S
C205   C653    1.332   1_545 S
C205   H656    1.086   1_545 S
H206   C430    1.086   .     S
O207   C208    1.413   .     S
O207   C52     1.396   1_655 S
C208   C211    1.521   .     S
C208   H209    1.115   .     S
C208   H60     1.113   1_655 S
C211   H213    1.110   .     S
C211   H214    1.111   .     S
C211   H212    1.111   .     S
N215   O217    1.301   .     A
N215   O216    1.301   .     A
O218   C219    1.412   .     S
C219   C222    1.521   .     S
C219   H221    1.115   .     S
C219   H220    1.114   .     S
C222   H225    1.111   .     S
C222   H224    1.111   .     S
C222   H223    1.110   .     S
Zn226  O230    1.958   .     S
Zn226  O238    1.927   .     S
Zn226  O232    1.932   .     S
Zn226  O239    1.928   .     S
Zn227  O241    1.934   .     S
Zn227  O230    1.942   .     S
Zn227  O235    1.932   .     S
Zn227  O233    1.936   .     S
Zn228  O237    1.933   .     S
Zn228  O234    1.930   .     S
Zn228  O230    1.940   .     S
Zn228  O242    1.941   .     S
Zn229  O236    1.938   .     S
Zn229  O231    1.937   .     S
Zn229  O230    1.935   .     S
Zn229  O240    1.932   .     S
O231   C243    1.269   .     A
O232   C244    1.273   .     A
O233   C245    1.276   .     A
O234   C246    1.273   .     A
O235   C247    1.273   .     A
O236   C248    1.282   .     A
O237   C247    1.276   .     A
O238   C248    1.285   .     A
O239   C245    1.276   .     A
O240   C246    1.274   .     A
O241   C243    1.267   .     A
O242   C244    1.288   .     A
C243   C277    1.444   .     S
C244   C275    1.458   .     S
C245   C280    1.436   .     S
C246   C278    1.451   .     S
C247   C250    1.450   .     S
C248   C249    1.471   .     S
C249   C252    1.400   .     A
C249   C253    1.399   .     A
C250   C265    1.392   .     A
C250   C266    1.389   .     A
C251   C252    1.392   .     A
C251   H270    1.084   .     S
C251   C255    1.403   .     A
C252   H271    1.083   .     S
C253   H272    1.076   .     S
C253   C254    1.408   .     A
C254   C255    1.416   .     A
C254   C256    1.425   .     A
C255   C934    1.390   .     S
C256   C260    1.413   .     A
C256   C932    1.422   .     S
C257   C263    1.426   .     A
C257   C258    1.429   .     A
C257   C931    1.422   1_554 S
C258   C259    1.392   .     A
C258   O293    1.382   .     S
C259   H267    1.085   .     S
C259   C930    1.390   1_554 S
C260   C261    1.393   .     A
C260   H273    1.077   .     S
C261   N290    1.437   .     S
C261   C937    1.406   .     S
C262   C263    1.425   .     A
C262   C264    1.410   .     A
C262   C936    1.406   1_554 S
C263   C266    1.408   .     A
C264   C265    1.390   .     A
C264   H274    1.081   .     S
C265   H269    1.084   .     S
C266   H268    1.078   .     S
C275   H351    1.088   .     S
C275   C352    1.347   .     S
H276   C425    1.088   1_455 S
C277   C425    1.347   1_455 S
C277   O432    1.396   1_455 S
C278   H504    1.088   .     S
C278   C505    1.332   .     S
H281   C505    1.086   .     S
O282   C283    1.413   .     S
O282   C352    1.396   .     S
C283   C286    1.521   .     S
C283   H284    1.115   .     S
C283   H360    1.113   .     S
H285   C433    1.113   1_455 S
C286   H288    1.110   .     S
C286   H289    1.111   .     S
C286   H287    1.111   .     S
N290   O292    1.301   .     A
N290   O291    1.301   .     A
O293   C294    1.412   .     S
C294   C297    1.521   .     S
C294   H296    1.115   .     S
C294   H295    1.114   .     S
C297   H300    1.111   .     S
C297   H299    1.111   .     S
C297   H298    1.110   .     S
Zn301  O305    1.958   .     S
Zn301  O313    1.927   .     S
Zn301  O307    1.932   .     S
Zn301  O314    1.928   .     S
Zn302  O316    1.934   .     S
Zn302  O305    1.942   .     S
Zn302  O310    1.932   .     S
Zn302  O308    1.936   .     S
Zn303  O312    1.933   .     S
Zn303  O309    1.930   .     S
Zn303  O305    1.940   .     S
Zn303  O317    1.941   .     S
Zn304  O311    1.938   .     S
Zn304  O306    1.937   .     S
Zn304  O305    1.935   .     S
Zn304  O315    1.932   .     S
O306   C318    1.269   .     A
O307   C319    1.273   .     A
O308   C320    1.276   .     A
O309   C321    1.273   .     A
O310   C322    1.273   .     A
O311   C323    1.282   .     A
O312   C322    1.276   .     A
O313   C323    1.285   .     A
O314   C320    1.276   .     A
O315   C321    1.274   .     A
O316   C318    1.267   .     A
O317   C319    1.288   .     A
C318   C352    1.444   .     S
C319   C350    1.458   .     S
C320   C355    1.436   .     S
C321   C353    1.451   .     S
C322   C325    1.450   .     S
C323   C324    1.471   .     S
C324   C327    1.400   .     A
C324   C328    1.399   .     A
C325   C340    1.392   .     A
C325   C341    1.389   .     A
C326   C327    1.392   .     A
C326   H345    1.084   .     S
C326   C330    1.403   .     A
C327   H346    1.083   .     S
C328   H347    1.076   .     S
C328   C329    1.408   .     A
C329   C330    1.416   .     A
C329   C331    1.425   .     A
C330   C1009   1.390   .     S
C331   C335    1.413   .     A
C331   C1007   1.422   .     S
C332   C338    1.426   .     A
C332   C333    1.429   .     A
C332   C1006   1.422   1_554 S
C333   C334    1.392   .     A
C333   O368    1.382   .     S
C334   H342    1.085   .     S
C334   C1005   1.390   1_554 S
C335   C336    1.393   .     A
C335   H348    1.077   .     S
C336   N365    1.437   .     S
C336   C1012   1.406   .     S
C337   C338    1.425   .     A
C337   C339    1.410   .     A
C337   C1011   1.406   1_554 S
C338   C341    1.408   .     A
C339   C340    1.390   .     A
C339   H349    1.081   .     S
C340   H344    1.084   .     S
C341   H343    1.078   .     S
C350   H426    1.088   .     S
C350   C427    1.347   .     S
C353   H579    1.088   .     S
C353   C580    1.332   .     S
H356   C580    1.086   .     S
O357   C358    1.413   .     S
O357   C427    1.396   .     S
C358   C361    1.521   .     S
C358   H359    1.115   .     S
C358   H435    1.113   .     S
C361   H363    1.110   .     S
C361   H364    1.111   .     S
C361   H362    1.111   .     S
N365   O367    1.301   .     A
N365   O366    1.301   .     A
O368   C369    1.412   .     S
C369   C372    1.521   .     S
C369   H371    1.115   .     S
C369   H370    1.114   .     S
C372   H375    1.111   .     S
C372   H374    1.111   .     S
C372   H373    1.110   .     S
Zn376  O380    1.958   .     S
Zn376  O388    1.927   .     S
Zn376  O382    1.932   .     S
Zn376  O389    1.928   .     S
Zn377  O391    1.934   .     S
Zn377  O380    1.942   .     S
Zn377  O385    1.932   .     S
Zn377  O383    1.936   .     S
Zn378  O387    1.933   .     S
Zn378  O384    1.930   .     S
Zn378  O380    1.940   .     S
Zn378  O392    1.941   .     S
Zn379  O386    1.938   .     S
Zn379  O381    1.937   .     S
Zn379  O380    1.935   .     S
Zn379  O390    1.932   .     S
O381   C393    1.269   .     A
O382   C394    1.273   .     A
O383   C395    1.276   .     A
O384   C396    1.273   .     A
O385   C397    1.273   .     A
O386   C398    1.282   .     A
O387   C397    1.276   .     A
O388   C398    1.285   .     A
O389   C395    1.276   .     A
O390   C396    1.274   .     A
O391   C393    1.267   .     A
O392   C394    1.288   .     A
C393   C427    1.444   .     S
C394   C425    1.458   .     S
C395   C430    1.436   .     S
C396   C428    1.451   .     S
C397   C400    1.450   .     S
C398   C399    1.471   .     S
C399   C402    1.400   .     A
C399   C403    1.399   .     A
C400   C415    1.392   .     A
C400   C416    1.389   .     A
C401   C402    1.392   .     A
C401   H420    1.084   .     S
C401   C405    1.403   .     A
C402   H421    1.083   .     S
C403   H422    1.076   .     S
C403   C404    1.408   .     A
C404   C405    1.416   .     A
C404   C406    1.425   .     A
C405   C1084   1.390   .     S
C406   C410    1.413   .     A
C406   C1082   1.422   .     S
C407   C413    1.426   .     A
C407   C408    1.429   .     A
C407   C1081   1.422   1_554 S
C408   C409    1.392   .     A
C408   O443    1.382   .     S
C409   H417    1.085   .     S
C409   C1080   1.390   1_554 S
C410   C411    1.393   .     A
C410   H423    1.077   .     S
C411   N440    1.437   .     S
C411   C1087   1.406   .     S
C412   C413    1.425   .     A
C412   C414    1.410   .     A
C412   C1086   1.406   1_554 S
C413   C416    1.408   .     A
C414   C415    1.390   .     A
C414   H424    1.081   .     S
C415   H419    1.084   .     S
C416   H418    1.078   .     S
C425   H276    1.088   1_655 S
C425   C277    1.347   1_655 S
C428   H654    1.088   .     S
C428   C655    1.332   .     S
H431   C655    1.086   .     S
O432   C433    1.413   .     S
O432   C277    1.396   1_655 S
C433   C436    1.521   .     S
C433   H434    1.115   .     S
C433   H285    1.113   1_655 S
C436   H438    1.110   .     S
C436   H439    1.111   .     S
C436   H437    1.111   .     S
N440   O442    1.301   .     A
N440   O441    1.301   .     A
O443   C444    1.412   .     S
C444   C447    1.521   .     S
C444   H446    1.115   .     S
C444   H445    1.114   .     S
C447   H450    1.111   .     S
C447   H449    1.111   .     S
C447   H448    1.110   .     S
Zn451  O455    1.958   .     S
Zn451  O463    1.927   .     S
Zn451  O457    1.932   .     S
Zn451  O464    1.928   .     S
Zn452  O466    1.934   .     S
Zn452  O455    1.942   .     S
Zn452  O460    1.932   .     S
Zn452  O458    1.936   .     S
Zn453  O462    1.933   .     S
Zn453  O459    1.930   .     S
Zn453  O455    1.940   .     S
Zn453  O467    1.941   .     S
Zn454  O461    1.938   .     S
Zn454  O456    1.937   .     S
Zn454  O455    1.935   .     S
Zn454  O465    1.932   .     S
O456   C468    1.269   .     A
O457   C469    1.273   .     A
O458   C470    1.276   .     A
O459   C471    1.273   .     A
O460   C472    1.273   .     A
O461   C473    1.282   .     A
O462   C472    1.276   .     A
O463   C473    1.285   .     A
O464   C470    1.276   .     A
O465   C471    1.274   .     A
O466   C468    1.267   .     A
O467   C469    1.288   .     A
C468   C502    1.444   .     S
C469   C500    1.458   .     S
C470   C505    1.436   .     S
C471   C503    1.451   .     S
C472   C475    1.450   .     S
C473   C474    1.471   .     S
C474   C477    1.400   .     A
C474   C478    1.399   .     A
C475   C490    1.392   .     A
C475   C491    1.389   .     A
C476   C477    1.392   .     A
C476   H495    1.084   .     S
C476   C480    1.403   .     A
C477   H496    1.083   .     S
C478   H497    1.076   .     S
C478   C479    1.408   .     A
C479   C480    1.416   .     A
C479   C481    1.425   .     A
C480   C1159   1.390   .     S
C481   C485    1.413   .     A
C481   C1157   1.422   .     S
C482   C488    1.426   .     A
C482   C483    1.429   .     A
C482   C1156   1.422   1_554 S
C483   C484    1.392   .     A
C483   O518    1.382   .     S
C484   H492    1.085   .     S
C484   C1155   1.390   1_554 S
C485   C486    1.393   .     A
C485   H498    1.077   .     S
C486   N515    1.437   .     S
C486   C1162   1.406   .     S
C487   C488    1.425   .     A
C487   C489    1.410   .     A
C487   C1161   1.406   1_554 S
C488   C491    1.408   .     A
C489   C490    1.390   .     A
C489   H499    1.081   .     S
C490   H494    1.084   .     S
C491   H493    1.078   .     S
C500   H576    1.088   .     S
C500   C577    1.347   .     S
H501   C650    1.088   1_455 S
C502   C650    1.347   1_455 S
C502   O657    1.396   1_455 S
C503   H54     1.088   1_565 S
C503   C55     1.332   1_565 S
H506   C55     1.086   1_565 S
O507   C508    1.413   .     S
O507   C577    1.396   .     S
C508   C511    1.521   .     S
C508   H509    1.115   .     S
C508   H585    1.113   .     S
H510   C658    1.113   1_455 S
C511   H513    1.110   .     S
C511   H514    1.111   .     S
C511   H512    1.111   .     S
N515   O517    1.301   .     A
N515   O516    1.301   .     A
O518   C519    1.412   .     S
C519   C522    1.521   .     S
C519   H521    1.115   .     S
C519   H520    1.114   .     S
C522   H525    1.111   .     S
C522   H524    1.111   .     S
C522   H523    1.110   .     S
Zn526  O530    1.958   .     S
Zn526  O538    1.927   .     S
Zn526  O532    1.932   .     S
Zn526  O539    1.928   .     S
Zn527  O541    1.934   .     S
Zn527  O530    1.942   .     S
Zn527  O535    1.932   .     S
Zn527  O533    1.936   .     S
Zn528  O537    1.933   .     S
Zn528  O534    1.930   .     S
Zn528  O530    1.940   .     S
Zn528  O542    1.941   .     S
Zn529  O536    1.938   .     S
Zn529  O531    1.937   .     S
Zn529  O530    1.935   .     S
Zn529  O540    1.932   .     S
O531   C543    1.269   .     A
O532   C544    1.273   .     A
O533   C545    1.276   .     A
O534   C546    1.273   .     A
O535   C547    1.273   .     A
O536   C548    1.282   .     A
O537   C547    1.276   .     A
O538   C548    1.285   .     A
O539   C545    1.276   .     A
O540   C546    1.274   .     A
O541   C543    1.267   .     A
O542   C544    1.288   .     A
C543   C577    1.444   .     S
C544   C575    1.458   .     S
C545   C580    1.436   .     S
C546   C578    1.451   .     S
C547   C550    1.450   .     S
C548   C549    1.471   .     S
C549   C552    1.400   .     A
C549   C553    1.399   .     A
C550   C565    1.392   .     A
C550   C566    1.389   .     A
C551   C552    1.392   .     A
C551   H570    1.084   .     S
C551   C555    1.403   .     A
C552   H571    1.083   .     S
C553   H572    1.076   .     S
C553   C554    1.408   .     A
C554   C555    1.416   .     A
C554   C556    1.425   .     A
C555   C1234   1.390   .     S
C556   C560    1.413   .     A
C556   C1232   1.422   .     S
C557   C563    1.426   .     A
C557   C558    1.429   .     A
C557   C1231   1.422   1_554 S
C558   C559    1.392   .     A
C558   O593    1.382   .     S
C559   H567    1.085   .     S
C559   C1230   1.390   1_554 S
C560   C561    1.393   .     A
C560   H573    1.077   .     S
C561   N590    1.437   .     S
C561   C1237   1.406   .     S
C562   C563    1.425   .     A
C562   C564    1.410   .     A
C562   C1236   1.406   1_554 S
C563   C566    1.408   .     A
C564   C565    1.390   .     A
C564   H574    1.081   .     S
C565   H569    1.084   .     S
C566   H568    1.078   .     S
C575   H651    1.088   .     S
C575   C652    1.347   .     S
C578   H129    1.088   1_565 S
C578   C130    1.332   1_565 S
H581   C130    1.086   1_565 S
O582   C583    1.413   .     S
O582   C652    1.396   .     S
C583   C586    1.521   .     S
C583   H584    1.115   .     S
C583   H660    1.113   .     S
C586   H588    1.110   .     S
C586   H589    1.111   .     S
C586   H587    1.111   .     S
N590   O592    1.301   .     A
N590   O591    1.301   .     A
O593   C594    1.412   .     S
C594   C597    1.521   .     S
C594   H596    1.115   .     S
C594   H595    1.114   .     S
C597   H600    1.111   .     S
C597   H599    1.111   .     S
C597   H598    1.110   .     S
Zn601  O605    1.958   .     S
Zn601  O613    1.927   .     S
Zn601  O607    1.932   .     S
Zn601  O614    1.928   .     S
Zn602  O616    1.934   .     S
Zn602  O605    1.942   .     S
Zn602  O610    1.932   .     S
Zn602  O608    1.936   .     S
Zn603  O612    1.933   .     S
Zn603  O609    1.930   .     S
Zn603  O605    1.940   .     S
Zn603  O617    1.941   .     S
Zn604  O611    1.938   .     S
Zn604  O606    1.937   .     S
Zn604  O605    1.935   .     S
Zn604  O615    1.932   .     S
O606   C618    1.269   .     A
O607   C619    1.273   .     A
O608   C620    1.276   .     A
O609   C621    1.273   .     A
O610   C622    1.273   .     A
O611   C623    1.282   .     A
O612   C622    1.276   .     A
O613   C623    1.285   .     A
O614   C620    1.276   .     A
O615   C621    1.274   .     A
O616   C618    1.267   .     A
O617   C619    1.288   .     A
C618   C652    1.444   .     S
C619   C650    1.458   .     S
C620   C655    1.436   .     S
C621   C653    1.451   .     S
C622   C625    1.450   .     S
C623   C624    1.471   .     S
C624   C627    1.400   .     A
C624   C628    1.399   .     A
C625   C640    1.392   .     A
C625   C641    1.389   .     A
C626   C627    1.392   .     A
C626   H645    1.084   .     S
C626   C630    1.403   .     A
C627   H646    1.083   .     S
C628   H647    1.076   .     S
C628   C629    1.408   .     A
C629   C630    1.416   .     A
C629   C631    1.425   .     A
C630   C1309   1.390   .     S
C631   C635    1.413   .     A
C631   C1307   1.422   .     S
C632   C638    1.426   .     A
C632   C633    1.429   .     A
C632   C1306   1.422   1_554 S
C633   C634    1.392   .     A
C633   O668    1.382   .     S
C634   H642    1.085   .     S
C634   C1305   1.390   1_554 S
C635   C636    1.393   .     A
C635   H648    1.077   .     S
C636   N665    1.437   .     S
C636   C1312   1.406   .     S
C637   C638    1.425   .     A
C637   C639    1.410   .     A
C637   C1311   1.406   1_554 S
C638   C641    1.408   .     A
C639   C640    1.390   .     A
C639   H649    1.081   .     S
C640   H644    1.084   .     S
C641   H643    1.078   .     S
C650   H501    1.088   1_655 S
C650   C502    1.347   1_655 S
C653   H204    1.088   1_565 S
C653   C205    1.332   1_565 S
H656   C205    1.086   1_565 S
O657   C658    1.413   .     S
O657   C502    1.396   1_655 S
C658   C661    1.521   .     S
C658   H659    1.115   .     S
C658   H510    1.113   1_655 S
C661   H663    1.110   .     S
C661   H664    1.111   .     S
C661   H662    1.111   .     S
N665   O667    1.301   .     A
N665   O666    1.301   .     A
O668   C669    1.412   .     S
C669   C672    1.521   .     S
C669   H671    1.115   .     S
C669   H670    1.114   .     S
C672   H675    1.111   .     S
C672   H674    1.111   .     S
C672   H673    1.110   .     S
Zn676  O680    1.958   .     S
Zn676  O688    1.927   .     S
Zn676  O682    1.932   .     S
Zn676  O689    1.928   .     S
Zn677  O691    1.934   .     S
Zn677  O680    1.942   .     S
Zn677  O685    1.932   .     S
Zn677  O683    1.936   .     S
Zn678  O687    1.933   .     S
Zn678  O684    1.930   .     S
Zn678  O680    1.940   .     S
Zn678  O692    1.941   .     S
Zn679  O686    1.938   .     S
Zn679  O681    1.937   .     S
Zn679  O680    1.935   .     S
Zn679  O690    1.932   .     S
O681   C693    1.269   .     A
O682   C694    1.273   .     A
O683   C695    1.276   .     A
O684   C696    1.273   .     A
O685   C697    1.273   .     A
O686   C698    1.282   .     A
O687   C697    1.276   .     A
O688   C698    1.285   .     A
O689   C695    1.276   .     A
O690   C696    1.274   .     A
O691   C693    1.267   .     A
O692   C694    1.288   .     A
C693   C727    1.444   .     S
C694   C725    1.458   .     S
C695   C730    1.436   .     S
C696   C728    1.451   .     S
C697   C700    1.450   .     S
C698   C699    1.471   .     S
C699   C702    1.400   .     A
C699   C703    1.399   .     A
C700   C715    1.392   .     A
C700   C716    1.389   .     A
C701   C702    1.392   .     A
C701   H720    1.084   .     S
C701   C705    1.403   .     A
C702   H721    1.083   .     S
C703   H722    1.076   .     S
C703   C704    1.408   .     A
C704   C705    1.416   .     A
C704   C706    1.425   .     A
C705   C34     1.390   1_556 S
C706   C710    1.413   .     A
C706   C32     1.422   1_556 S
C707   C713    1.426   .     A
C707   C708    1.429   .     A
C708   C709    1.392   .     A
C708   O743    1.382   .     S
C709   H717    1.085   .     S
C710   C711    1.393   .     A
C710   H723    1.077   .     S
C711   N740    1.437   .     S
C711   C37     1.406   1_556 S
C712   C713    1.425   .     A
C712   C714    1.410   .     A
C713   C716    1.408   .     A
C714   C715    1.390   .     A
C714   H724    1.081   .     S
C715   H719    1.084   .     S
C716   H718    1.078   .     S
C725   H801    1.088   .     S
C725   C802    1.347   .     S
H726   C875    1.088   1_455 S
C727   C875    1.347   1_455 S
C727   O882    1.396   1_455 S
C728   H954    1.088   .     S
C728   C955    1.332   .     S
H729   C1178   1.088   1_545 S
C730   C1178   1.332   1_545 S
C730   H1181   1.086   1_545 S
H731   C955    1.086   .     S
O732   C733    1.413   .     S
O732   C802    1.396   .     S
C733   C736    1.521   .     S
C733   H734    1.115   .     S
C733   H810    1.113   .     S
H735   C883    1.113   1_455 S
C736   H738    1.110   .     S
C736   H739    1.111   .     S
C736   H737    1.111   .     S
N740   O742    1.301   .     A
N740   O741    1.301   .     A
O743   C744    1.412   .     S
C744   C747    1.521   .     S
C744   H746    1.115   .     S
C744   H745    1.114   .     S
C747   H750    1.111   .     S
C747   H749    1.111   .     S
C747   H748    1.110   .     S
Zn751  O755    1.958   .     S
Zn751  O763    1.927   .     S
Zn751  O757    1.932   .     S
Zn751  O764    1.928   .     S
Zn752  O766    1.934   .     S
Zn752  O755    1.942   .     S
Zn752  O760    1.932   .     S
Zn752  O758    1.936   .     S
Zn753  O762    1.933   .     S
Zn753  O759    1.930   .     S
Zn753  O755    1.940   .     S
Zn753  O767    1.941   .     S
Zn754  O761    1.938   .     S
Zn754  O756    1.937   .     S
Zn754  O755    1.935   .     S
Zn754  O765    1.932   .     S
O756   C768    1.269   .     A
O757   C769    1.273   .     A
O758   C770    1.276   .     A
O759   C771    1.273   .     A
O760   C772    1.273   .     A
O761   C773    1.282   .     A
O762   C772    1.276   .     A
O763   C773    1.285   .     A
O764   C770    1.276   .     A
O765   C771    1.274   .     A
O766   C768    1.267   .     A
O767   C769    1.288   .     A
C768   C802    1.444   .     S
C769   C800    1.458   .     S
C770   C805    1.436   .     S
C771   C803    1.451   .     S
C772   C775    1.450   .     S
C773   C774    1.471   .     S
C774   C777    1.400   .     A
C774   C778    1.399   .     A
C775   C790    1.392   .     A
C775   C791    1.389   .     A
C776   C777    1.392   .     A
C776   H795    1.084   .     S
C776   C780    1.403   .     A
C777   H796    1.083   .     S
C778   H797    1.076   .     S
C778   C779    1.408   .     A
C779   C780    1.416   .     A
C779   C781    1.425   .     A
C780   C109    1.390   1_556 S
C781   C785    1.413   .     A
C781   C107    1.422   1_556 S
C782   C788    1.426   .     A
C782   C783    1.429   .     A
C783   C784    1.392   .     A
C783   O818    1.382   .     S
C784   H792    1.085   .     S
C785   C786    1.393   .     A
C785   H798    1.077   .     S
C786   N815    1.437   .     S
C786   C112    1.406   1_556 S
C787   C788    1.425   .     A
C787   C789    1.410   .     A
C788   C791    1.408   .     A
C789   C790    1.390   .     A
C789   H799    1.081   .     S
C790   H794    1.084   .     S
C791   H793    1.078   .     S
C800   H876    1.088   .     S
C800   C877    1.347   .     S
C803   H1029   1.088   .     S
C803   C1030   1.332   .     S
H804   C1253   1.088   1_545 S
C805   C1253   1.332   1_545 S
C805   H1256   1.086   1_545 S
H806   C1030   1.086   .     S
O807   C808    1.413   .     S
O807   C877    1.396   .     S
C808   C811    1.521   .     S
C808   H809    1.115   .     S
C808   H885    1.113   .     S
C811   H813    1.110   .     S
C811   H814    1.111   .     S
C811   H812    1.111   .     S
N815   O817    1.301   .     A
N815   O816    1.301   .     A
O818   C819    1.412   .     S
C819   C822    1.521   .     S
C819   H821    1.115   .     S
C819   H820    1.114   .     S
C822   H825    1.111   .     S
C822   H824    1.111   .     S
C822   H823    1.110   .     S
Zn826  O830    1.958   .     S
Zn826  O838    1.927   .     S
Zn826  O832    1.932   .     S
Zn826  O839    1.928   .     S
Zn827  O841    1.934   .     S
Zn827  O830    1.942   .     S
Zn827  O835    1.932   .     S
Zn827  O833    1.936   .     S
Zn828  O837    1.933   .     S
Zn828  O834    1.930   .     S
Zn828  O830    1.940   .     S
Zn828  O842    1.941   .     S
Zn829  O836    1.938   .     S
Zn829  O831    1.937   .     S
Zn829  O830    1.935   .     S
Zn829  O840    1.932   .     S
O831   C843    1.269   .     A
O832   C844    1.273   .     A
O833   C845    1.276   .     A
O834   C846    1.273   .     A
O835   C847    1.273   .     A
O836   C848    1.282   .     A
O837   C847    1.276   .     A
O838   C848    1.285   .     A
O839   C845    1.276   .     A
O840   C846    1.274   .     A
O841   C843    1.267   .     A
O842   C844    1.288   .     A
C843   C877    1.444   .     S
C844   C875    1.458   .     S
C845   C880    1.436   .     S
C846   C878    1.451   .     S
C847   C850    1.450   .     S
C848   C849    1.471   .     S
C849   C852    1.400   .     A
C849   C853    1.399   .     A
C850   C865    1.392   .     A
C850   C866    1.389   .     A
C851   C852    1.392   .     A
C851   H870    1.084   .     S
C851   C855    1.403   .     A
C852   H871    1.083   .     S
C853   H872    1.076   .     S
C853   C854    1.408   .     A
C854   C855    1.416   .     A
C854   C856    1.425   .     A
C855   C184    1.390   1_556 S
C856   C860    1.413   .     A
C856   C182    1.422   1_556 S
C857   C863    1.426   .     A
C857   C858    1.429   .     A
C858   C859    1.392   .     A
C858   O893    1.382   .     S
C859   H867    1.085   .     S
C860   C861    1.393   .     A
C860   H873    1.077   .     S
C861   N890    1.437   .     S
C861   C187    1.406   1_556 S
C862   C863    1.425   .     A
C862   C864    1.410   .     A
C863   C866    1.408   .     A
C864   C865    1.390   .     A
C864   H874    1.081   .     S
C865   H869    1.084   .     S
C866   H868    1.078   .     S
C875   H726    1.088   1_655 S
C875   C727    1.347   1_655 S
C878   H1104   1.088   .     S
C878   C1105   1.332   .     S
H879   C1328   1.088   1_545 S
C880   C1328   1.332   1_545 S
C880   H1331   1.086   1_545 S
H881   C1105   1.086   .     S
O882   C883    1.413   .     S
O882   C727    1.396   1_655 S
C883   C886    1.521   .     S
C883   H884    1.115   .     S
C883   H735    1.113   1_655 S
C886   H888    1.110   .     S
C886   H889    1.111   .     S
C886   H887    1.111   .     S
N890   O892    1.301   .     A
N890   O891    1.301   .     A
O893   C894    1.412   .     S
C894   C897    1.521   .     S
C894   H896    1.115   .     S
C894   H895    1.114   .     S
C897   H900    1.111   .     S
C897   H899    1.111   .     S
C897   H898    1.110   .     S
Zn901  O905    1.958   .     S
Zn901  O913    1.927   .     S
Zn901  O907    1.932   .     S
Zn901  O914    1.928   .     S
Zn902  O916    1.934   .     S
Zn902  O905    1.942   .     S
Zn902  O910    1.932   .     S
Zn902  O908    1.936   .     S
Zn903  O912    1.933   .     S
Zn903  O909    1.930   .     S
Zn903  O905    1.940   .     S
Zn903  O917    1.941   .     S
Zn904  O911    1.938   .     S
Zn904  O906    1.937   .     S
Zn904  O905    1.935   .     S
Zn904  O915    1.932   .     S
O906   C918    1.269   .     A
O907   C919    1.273   .     A
O908   C920    1.276   .     A
O909   C921    1.273   .     A
O910   C922    1.273   .     A
O911   C923    1.282   .     A
O912   C922    1.276   .     A
O913   C923    1.285   .     A
O914   C920    1.276   .     A
O915   C921    1.274   .     A
O916   C918    1.267   .     A
O917   C919    1.288   .     A
C918   C952    1.444   .     S
C919   C950    1.458   .     S
C920   C955    1.436   .     S
C921   C953    1.451   .     S
C922   C925    1.450   .     S
C923   C924    1.471   .     S
C924   C927    1.400   .     A
C924   C928    1.399   .     A
C925   C940    1.392   .     A
C925   C941    1.389   .     A
C926   C927    1.392   .     A
C926   H945    1.084   .     S
C926   C930    1.403   .     A
C927   H946    1.083   .     S
C928   H947    1.076   .     S
C928   C929    1.408   .     A
C929   C930    1.416   .     A
C929   C931    1.425   .     A
C930   C259    1.390   1_556 S
C931   C935    1.413   .     A
C931   C257    1.422   1_556 S
C932   C938    1.426   .     A
C932   C933    1.429   .     A
C933   C934    1.392   .     A
C933   O968    1.382   .     S
C934   H942    1.085   .     S
C935   C936    1.393   .     A
C935   H948    1.077   .     S
C936   N965    1.437   .     S
C936   C262    1.406   1_556 S
C937   C938    1.425   .     A
C937   C939    1.410   .     A
C938   C941    1.408   .     A
C939   C940    1.390   .     A
C939   H949    1.081   .     S
C940   H944    1.084   .     S
C941   H943    1.078   .     S
C950   H1026   1.088   .     S
C950   C1027   1.347   .     S
H951   C1100   1.088   1_455 S
C952   C1100   1.347   1_455 S
C952   O1107   1.396   1_455 S
C953   H1179   1.088   .     S
C953   C1180   1.332   .     S
H956   C1180   1.086   .     S
O957   C958    1.413   .     S
O957   C1027   1.396   .     S
C958   C961    1.521   .     S
C958   H959    1.115   .     S
C958   H1035   1.113   .     S
H960   C1108   1.113   1_455 S
C961   H963    1.110   .     S
C961   H964    1.111   .     S
C961   H962    1.111   .     S
N965   O967    1.301   .     A
N965   O966    1.301   .     A
O968   C969    1.412   .     S
C969   C972    1.521   .     S
C969   H971    1.115   .     S
C969   H970    1.114   .     S
C972   H975    1.111   .     S
C972   H974    1.111   .     S
C972   H973    1.110   .     S
Zn976  O980    1.958   .     S
Zn976  O988    1.927   .     S
Zn976  O982    1.932   .     S
Zn976  O989    1.928   .     S
Zn977  O991    1.934   .     S
Zn977  O980    1.942   .     S
Zn977  O985    1.932   .     S
Zn977  O983    1.936   .     S
Zn978  O987    1.933   .     S
Zn978  O984    1.930   .     S
Zn978  O980    1.940   .     S
Zn978  O992    1.941   .     S
Zn979  O986    1.938   .     S
Zn979  O981    1.937   .     S
Zn979  O980    1.935   .     S
Zn979  O990    1.932   .     S
O981   C993    1.269   .     A
O982   C994    1.273   .     A
O983   C995    1.276   .     A
O984   C996    1.273   .     A
O985   C997    1.273   .     A
O986   C998    1.282   .     A
O987   C997    1.276   .     A
O988   C998    1.285   .     A
O989   C995    1.276   .     A
O990   C996    1.274   .     A
O991   C993    1.267   .     A
O992   C994    1.288   .     A
C993   C1027   1.444   .     S
C994   C1025   1.458   .     S
C995   C1030   1.436   .     S
C996   C1028   1.451   .     S
C997   C1000   1.450   .     S
C998   C999    1.471   .     S
C999   C1002   1.400   .     A
C999   C1003   1.399   .     A
C1000  C1015   1.392   .     A
C1000  C1016   1.389   .     A
C1001  C1002   1.392   .     A
C1001  H1020   1.084   .     S
C1001  C1005   1.403   .     A
C1002  H1021   1.083   .     S
C1003  H1022   1.076   .     S
C1003  C1004   1.408   .     A
C1004  C1005   1.416   .     A
C1004  C1006   1.425   .     A
C1005  C334    1.390   1_556 S
C1006  C1010   1.413   .     A
C1006  C332    1.422   1_556 S
C1007  C1013   1.426   .     A
C1007  C1008   1.429   .     A
C1008  C1009   1.392   .     A
C1008  O1043   1.382   .     S
C1009  H1017   1.085   .     S
C1010  C1011   1.393   .     A
C1010  H1023   1.077   .     S
C1011  N1040   1.437   .     S
C1011  C337    1.406   1_556 S
C1012  C1013   1.425   .     A
C1012  C1014   1.410   .     A
C1013  C1016   1.408   .     A
C1014  C1015   1.390   .     A
C1014  H1024   1.081   .     S
C1015  H1019   1.084   .     S
C1016  H1018   1.078   .     S
C1025  H1101   1.088   .     S
C1025  C1102   1.347   .     S
C1028  H1254   1.088   .     S
C1028  C1255   1.332   .     S
H1031  C1255   1.086   .     S
O1032  C1033   1.413   .     S
O1032  C1102   1.396   .     S
C1033  C1036   1.521   .     S
C1033  H1034   1.115   .     S
C1033  H1110   1.113   .     S
C1036  H1038   1.110   .     S
C1036  H1039   1.111   .     S
C1036  H1037   1.111   .     S
N1040  O1042   1.301   .     A
N1040  O1041   1.301   .     A
O1043  C1044   1.412   .     S
C1044  C1047   1.521   .     S
C1044  H1046   1.115   .     S
C1044  H1045   1.114   .     S
C1047  H1050   1.111   .     S
C1047  H1049   1.111   .     S
C1047  H1048   1.110   .     S
Zn1051 O1055   1.958   .     S
Zn1051 O1063   1.927   .     S
Zn1051 O1057   1.932   .     S
Zn1051 O1064   1.928   .     S
Zn1052 O1066   1.934   .     S
Zn1052 O1055   1.942   .     S
Zn1052 O1060   1.932   .     S
Zn1052 O1058   1.936   .     S
Zn1053 O1062   1.933   .     S
Zn1053 O1059   1.930   .     S
Zn1053 O1055   1.940   .     S
Zn1053 O1067   1.941   .     S
Zn1054 O1061   1.938   .     S
Zn1054 O1056   1.937   .     S
Zn1054 O1055   1.935   .     S
Zn1054 O1065   1.932   .     S
O1056  C1068   1.269   .     A
O1057  C1069   1.273   .     A
O1058  C1070   1.276   .     A
O1059  C1071   1.273   .     A
O1060  C1072   1.273   .     A
O1061  C1073   1.282   .     A
O1062  C1072   1.276   .     A
O1063  C1073   1.285   .     A
O1064  C1070   1.276   .     A
O1065  C1071   1.274   .     A
O1066  C1068   1.267   .     A
O1067  C1069   1.288   .     A
C1068  C1102   1.444   .     S
C1069  C1100   1.458   .     S
C1070  C1105   1.436   .     S
C1071  C1103   1.451   .     S
C1072  C1075   1.450   .     S
C1073  C1074   1.471   .     S
C1074  C1077   1.400   .     A
C1074  C1078   1.399   .     A
C1075  C1090   1.392   .     A
C1075  C1091   1.389   .     A
C1076  C1077   1.392   .     A
C1076  H1095   1.084   .     S
C1076  C1080   1.403   .     A
C1077  H1096   1.083   .     S
C1078  H1097   1.076   .     S
C1078  C1079   1.408   .     A
C1079  C1080   1.416   .     A
C1079  C1081   1.425   .     A
C1080  C409    1.390   1_556 S
C1081  C1085   1.413   .     A
C1081  C407    1.422   1_556 S
C1082  C1088   1.426   .     A
C1082  C1083   1.429   .     A
C1083  C1084   1.392   .     A
C1083  O1118   1.382   .     S
C1084  H1092   1.085   .     S
C1085  C1086   1.393   .     A
C1085  H1098   1.077   .     S
C1086  N1115   1.437   .     S
C1086  C412    1.406   1_556 S
C1087  C1088   1.425   .     A
C1087  C1089   1.410   .     A
C1088  C1091   1.408   .     A
C1089  C1090   1.390   .     A
C1089  H1099   1.081   .     S
C1090  H1094   1.084   .     S
C1091  H1093   1.078   .     S
C1100  H951    1.088   1_655 S
C1100  C952    1.347   1_655 S
C1103  H1329   1.088   .     S
C1103  C1330   1.332   .     S
H1106  C1330   1.086   .     S
O1107  C1108   1.413   .     S
O1107  C952    1.396   1_655 S
C1108  C1111   1.521   .     S
C1108  H1109   1.115   .     S
C1108  H960    1.113   1_655 S
C1111  H1113   1.110   .     S
C1111  H1114   1.111   .     S
C1111  H1112   1.111   .     S
N1115  O1117   1.301   .     A
N1115  O1116   1.301   .     A
O1118  C1119   1.412   .     S
C1119  C1122   1.521   .     S
C1119  H1121   1.115   .     S
C1119  H1120   1.114   .     S
C1122  H1125   1.111   .     S
C1122  H1124   1.111   .     S
C1122  H1123   1.110   .     S
Zn1126 O1130   1.958   .     S
Zn1126 O1138   1.927   .     S
Zn1126 O1132   1.932   .     S
Zn1126 O1139   1.928   .     S
Zn1127 O1141   1.934   .     S
Zn1127 O1130   1.942   .     S
Zn1127 O1135   1.932   .     S
Zn1127 O1133   1.936   .     S
Zn1128 O1137   1.933   .     S
Zn1128 O1134   1.930   .     S
Zn1128 O1130   1.940   .     S
Zn1128 O1142   1.941   .     S
Zn1129 O1136   1.938   .     S
Zn1129 O1131   1.937   .     S
Zn1129 O1130   1.935   .     S
Zn1129 O1140   1.932   .     S
O1131  C1143   1.269   .     A
O1132  C1144   1.273   .     A
O1133  C1145   1.276   .     A
O1134  C1146   1.273   .     A
O1135  C1147   1.273   .     A
O1136  C1148   1.282   .     A
O1137  C1147   1.276   .     A
O1138  C1148   1.285   .     A
O1139  C1145   1.276   .     A
O1140  C1146   1.274   .     A
O1141  C1143   1.267   .     A
O1142  C1144   1.288   .     A
C1143  C1177   1.444   .     S
C1144  C1175   1.458   .     S
C1145  C1180   1.436   .     S
C1146  C1178   1.451   .     S
C1147  C1150   1.450   .     S
C1148  C1149   1.471   .     S
C1149  C1152   1.400   .     A
C1149  C1153   1.399   .     A
C1150  C1165   1.392   .     A
C1150  C1166   1.389   .     A
C1151  C1152   1.392   .     A
C1151  H1170   1.084   .     S
C1151  C1155   1.403   .     A
C1152  H1171   1.083   .     S
C1153  H1172   1.076   .     S
C1153  C1154   1.408   .     A
C1154  C1155   1.416   .     A
C1154  C1156   1.425   .     A
C1155  C484    1.390   1_556 S
C1156  C1160   1.413   .     A
C1156  C482    1.422   1_556 S
C1157  C1163   1.426   .     A
C1157  C1158   1.429   .     A
C1158  C1159   1.392   .     A
C1158  O1193   1.382   .     S
C1159  H1167   1.085   .     S
C1160  C1161   1.393   .     A
C1160  H1173   1.077   .     S
C1161  N1190   1.437   .     S
C1161  C487    1.406   1_556 S
C1162  C1163   1.425   .     A
C1162  C1164   1.410   .     A
C1163  C1166   1.408   .     A
C1164  C1165   1.390   .     A
C1164  H1174   1.081   .     S
C1165  H1169   1.084   .     S
C1166  H1168   1.078   .     S
C1175  H1251   1.088   .     S
C1175  C1252   1.347   .     S
H1176  C1325   1.088   1_455 S
C1177  C1325   1.347   1_455 S
C1177  O1332   1.396   1_455 S
C1178  H729    1.088   1_565 S
C1178  C730    1.332   1_565 S
H1181  C730    1.086   1_565 S
O1182  C1183   1.413   .     S
O1182  C1252   1.396   .     S
C1183  C1186   1.521   .     S
C1183  H1184   1.115   .     S
C1183  H1260   1.113   .     S
H1185  C1333   1.113   1_455 S
C1186  H1188   1.110   .     S
C1186  H1189   1.111   .     S
C1186  H1187   1.111   .     S
N1190  O1192   1.301   .     A
N1190  O1191   1.301   .     A
O1193  C1194   1.412   .     S
C1194  C1197   1.521   .     S
C1194  H1196   1.115   .     S
C1194  H1195   1.114   .     S
C1197  H1200   1.111   .     S
C1197  H1199   1.111   .     S
C1197  H1198   1.110   .     S
Zn1201 O1205   1.958   .     S
Zn1201 O1213   1.927   .     S
Zn1201 O1207   1.932   .     S
Zn1201 O1214   1.928   .     S
Zn1202 O1216   1.934   .     S
Zn1202 O1205   1.942   .     S
Zn1202 O1210   1.932   .     S
Zn1202 O1208   1.936   .     S
Zn1203 O1212   1.933   .     S
Zn1203 O1209   1.930   .     S
Zn1203 O1205   1.940   .     S
Zn1203 O1217   1.941   .     S
Zn1204 O1211   1.938   .     S
Zn1204 O1206   1.937   .     S
Zn1204 O1205   1.935   .     S
Zn1204 O1215   1.932   .     S
O1206  C1218   1.269   .     A
O1207  C1219   1.273   .     A
O1208  C1220   1.276   .     A
O1209  C1221   1.273   .     A
O1210  C1222   1.273   .     A
O1211  C1223   1.282   .     A
O1212  C1222   1.276   .     A
O1213  C1223   1.285   .     A
O1214  C1220   1.276   .     A
O1215  C1221   1.274   .     A
O1216  C1218   1.267   .     A
O1217  C1219   1.288   .     A
C1218  C1252   1.444   .     S
C1219  C1250   1.458   .     S
C1220  C1255   1.436   .     S
C1221  C1253   1.451   .     S
C1222  C1225   1.450   .     S
C1223  C1224   1.471   .     S
C1224  C1227   1.400   .     A
C1224  C1228   1.399   .     A
C1225  C1240   1.392   .     A
C1225  C1241   1.389   .     A
C1226  C1227   1.392   .     A
C1226  H1245   1.084   .     S
C1226  C1230   1.403   .     A
C1227  H1246   1.083   .     S
C1228  H1247   1.076   .     S
C1228  C1229   1.408   .     A
C1229  C1230   1.416   .     A
C1229  C1231   1.425   .     A
C1230  C559    1.390   1_556 S
C1231  C1235   1.413   .     A
C1231  C557    1.422   1_556 S
C1232  C1238   1.426   .     A
C1232  C1233   1.429   .     A
C1233  C1234   1.392   .     A
C1233  O1268   1.382   .     S
C1234  H1242   1.085   .     S
C1235  C1236   1.393   .     A
C1235  H1248   1.077   .     S
C1236  N1265   1.437   .     S
C1236  C562    1.406   1_556 S
C1237  C1238   1.425   .     A
C1237  C1239   1.410   .     A
C1238  C1241   1.408   .     A
C1239  C1240   1.390   .     A
C1239  H1249   1.081   .     S
C1240  H1244   1.084   .     S
C1241  H1243   1.078   .     S
C1250  H1326   1.088   .     S
C1250  C1327   1.347   .     S
C1253  H804    1.088   1_565 S
C1253  C805    1.332   1_565 S
H1256  C805    1.086   1_565 S
O1257  C1258   1.413   .     S
O1257  C1327   1.396   .     S
C1258  C1261   1.521   .     S
C1258  H1259   1.115   .     S
C1258  H1335   1.113   .     S
C1261  H1263   1.110   .     S
C1261  H1264   1.111   .     S
C1261  H1262   1.111   .     S
N1265  O1267   1.301   .     A
N1265  O1266   1.301   .     A
O1268  C1269   1.412   .     S
C1269  C1272   1.521   .     S
C1269  H1271   1.115   .     S
C1269  H1270   1.114   .     S
C1272  H1275   1.111   .     S
C1272  H1274   1.111   .     S
C1272  H1273   1.110   .     S
Zn1276 O1280   1.958   .     S
Zn1276 O1288   1.927   .     S
Zn1276 O1282   1.932   .     S
Zn1276 O1289   1.928   .     S
Zn1277 O1291   1.934   .     S
Zn1277 O1280   1.942   .     S
Zn1277 O1285   1.932   .     S
Zn1277 O1283   1.936   .     S
Zn1278 O1287   1.933   .     S
Zn1278 O1284   1.930   .     S
Zn1278 O1280   1.940   .     S
Zn1278 O1292   1.941   .     S
Zn1279 O1286   1.938   .     S
Zn1279 O1281   1.937   .     S
Zn1279 O1280   1.935   .     S
Zn1279 O1290   1.932   .     S
O1281  C1293   1.269   .     A
O1282  C1294   1.273   .     A
O1283  C1295   1.276   .     A
O1284  C1296   1.273   .     A
O1285  C1297   1.273   .     A
O1286  C1298   1.282   .     A
O1287  C1297   1.276   .     A
O1288  C1298   1.285   .     A
O1289  C1295   1.276   .     A
O1290  C1296   1.274   .     A
O1291  C1293   1.267   .     A
O1292  C1294   1.288   .     A
C1293  C1327   1.444   .     S
C1294  C1325   1.458   .     S
C1295  C1330   1.436   .     S
C1296  C1328   1.451   .     S
C1297  C1300   1.450   .     S
C1298  C1299   1.471   .     S
C1299  C1302   1.400   .     A
C1299  C1303   1.399   .     A
C1300  C1315   1.392   .     A
C1300  C1316   1.389   .     A
C1301  C1302   1.392   .     A
C1301  H1320   1.084   .     S
C1301  C1305   1.403   .     A
C1302  H1321   1.083   .     S
C1303  H1322   1.076   .     S
C1303  C1304   1.408   .     A
C1304  C1305   1.416   .     A
C1304  C1306   1.425   .     A
C1305  C634    1.390   1_556 S
C1306  C1310   1.413   .     A
C1306  C632    1.422   1_556 S
C1307  C1313   1.426   .     A
C1307  C1308   1.429   .     A
C1308  C1309   1.392   .     A
C1308  O1343   1.382   .     S
C1309  H1317   1.085   .     S
C1310  C1311   1.393   .     A
C1310  H1323   1.077   .     S
C1311  N1340   1.437   .     S
C1311  C637    1.406   1_556 S
C1312  C1313   1.425   .     A
C1312  C1314   1.410   .     A
C1313  C1316   1.408   .     A
C1314  C1315   1.390   .     A
C1314  H1324   1.081   .     S
C1315  H1319   1.084   .     S
C1316  H1318   1.078   .     S
C1325  H1176   1.088   1_655 S
C1325  C1177   1.347   1_655 S
C1328  H879    1.088   1_565 S
C1328  C880    1.332   1_565 S
H1331  C880    1.086   1_565 S
O1332  C1333   1.413   .     S
O1332  C1177   1.396   1_655 S
C1333  C1336   1.521   .     S
C1333  H1334   1.115   .     S
C1333  H1185   1.113   1_655 S
C1336  H1338   1.110   .     S
C1336  H1339   1.111   .     S
C1336  H1337   1.111   .     S
N1340  O1342   1.301   .     A
N1340  O1341   1.301   .     A
O1343  C1344   1.412   .     S
C1344  C1347   1.521   .     S
C1344  H1346   1.115   .     S
C1344  H1345   1.114   .     S
C1347  H1350   1.111   .     S
C1347  H1349   1.111   .     S
C1347  H1348   1.110   .     S
