data_str_m2_o1_o1_pcu_sym.36
_audit_creation_date              2020-01-03
_audit_creation_method            'Materials Studio'
_symmetry_space_group_name_H-M    'P1'
_symmetry_Int_Tables_number       1
_symmetry_cell_setting            triclinic
loop_
_symmetry_equiv_pos_as_xyz
  x,y,z
_cell_length_a                    32.2972
_cell_length_b                    29.1103
_cell_length_c                    28.8623
_cell_angle_alpha                 89.9999
_cell_angle_beta                  90.0000
_cell_angle_gamma                 89.9999
loop_
_atom_site_label
_atom_site_type_symbol
_atom_site_fract_x
_atom_site_fract_y
_atom_site_fract_z
_atom_site_U_iso_or_equiv
_atom_site_adp_type
_atom_site_occupancy
C1     C     0.06221   0.19402   0.16667   0.00000  Uiso   1.00
C2     C    -0.00000   0.29078   0.30855   0.00000  Uiso   1.00
C3     C    -0.00000   0.29078   0.02479   0.00000  Uiso   1.00
C4     C     0.00000   0.20922   0.30855   0.00000  Uiso   1.00
C5     C     0.25000   0.45922   0.02479   0.00000  Uiso   1.00
C6     C     0.25000   0.04078   0.30855   0.00000  Uiso   1.00
C7     C     0.25000   0.04078   0.02479   0.00000  Uiso   1.00
C8     C     0.25000   0.45922   0.30855   0.00000  Uiso   1.00
C9     C     0.38536   0.14613   0.12443   0.00000  Uiso   1.00
C10    C     0.11463   0.35387   0.20890   0.00000  Uiso   1.00
C11    C     0.11463   0.35387   0.12443   0.00000  Uiso   1.00
C12    C     0.43779   0.30598   0.16667   0.00000  Uiso   1.00
C13    C     0.38536   0.14613   0.20890   0.00000  Uiso   1.00
C14    C     0.11463   0.14613   0.20890   0.00000  Uiso   1.00
C15    C     0.38536   0.35387   0.12443   0.00000  Uiso   1.00
C16    C     0.38536   0.35387   0.20890   0.00000  Uiso   1.00
C17    C     0.11463   0.14613   0.12443   0.00000  Uiso   1.00
C18    C     0.13536   0.39613   0.12443   0.00000  Uiso   1.00
C19    C     0.36463   0.10387   0.20890   0.00000  Uiso   1.00
C20    C     0.36463   0.10387   0.12443   0.00000  Uiso   1.00
C21    C     0.13536   0.39613   0.20890   0.00000  Uiso   1.00
C22    C     0.36463   0.39613   0.20890   0.00000  Uiso   1.00
C23    C     0.43779   0.19402   0.16667   0.00000  Uiso   1.00
C24    C     0.13536   0.10387   0.12443   0.00000  Uiso   1.00
C25    C     0.13536   0.10387   0.20890   0.00000  Uiso   1.00
C26    C     0.36463   0.39613   0.12443   0.00000  Uiso   1.00
C27    C     0.09928   0.33607   0.16667   0.00000  Uiso   1.00
C28    C     0.40072   0.16393   0.16667   0.00000  Uiso   1.00
C29    C     0.40072   0.33607   0.16667   0.00000  Uiso   1.00
C30    C     0.09928   0.16393   0.16667   0.00000  Uiso   1.00
C31    C     0.34928   0.08607   0.16667   0.00000  Uiso   1.00
C32    C     0.15072   0.41393   0.16667   0.00000  Uiso   1.00
C33    C     0.15072   0.08607   0.16667   0.00000  Uiso   1.00
C34    C     0.06221   0.30598   0.16667   0.00000  Uiso   1.00
C35    C     0.34928   0.41393   0.16667   0.00000  Uiso   1.00
C36    C     0.00000   0.16272   0.04893   0.00000  Uiso   1.00
C37    C    -0.00000   0.33728   0.28440   0.00000  Uiso   1.00
C38    C    -0.00000   0.33728   0.04893   0.00000  Uiso   1.00
C39    C     0.00000   0.16272   0.28440   0.00000  Uiso   1.00
C40    C     0.25000   0.41272   0.04893   0.00000  Uiso   1.00
C41    C     0.25000   0.08728   0.28440   0.00000  Uiso   1.00
C42    C     0.25000   0.08728   0.04893   0.00000  Uiso   1.00
C43    C     0.25000   0.41272   0.28440   0.00000  Uiso   1.00
C44    C     0.38530   0.17399   0.08010   0.00000  Uiso   1.00
C45    C     0.31221   0.44402   0.16667   0.00000  Uiso   1.00
C46    C     0.11470   0.32601   0.25323   0.00000  Uiso   1.00
C47    C     0.11470   0.32601   0.08010   0.00000  Uiso   1.00
C48    C     0.38530   0.17399   0.25323   0.00000  Uiso   1.00
C49    C     0.11470   0.17399   0.25323   0.00000  Uiso   1.00
C50    C     0.38529   0.32601   0.08010   0.00000  Uiso   1.00
C51    C     0.38529   0.32601   0.25323   0.00000  Uiso   1.00
C52    C     0.11470   0.17399   0.08010   0.00000  Uiso   1.00
C53    C     0.13530   0.42399   0.08010   0.00000  Uiso   1.00
C54    C     0.36470   0.07601   0.25323   0.00000  Uiso   1.00
C55    C     0.36470   0.07601   0.08010   0.00000  Uiso   1.00
C56    C     0.18778   0.05598   0.16667   0.00000  Uiso   1.00
C57    C     0.13530   0.42399   0.25323   0.00000  Uiso   1.00
C58    C     0.36470   0.42399   0.25323   0.00000  Uiso   1.00
C59    C     0.13529   0.07601   0.08010   0.00000  Uiso   1.00
C60    C     0.13529   0.07601   0.25323   0.00000  Uiso   1.00
C61    C     0.36470   0.42399   0.08010   0.00000  Uiso   1.00
C62    C     0.18779   0.44402   0.16667   0.00000  Uiso   1.00
C63    C     0.31221   0.05598   0.16667   0.00000  Uiso   1.00
C64    C     0.00000   0.20922   0.02478   0.00000  Uiso   1.00
Cu65   Cu    0.00000   0.25000   0.21355   0.00000  Uiso   1.00
Cu66   Cu    0.00000   0.25000   0.11978   0.00000  Uiso   1.00
Cu67   Cu    0.25000   0.00000   0.21355   0.00000  Uiso   1.00
Cu68   Cu    0.25000   0.00000   0.11978   0.00000  Uiso   1.00
H69    H     0.00000   0.16282   0.08646   0.00000  Uiso   1.00
H70    H     0.00000   0.16282   0.24687   0.00000  Uiso   1.00
H71    H     0.02756   0.14261   0.29454   0.00000  Uiso   1.00
H72    H     0.47244   0.14260   0.29454   0.00000  Uiso   1.00
H73    H     0.25000   0.41282   0.08646   0.00000  Uiso   1.00
H74    H     0.22244   0.39260   0.03879   0.00000  Uiso   1.00
H75    H     0.27756   0.39260   0.03879   0.00000  Uiso   1.00
H76    H     0.25000   0.08718   0.24687   0.00000  Uiso   1.00
H77    H     0.22244   0.10740   0.29454   0.00000  Uiso   1.00
H78    H     0.27756   0.10740   0.29454   0.00000  Uiso   1.00
H79    H     0.25000   0.08718   0.08646   0.00000  Uiso   1.00
H80    H     0.47244   0.14260   0.03879   0.00000  Uiso   1.00
H81    H     0.27756   0.10740   0.03879   0.00000  Uiso   1.00
H82    H     0.22244   0.10740   0.03879   0.00000  Uiso   1.00
H83    H     0.25000   0.41282   0.24687   0.00000  Uiso   1.00
H84    H     0.27756   0.39261   0.29454   0.00000  Uiso   1.00
H85    H     0.22244   0.39260   0.29454   0.00000  Uiso   1.00
H86    H     0.39156   0.21077   0.08636   0.00000  Uiso   1.00
H87    H     0.40762   0.16000   0.05484   0.00000  Uiso   1.00
H88    H     0.35399   0.17291   0.06420   0.00000  Uiso   1.00
H89    H     0.10844   0.28923   0.24697   0.00000  Uiso   1.00
H90    H     0.14601   0.32709   0.26913   0.00000  Uiso   1.00
H91    H     0.02756   0.14260   0.03879   0.00000  Uiso   1.00
H92    H     0.09238   0.34000   0.27850   0.00000  Uiso   1.00
H93    H     0.10844   0.28923   0.08636   0.00000  Uiso   1.00
H94    H     0.09238   0.34000   0.05484   0.00000  Uiso   1.00
H95    H     0.14601   0.32709   0.06420   0.00000  Uiso   1.00
H96    H     0.39156   0.21077   0.24697   0.00000  Uiso   1.00
H97    H     0.35399   0.17291   0.26913   0.00000  Uiso   1.00
H98    H     0.40762   0.16000   0.27850   0.00000  Uiso   1.00
H99    H     0.10844   0.21077   0.24697   0.00000  Uiso   1.00
H100   H     0.09238   0.16000   0.27850   0.00000  Uiso   1.00
H101   H     0.14601   0.17292   0.26913   0.00000  Uiso   1.00
H102   H    -0.00000   0.33718   0.24687   0.00000  Uiso   1.00
H103   H     0.39156   0.28923   0.08636   0.00000  Uiso   1.00
H104   H     0.35399   0.32709   0.06420   0.00000  Uiso   1.00
H105   H     0.40762   0.34000   0.05483   0.00000  Uiso   1.00
H106   H     0.39156   0.28923   0.24697   0.00000  Uiso   1.00
H107   H     0.40762   0.34000   0.27850   0.00000  Uiso   1.00
H108   H     0.35399   0.32709   0.26913   0.00000  Uiso   1.00
H109   H     0.10844   0.21077   0.08636   0.00000  Uiso   1.00
H110   H     0.14601   0.17291   0.06420   0.00000  Uiso   1.00
H111   H     0.09238   0.16000   0.05483   0.00000  Uiso   1.00
H112   H     0.14156   0.46077   0.08636   0.00000  Uiso   1.00
H113   H     0.47244   0.35740   0.29454   0.00000  Uiso   1.00
H114   H     0.15762   0.41000   0.05484   0.00000  Uiso   1.00
H115   H     0.10399   0.42291   0.06420   0.00000  Uiso   1.00
H116   H     0.35844   0.03923   0.24697   0.00000  Uiso   1.00
H117   H     0.39601   0.07709   0.26913   0.00000  Uiso   1.00
H118   H     0.34238   0.09000   0.27850   0.00000  Uiso   1.00
H119   H     0.35844   0.03923   0.08636   0.00000  Uiso   1.00
H120   H     0.34238   0.09000   0.05484   0.00000  Uiso   1.00
H121   H     0.39601   0.07709   0.06420   0.00000  Uiso   1.00
H122   H     0.14156   0.46077   0.24697   0.00000  Uiso   1.00
H123   H     0.10399   0.42291   0.26913   0.00000  Uiso   1.00
H124   H     0.02756   0.35740   0.29454   0.00000  Uiso   1.00
H125   H     0.15762   0.41000   0.27850   0.00000  Uiso   1.00
H126   H     0.35844   0.46077   0.24697   0.00000  Uiso   1.00
H127   H     0.34238   0.41000   0.27850   0.00000  Uiso   1.00
H128   H     0.39601   0.42292   0.26913   0.00000  Uiso   1.00
H129   H     0.14156   0.03923   0.08636   0.00000  Uiso   1.00
H130   H     0.10399   0.07709   0.06420   0.00000  Uiso   1.00
H131   H     0.15762   0.09000   0.05483   0.00000  Uiso   1.00
H132   H     0.14156   0.03923   0.24697   0.00000  Uiso   1.00
H133   H     0.15762   0.09000   0.27850   0.00000  Uiso   1.00
H134   H     0.10399   0.07709   0.26913   0.00000  Uiso   1.00
H135   H    -0.00000   0.33718   0.08646   0.00000  Uiso   1.00
H136   H     0.35844   0.46077   0.08636   0.00000  Uiso   1.00
H137   H     0.39601   0.42291   0.06420   0.00000  Uiso   1.00
H138   H     0.34238   0.41000   0.05483   0.00000  Uiso   1.00
H139   H     0.02756   0.35740   0.03879   0.00000  Uiso   1.00
H140   H     0.47244   0.35740   0.03879   0.00000  Uiso   1.00
N141   N     0.00000   0.25000   0.28402   0.00000  Uiso   1.00
N142   N     0.00000   0.25000   0.04931   0.00000  Uiso   1.00
N143   N     0.25000   0.00000   0.28402   0.00000  Uiso   1.00
N144   N     0.25000   0.00000   0.04931   0.00000  Uiso   1.00
O145   O     0.04508   0.20491   0.20625   0.00000  Uiso   1.00
O146   O     0.20491   0.04509   0.12709   0.00000  Uiso   1.00
O147   O     0.20491   0.04509   0.20625   0.00000  Uiso   1.00
O148   O     0.29508   0.45491   0.12709   0.00000  Uiso   1.00
O149   O     0.20491   0.45491   0.12709   0.00000  Uiso   1.00
O150   O     0.29508   0.04509   0.20625   0.00000  Uiso   1.00
O151   O     0.29508   0.04509   0.12709   0.00000  Uiso   1.00
O152   O     0.20491   0.45491   0.20625   0.00000  Uiso   1.00
O153   O     0.45491   0.29509   0.12709   0.00000  Uiso   1.00
O154   O     0.45491   0.29509   0.20625   0.00000  Uiso   1.00
O155   O     0.04508   0.20491   0.12709   0.00000  Uiso   1.00
O156   O     0.45491   0.20491   0.12709   0.00000  Uiso   1.00
O157   O     0.04508   0.29509   0.20625   0.00000  Uiso   1.00
O158   O     0.04508   0.29509   0.12709   0.00000  Uiso   1.00
O159   O     0.45491   0.20491   0.20625   0.00000  Uiso   1.00
O160   O     0.29508   0.45491   0.20625   0.00000  Uiso   1.00
C161   C     0.56221   0.19402   0.16667   0.00000  Uiso   1.00
C162   C     0.50000   0.29078   0.30855   0.00000  Uiso   1.00
C163   C     0.50000   0.29078   0.02479   0.00000  Uiso   1.00
C164   C     0.50000   0.20922   0.30855   0.00000  Uiso   1.00
C165   C     0.75000   0.45922   0.02479   0.00000  Uiso   1.00
C166   C     0.75000   0.04078   0.30855   0.00000  Uiso   1.00
C167   C     0.75000   0.04078   0.02479   0.00000  Uiso   1.00
C168   C     0.75000   0.45922   0.30855   0.00000  Uiso   1.00
C169   C     0.88536   0.14613   0.12443   0.00000  Uiso   1.00
C170   C     0.61463   0.35387   0.20890   0.00000  Uiso   1.00
C171   C     0.61463   0.35387   0.12443   0.00000  Uiso   1.00
C172   C     0.93779   0.30598   0.16667   0.00000  Uiso   1.00
C173   C     0.88536   0.14613   0.20890   0.00000  Uiso   1.00
C174   C     0.61463   0.14613   0.20890   0.00000  Uiso   1.00
C175   C     0.88536   0.35387   0.12443   0.00000  Uiso   1.00
C176   C     0.88536   0.35387   0.20890   0.00000  Uiso   1.00
C177   C     0.61463   0.14613   0.12443   0.00000  Uiso   1.00
C178   C     0.63536   0.39613   0.12443   0.00000  Uiso   1.00
C179   C     0.86463   0.10387   0.20890   0.00000  Uiso   1.00
C180   C     0.86463   0.10387   0.12443   0.00000  Uiso   1.00
C181   C     0.63536   0.39613   0.20890   0.00000  Uiso   1.00
C182   C     0.86463   0.39613   0.20890   0.00000  Uiso   1.00
C183   C     0.93779   0.19402   0.16667   0.00000  Uiso   1.00
C184   C     0.63536   0.10387   0.12443   0.00000  Uiso   1.00
C185   C     0.63536   0.10387   0.20890   0.00000  Uiso   1.00
C186   C     0.86463   0.39613   0.12443   0.00000  Uiso   1.00
C187   C     0.59928   0.33607   0.16667   0.00000  Uiso   1.00
C188   C     0.90072   0.16393   0.16667   0.00000  Uiso   1.00
C189   C     0.90072   0.33607   0.16667   0.00000  Uiso   1.00
C190   C     0.59928   0.16393   0.16667   0.00000  Uiso   1.00
C191   C     0.84928   0.08607   0.16667   0.00000  Uiso   1.00
C192   C     0.65072   0.41393   0.16667   0.00000  Uiso   1.00
C193   C     0.65072   0.08607   0.16667   0.00000  Uiso   1.00
C194   C     0.56221   0.30598   0.16667   0.00000  Uiso   1.00
C195   C     0.84928   0.41393   0.16667   0.00000  Uiso   1.00
C196   C     0.50000   0.16272   0.04893   0.00000  Uiso   1.00
C197   C     0.50000   0.33728   0.28440   0.00000  Uiso   1.00
C198   C     0.50000   0.33728   0.04893   0.00000  Uiso   1.00
C199   C     0.50000   0.16272   0.28440   0.00000  Uiso   1.00
C200   C     0.75000   0.41272   0.04893   0.00000  Uiso   1.00
C201   C     0.75000   0.08728   0.28440   0.00000  Uiso   1.00
C202   C     0.75000   0.08728   0.04893   0.00000  Uiso   1.00
C203   C     0.75000   0.41272   0.28440   0.00000  Uiso   1.00
C204   C     0.88530   0.17399   0.08010   0.00000  Uiso   1.00
C205   C     0.81221   0.44402   0.16667   0.00000  Uiso   1.00
C206   C     0.61470   0.32601   0.25323   0.00000  Uiso   1.00
C207   C     0.61470   0.32601   0.08010   0.00000  Uiso   1.00
C208   C     0.88530   0.17399   0.25323   0.00000  Uiso   1.00
C209   C     0.61470   0.17399   0.25323   0.00000  Uiso   1.00
C210   C     0.88529   0.32601   0.08010   0.00000  Uiso   1.00
C211   C     0.88529   0.32601   0.25323   0.00000  Uiso   1.00
C212   C     0.61470   0.17399   0.08010   0.00000  Uiso   1.00
C213   C     0.63530   0.42399   0.08010   0.00000  Uiso   1.00
C214   C     0.86470   0.07601   0.25323   0.00000  Uiso   1.00
C215   C     0.86470   0.07601   0.08010   0.00000  Uiso   1.00
C216   C     0.68778   0.05598   0.16667   0.00000  Uiso   1.00
C217   C     0.63530   0.42399   0.25323   0.00000  Uiso   1.00
C218   C     0.86470   0.42399   0.25323   0.00000  Uiso   1.00
C219   C     0.63529   0.07601   0.08010   0.00000  Uiso   1.00
C220   C     0.63529   0.07601   0.25323   0.00000  Uiso   1.00
C221   C     0.86470   0.42399   0.08010   0.00000  Uiso   1.00
C222   C     0.68779   0.44402   0.16667   0.00000  Uiso   1.00
C223   C     0.81221   0.05598   0.16667   0.00000  Uiso   1.00
C224   C     0.50000   0.20922   0.02478   0.00000  Uiso   1.00
Cu225  Cu    0.50000   0.25000   0.21355   0.00000  Uiso   1.00
Cu226  Cu    0.50000   0.25000   0.11978   0.00000  Uiso   1.00
Cu227  Cu    0.75000   0.00000   0.21355   0.00000  Uiso   1.00
Cu228  Cu    0.75000   0.00000   0.11978   0.00000  Uiso   1.00
H229   H     0.50000   0.16282   0.08646   0.00000  Uiso   1.00
H230   H     0.50000   0.16282   0.24687   0.00000  Uiso   1.00
H231   H     0.52756   0.14261   0.29454   0.00000  Uiso   1.00
H232   H     0.97244   0.14260   0.29454   0.00000  Uiso   1.00
H233   H     0.75000   0.41282   0.08646   0.00000  Uiso   1.00
H234   H     0.72244   0.39260   0.03879   0.00000  Uiso   1.00
H235   H     0.77756   0.39260   0.03879   0.00000  Uiso   1.00
H236   H     0.75000   0.08718   0.24687   0.00000  Uiso   1.00
H237   H     0.72244   0.10740   0.29454   0.00000  Uiso   1.00
H238   H     0.77756   0.10740   0.29454   0.00000  Uiso   1.00
H239   H     0.75000   0.08718   0.08646   0.00000  Uiso   1.00
H240   H     0.97244   0.14260   0.03879   0.00000  Uiso   1.00
H241   H     0.77756   0.10740   0.03879   0.00000  Uiso   1.00
H242   H     0.72244   0.10740   0.03879   0.00000  Uiso   1.00
H243   H     0.75000   0.41282   0.24687   0.00000  Uiso   1.00
H244   H     0.77756   0.39261   0.29454   0.00000  Uiso   1.00
H245   H     0.72244   0.39260   0.29454   0.00000  Uiso   1.00
H246   H     0.89156   0.21077   0.08636   0.00000  Uiso   1.00
H247   H     0.90762   0.16000   0.05484   0.00000  Uiso   1.00
H248   H     0.85399   0.17291   0.06420   0.00000  Uiso   1.00
H249   H     0.60844   0.28923   0.24697   0.00000  Uiso   1.00
H250   H     0.64601   0.32709   0.26913   0.00000  Uiso   1.00
H251   H     0.52756   0.14260   0.03879   0.00000  Uiso   1.00
H252   H     0.59238   0.34000   0.27850   0.00000  Uiso   1.00
H253   H     0.60844   0.28923   0.08636   0.00000  Uiso   1.00
H254   H     0.59238   0.34000   0.05484   0.00000  Uiso   1.00
H255   H     0.64601   0.32709   0.06420   0.00000  Uiso   1.00
H256   H     0.89156   0.21077   0.24697   0.00000  Uiso   1.00
H257   H     0.85399   0.17291   0.26913   0.00000  Uiso   1.00
H258   H     0.90762   0.16000   0.27850   0.00000  Uiso   1.00
H259   H     0.60844   0.21077   0.24697   0.00000  Uiso   1.00
H260   H     0.59238   0.16000   0.27850   0.00000  Uiso   1.00
H261   H     0.64601   0.17292   0.26913   0.00000  Uiso   1.00
H262   H     0.50000   0.33718   0.24687   0.00000  Uiso   1.00
H263   H     0.89156   0.28923   0.08636   0.00000  Uiso   1.00
H264   H     0.85399   0.32709   0.06420   0.00000  Uiso   1.00
H265   H     0.90762   0.34000   0.05483   0.00000  Uiso   1.00
H266   H     0.89156   0.28923   0.24697   0.00000  Uiso   1.00
H267   H     0.90762   0.34000   0.27850   0.00000  Uiso   1.00
H268   H     0.85399   0.32709   0.26913   0.00000  Uiso   1.00
H269   H     0.60844   0.21077   0.08636   0.00000  Uiso   1.00
H270   H     0.64601   0.17291   0.06420   0.00000  Uiso   1.00
H271   H     0.59238   0.16000   0.05483   0.00000  Uiso   1.00
H272   H     0.64156   0.46077   0.08636   0.00000  Uiso   1.00
H273   H     0.97244   0.35740   0.29454   0.00000  Uiso   1.00
H274   H     0.65762   0.41000   0.05484   0.00000  Uiso   1.00
H275   H     0.60399   0.42291   0.06420   0.00000  Uiso   1.00
H276   H     0.85844   0.03923   0.24697   0.00000  Uiso   1.00
H277   H     0.89601   0.07709   0.26913   0.00000  Uiso   1.00
H278   H     0.84238   0.09000   0.27850   0.00000  Uiso   1.00
H279   H     0.85844   0.03923   0.08636   0.00000  Uiso   1.00
H280   H     0.84238   0.09000   0.05484   0.00000  Uiso   1.00
H281   H     0.89601   0.07709   0.06420   0.00000  Uiso   1.00
H282   H     0.64156   0.46077   0.24697   0.00000  Uiso   1.00
H283   H     0.60399   0.42291   0.26913   0.00000  Uiso   1.00
H284   H     0.52756   0.35740   0.29454   0.00000  Uiso   1.00
H285   H     0.65762   0.41000   0.27850   0.00000  Uiso   1.00
H286   H     0.85844   0.46077   0.24697   0.00000  Uiso   1.00
H287   H     0.84238   0.41000   0.27850   0.00000  Uiso   1.00
H288   H     0.89601   0.42292   0.26913   0.00000  Uiso   1.00
H289   H     0.64156   0.03923   0.08636   0.00000  Uiso   1.00
H290   H     0.60399   0.07709   0.06420   0.00000  Uiso   1.00
H291   H     0.65762   0.09000   0.05483   0.00000  Uiso   1.00
H292   H     0.64156   0.03923   0.24697   0.00000  Uiso   1.00
H293   H     0.65762   0.09000   0.27850   0.00000  Uiso   1.00
H294   H     0.60399   0.07709   0.26913   0.00000  Uiso   1.00
H295   H     0.50000   0.33718   0.08646   0.00000  Uiso   1.00
H296   H     0.85844   0.46077   0.08636   0.00000  Uiso   1.00
H297   H     0.89601   0.42291   0.06420   0.00000  Uiso   1.00
H298   H     0.84238   0.41000   0.05483   0.00000  Uiso   1.00
H299   H     0.52756   0.35740   0.03879   0.00000  Uiso   1.00
H300   H     0.97244   0.35740   0.03879   0.00000  Uiso   1.00
N301   N     0.50000   0.25000   0.28402   0.00000  Uiso   1.00
N302   N     0.50000   0.25000   0.04931   0.00000  Uiso   1.00
N303   N     0.75000   0.00000   0.28402   0.00000  Uiso   1.00
N304   N     0.75000   0.00000   0.04931   0.00000  Uiso   1.00
O305   O     0.54508   0.20491   0.20625   0.00000  Uiso   1.00
O306   O     0.70491   0.04509   0.12709   0.00000  Uiso   1.00
O307   O     0.70491   0.04509   0.20625   0.00000  Uiso   1.00
O308   O     0.79508   0.45491   0.12709   0.00000  Uiso   1.00
O309   O     0.70491   0.45491   0.12709   0.00000  Uiso   1.00
O310   O     0.79508   0.04509   0.20625   0.00000  Uiso   1.00
O311   O     0.79508   0.04509   0.12709   0.00000  Uiso   1.00
O312   O     0.70491   0.45491   0.20625   0.00000  Uiso   1.00
O313   O     0.95491   0.29509   0.12709   0.00000  Uiso   1.00
O314   O     0.95491   0.29509   0.20625   0.00000  Uiso   1.00
O315   O     0.54508   0.20491   0.12709   0.00000  Uiso   1.00
O316   O     0.95491   0.20491   0.12709   0.00000  Uiso   1.00
O317   O     0.54508   0.29509   0.20625   0.00000  Uiso   1.00
O318   O     0.54508   0.29509   0.12709   0.00000  Uiso   1.00
O319   O     0.95491   0.20491   0.20625   0.00000  Uiso   1.00
O320   O     0.79508   0.45491   0.20625   0.00000  Uiso   1.00
C321   C     0.06221   0.69402   0.16667   0.00000  Uiso   1.00
C322   C    -0.00000   0.79078   0.30855   0.00000  Uiso   1.00
C323   C    -0.00000   0.79078   0.02479   0.00000  Uiso   1.00
C324   C     0.00000   0.70922   0.30855   0.00000  Uiso   1.00
C325   C     0.25000   0.95922   0.02479   0.00000  Uiso   1.00
C326   C     0.25000   0.54078   0.30855   0.00000  Uiso   1.00
C327   C     0.25000   0.54078   0.02479   0.00000  Uiso   1.00
C328   C     0.25000   0.95922   0.30855   0.00000  Uiso   1.00
C329   C     0.38536   0.64613   0.12443   0.00000  Uiso   1.00
C330   C     0.11463   0.85387   0.20890   0.00000  Uiso   1.00
C331   C     0.11463   0.85387   0.12443   0.00000  Uiso   1.00
C332   C     0.43779   0.80598   0.16667   0.00000  Uiso   1.00
C333   C     0.38536   0.64613   0.20890   0.00000  Uiso   1.00
C334   C     0.11463   0.64613   0.20890   0.00000  Uiso   1.00
C335   C     0.38536   0.85387   0.12443   0.00000  Uiso   1.00
C336   C     0.38536   0.85387   0.20890   0.00000  Uiso   1.00
C337   C     0.11463   0.64613   0.12443   0.00000  Uiso   1.00
C338   C     0.13536   0.89613   0.12443   0.00000  Uiso   1.00
C339   C     0.36463   0.60387   0.20890   0.00000  Uiso   1.00
C340   C     0.36463   0.60387   0.12443   0.00000  Uiso   1.00
C341   C     0.13536   0.89613   0.20890   0.00000  Uiso   1.00
C342   C     0.36463   0.89613   0.20890   0.00000  Uiso   1.00
C343   C     0.43779   0.69402   0.16667   0.00000  Uiso   1.00
C344   C     0.13536   0.60387   0.12443   0.00000  Uiso   1.00
C345   C     0.13536   0.60387   0.20890   0.00000  Uiso   1.00
C346   C     0.36463   0.89613   0.12443   0.00000  Uiso   1.00
C347   C     0.09928   0.83607   0.16667   0.00000  Uiso   1.00
C348   C     0.40072   0.66393   0.16667   0.00000  Uiso   1.00
C349   C     0.40072   0.83607   0.16667   0.00000  Uiso   1.00
C350   C     0.09928   0.66393   0.16667   0.00000  Uiso   1.00
C351   C     0.34928   0.58607   0.16667   0.00000  Uiso   1.00
C352   C     0.15072   0.91393   0.16667   0.00000  Uiso   1.00
C353   C     0.15072   0.58607   0.16667   0.00000  Uiso   1.00
C354   C     0.06221   0.80598   0.16667   0.00000  Uiso   1.00
C355   C     0.34928   0.91393   0.16667   0.00000  Uiso   1.00
C356   C     0.00000   0.66272   0.04893   0.00000  Uiso   1.00
C357   C    -0.00000   0.83728   0.28440   0.00000  Uiso   1.00
C358   C    -0.00000   0.83728   0.04893   0.00000  Uiso   1.00
C359   C     0.00000   0.66272   0.28440   0.00000  Uiso   1.00
C360   C     0.25000   0.91272   0.04893   0.00000  Uiso   1.00
C361   C     0.25000   0.58728   0.28440   0.00000  Uiso   1.00
C362   C     0.25000   0.58728   0.04893   0.00000  Uiso   1.00
C363   C     0.25000   0.91272   0.28440   0.00000  Uiso   1.00
C364   C     0.38530   0.67399   0.08010   0.00000  Uiso   1.00
C365   C     0.31221   0.94402   0.16667   0.00000  Uiso   1.00
C366   C     0.11470   0.82601   0.25323   0.00000  Uiso   1.00
C367   C     0.11470   0.82601   0.08010   0.00000  Uiso   1.00
C368   C     0.38530   0.67399   0.25323   0.00000  Uiso   1.00
C369   C     0.11470   0.67399   0.25323   0.00000  Uiso   1.00
C370   C     0.38529   0.82601   0.08010   0.00000  Uiso   1.00
C371   C     0.38529   0.82601   0.25323   0.00000  Uiso   1.00
C372   C     0.11470   0.67399   0.08010   0.00000  Uiso   1.00
C373   C     0.13530   0.92399   0.08010   0.00000  Uiso   1.00
C374   C     0.36470   0.57601   0.25323   0.00000  Uiso   1.00
C375   C     0.36470   0.57601   0.08010   0.00000  Uiso   1.00
C376   C     0.18778   0.55598   0.16667   0.00000  Uiso   1.00
C377   C     0.13530   0.92399   0.25323   0.00000  Uiso   1.00
C378   C     0.36470   0.92399   0.25323   0.00000  Uiso   1.00
C379   C     0.13529   0.57601   0.08010   0.00000  Uiso   1.00
C380   C     0.13529   0.57601   0.25323   0.00000  Uiso   1.00
C381   C     0.36470   0.92399   0.08010   0.00000  Uiso   1.00
C382   C     0.18779   0.94402   0.16667   0.00000  Uiso   1.00
C383   C     0.31221   0.55598   0.16667   0.00000  Uiso   1.00
C384   C     0.00000   0.70922   0.02478   0.00000  Uiso   1.00
Cu385  Cu    0.00000   0.75000   0.21355   0.00000  Uiso   1.00
Cu386  Cu    0.00000   0.75000   0.11978   0.00000  Uiso   1.00
Cu387  Cu    0.25000   0.50000   0.21355   0.00000  Uiso   1.00
Cu388  Cu    0.25000   0.50000   0.11978   0.00000  Uiso   1.00
H389   H     0.00000   0.66282   0.08646   0.00000  Uiso   1.00
H390   H     0.00000   0.66282   0.24687   0.00000  Uiso   1.00
H391   H     0.02756   0.64261   0.29454   0.00000  Uiso   1.00
H392   H     0.47244   0.64260   0.29454   0.00000  Uiso   1.00
H393   H     0.25000   0.91282   0.08646   0.00000  Uiso   1.00
H394   H     0.22244   0.89260   0.03879   0.00000  Uiso   1.00
H395   H     0.27756   0.89260   0.03879   0.00000  Uiso   1.00
H396   H     0.25000   0.58718   0.24687   0.00000  Uiso   1.00
H397   H     0.22244   0.60740   0.29454   0.00000  Uiso   1.00
H398   H     0.27756   0.60740   0.29454   0.00000  Uiso   1.00
H399   H     0.25000   0.58718   0.08646   0.00000  Uiso   1.00
H400   H     0.47244   0.64260   0.03879   0.00000  Uiso   1.00
H401   H     0.27756   0.60740   0.03879   0.00000  Uiso   1.00
H402   H     0.22244   0.60740   0.03879   0.00000  Uiso   1.00
H403   H     0.25000   0.91282   0.24687   0.00000  Uiso   1.00
H404   H     0.27756   0.89261   0.29454   0.00000  Uiso   1.00
H405   H     0.22244   0.89260   0.29454   0.00000  Uiso   1.00
H406   H     0.39156   0.71077   0.08636   0.00000  Uiso   1.00
H407   H     0.40762   0.66000   0.05484   0.00000  Uiso   1.00
H408   H     0.35399   0.67291   0.06420   0.00000  Uiso   1.00
H409   H     0.10844   0.78923   0.24697   0.00000  Uiso   1.00
H410   H     0.14601   0.82709   0.26913   0.00000  Uiso   1.00
H411   H     0.02756   0.64260   0.03879   0.00000  Uiso   1.00
H412   H     0.09238   0.84000   0.27850   0.00000  Uiso   1.00
H413   H     0.10844   0.78923   0.08636   0.00000  Uiso   1.00
H414   H     0.09238   0.84000   0.05484   0.00000  Uiso   1.00
H415   H     0.14601   0.82709   0.06420   0.00000  Uiso   1.00
H416   H     0.39156   0.71077   0.24697   0.00000  Uiso   1.00
H417   H     0.35399   0.67291   0.26913   0.00000  Uiso   1.00
H418   H     0.40762   0.66000   0.27850   0.00000  Uiso   1.00
H419   H     0.10844   0.71077   0.24697   0.00000  Uiso   1.00
H420   H     0.09238   0.66000   0.27850   0.00000  Uiso   1.00
H421   H     0.14601   0.67292   0.26913   0.00000  Uiso   1.00
H422   H    -0.00000   0.83718   0.24687   0.00000  Uiso   1.00
H423   H     0.39156   0.78923   0.08636   0.00000  Uiso   1.00
H424   H     0.35399   0.82709   0.06420   0.00000  Uiso   1.00
H425   H     0.40762   0.84000   0.05483   0.00000  Uiso   1.00
H426   H     0.39156   0.78923   0.24697   0.00000  Uiso   1.00
H427   H     0.40762   0.84000   0.27850   0.00000  Uiso   1.00
H428   H     0.35399   0.82709   0.26913   0.00000  Uiso   1.00
H429   H     0.10844   0.71077   0.08636   0.00000  Uiso   1.00
H430   H     0.14601   0.67291   0.06420   0.00000  Uiso   1.00
H431   H     0.09238   0.66000   0.05483   0.00000  Uiso   1.00
H432   H     0.14156   0.96077   0.08636   0.00000  Uiso   1.00
H433   H     0.47244   0.85740   0.29454   0.00000  Uiso   1.00
H434   H     0.15762   0.91000   0.05484   0.00000  Uiso   1.00
H435   H     0.10399   0.92291   0.06420   0.00000  Uiso   1.00
H436   H     0.35844   0.53923   0.24697   0.00000  Uiso   1.00
H437   H     0.39601   0.57709   0.26913   0.00000  Uiso   1.00
H438   H     0.34238   0.59000   0.27850   0.00000  Uiso   1.00
H439   H     0.35844   0.53923   0.08636   0.00000  Uiso   1.00
H440   H     0.34238   0.59000   0.05484   0.00000  Uiso   1.00
H441   H     0.39601   0.57709   0.06420   0.00000  Uiso   1.00
H442   H     0.14156   0.96077   0.24697   0.00000  Uiso   1.00
H443   H     0.10399   0.92291   0.26913   0.00000  Uiso   1.00
H444   H     0.02756   0.85740   0.29454   0.00000  Uiso   1.00
H445   H     0.15762   0.91000   0.27850   0.00000  Uiso   1.00
H446   H     0.35844   0.96077   0.24697   0.00000  Uiso   1.00
H447   H     0.34238   0.91000   0.27850   0.00000  Uiso   1.00
H448   H     0.39601   0.92292   0.26913   0.00000  Uiso   1.00
H449   H     0.14156   0.53923   0.08636   0.00000  Uiso   1.00
H450   H     0.10399   0.57709   0.06420   0.00000  Uiso   1.00
H451   H     0.15762   0.59000   0.05483   0.00000  Uiso   1.00
H452   H     0.14156   0.53923   0.24697   0.00000  Uiso   1.00
H453   H     0.15762   0.59000   0.27850   0.00000  Uiso   1.00
H454   H     0.10399   0.57709   0.26913   0.00000  Uiso   1.00
H455   H    -0.00000   0.83718   0.08646   0.00000  Uiso   1.00
H456   H     0.35844   0.96077   0.08636   0.00000  Uiso   1.00
H457   H     0.39601   0.92291   0.06420   0.00000  Uiso   1.00
H458   H     0.34238   0.91000   0.05483   0.00000  Uiso   1.00
H459   H     0.02756   0.85740   0.03879   0.00000  Uiso   1.00
H460   H     0.47244   0.85740   0.03879   0.00000  Uiso   1.00
N461   N     0.00000   0.75000   0.28402   0.00000  Uiso   1.00
N462   N     0.00000   0.75000   0.04931   0.00000  Uiso   1.00
N463   N     0.25000   0.50000   0.28402   0.00000  Uiso   1.00
N464   N     0.25000   0.50000   0.04931   0.00000  Uiso   1.00
O465   O     0.04508   0.70491   0.20625   0.00000  Uiso   1.00
O466   O     0.20491   0.54509   0.12709   0.00000  Uiso   1.00
O467   O     0.20491   0.54509   0.20625   0.00000  Uiso   1.00
O468   O     0.29508   0.95491   0.12709   0.00000  Uiso   1.00
O469   O     0.20491   0.95491   0.12709   0.00000  Uiso   1.00
O470   O     0.29508   0.54509   0.20625   0.00000  Uiso   1.00
O471   O     0.29508   0.54509   0.12709   0.00000  Uiso   1.00
O472   O     0.20491   0.95491   0.20625   0.00000  Uiso   1.00
O473   O     0.45491   0.79509   0.12709   0.00000  Uiso   1.00
O474   O     0.45491   0.79509   0.20625   0.00000  Uiso   1.00
O475   O     0.04508   0.70491   0.12709   0.00000  Uiso   1.00
O476   O     0.45491   0.70491   0.12709   0.00000  Uiso   1.00
O477   O     0.04508   0.79509   0.20625   0.00000  Uiso   1.00
O478   O     0.04508   0.79509   0.12709   0.00000  Uiso   1.00
O479   O     0.45491   0.70491   0.20625   0.00000  Uiso   1.00
O480   O     0.29508   0.95491   0.20625   0.00000  Uiso   1.00
C481   C     0.56221   0.69402   0.16667   0.00000  Uiso   1.00
C482   C     0.50000   0.79078   0.30855   0.00000  Uiso   1.00
C483   C     0.50000   0.79078   0.02479   0.00000  Uiso   1.00
C484   C     0.50000   0.70922   0.30855   0.00000  Uiso   1.00
C485   C     0.75000   0.95922   0.02479   0.00000  Uiso   1.00
C486   C     0.75000   0.54078   0.30855   0.00000  Uiso   1.00
C487   C     0.75000   0.54078   0.02479   0.00000  Uiso   1.00
C488   C     0.75000   0.95922   0.30855   0.00000  Uiso   1.00
C489   C     0.88536   0.64613   0.12443   0.00000  Uiso   1.00
C490   C     0.61463   0.85387   0.20890   0.00000  Uiso   1.00
C491   C     0.61463   0.85387   0.12443   0.00000  Uiso   1.00
C492   C     0.93779   0.80598   0.16667   0.00000  Uiso   1.00
C493   C     0.88536   0.64613   0.20890   0.00000  Uiso   1.00
C494   C     0.61463   0.64613   0.20890   0.00000  Uiso   1.00
C495   C     0.88536   0.85387   0.12443   0.00000  Uiso   1.00
C496   C     0.88536   0.85387   0.20890   0.00000  Uiso   1.00
C497   C     0.61463   0.64613   0.12443   0.00000  Uiso   1.00
C498   C     0.63536   0.89613   0.12443   0.00000  Uiso   1.00
C499   C     0.86463   0.60387   0.20890   0.00000  Uiso   1.00
C500   C     0.86463   0.60387   0.12443   0.00000  Uiso   1.00
C501   C     0.63536   0.89613   0.20890   0.00000  Uiso   1.00
C502   C     0.86463   0.89613   0.20890   0.00000  Uiso   1.00
C503   C     0.93779   0.69402   0.16667   0.00000  Uiso   1.00
C504   C     0.63536   0.60387   0.12443   0.00000  Uiso   1.00
C505   C     0.63536   0.60387   0.20890   0.00000  Uiso   1.00
C506   C     0.86463   0.89613   0.12443   0.00000  Uiso   1.00
C507   C     0.59928   0.83607   0.16667   0.00000  Uiso   1.00
C508   C     0.90072   0.66393   0.16667   0.00000  Uiso   1.00
C509   C     0.90072   0.83607   0.16667   0.00000  Uiso   1.00
C510   C     0.59928   0.66393   0.16667   0.00000  Uiso   1.00
C511   C     0.84928   0.58607   0.16667   0.00000  Uiso   1.00
C512   C     0.65072   0.91393   0.16667   0.00000  Uiso   1.00
C513   C     0.65072   0.58607   0.16667   0.00000  Uiso   1.00
C514   C     0.56221   0.80598   0.16667   0.00000  Uiso   1.00
C515   C     0.84928   0.91393   0.16667   0.00000  Uiso   1.00
C516   C     0.50000   0.66272   0.04893   0.00000  Uiso   1.00
C517   C     0.50000   0.83728   0.28440   0.00000  Uiso   1.00
C518   C     0.50000   0.83728   0.04893   0.00000  Uiso   1.00
C519   C     0.50000   0.66272   0.28440   0.00000  Uiso   1.00
C520   C     0.75000   0.91272   0.04893   0.00000  Uiso   1.00
C521   C     0.75000   0.58728   0.28440   0.00000  Uiso   1.00
C522   C     0.75000   0.58728   0.04893   0.00000  Uiso   1.00
C523   C     0.75000   0.91272   0.28440   0.00000  Uiso   1.00
C524   C     0.88530   0.67399   0.08010   0.00000  Uiso   1.00
C525   C     0.81221   0.94402   0.16667   0.00000  Uiso   1.00
C526   C     0.61470   0.82601   0.25323   0.00000  Uiso   1.00
C527   C     0.61470   0.82601   0.08010   0.00000  Uiso   1.00
C528   C     0.88530   0.67399   0.25323   0.00000  Uiso   1.00
C529   C     0.61470   0.67399   0.25323   0.00000  Uiso   1.00
C530   C     0.88529   0.82601   0.08010   0.00000  Uiso   1.00
C531   C     0.88529   0.82601   0.25323   0.00000  Uiso   1.00
C532   C     0.61470   0.67399   0.08010   0.00000  Uiso   1.00
C533   C     0.63530   0.92399   0.08010   0.00000  Uiso   1.00
C534   C     0.86470   0.57601   0.25323   0.00000  Uiso   1.00
C535   C     0.86470   0.57601   0.08010   0.00000  Uiso   1.00
C536   C     0.68778   0.55598   0.16667   0.00000  Uiso   1.00
C537   C     0.63530   0.92399   0.25323   0.00000  Uiso   1.00
C538   C     0.86470   0.92399   0.25323   0.00000  Uiso   1.00
C539   C     0.63529   0.57601   0.08010   0.00000  Uiso   1.00
C540   C     0.63529   0.57601   0.25323   0.00000  Uiso   1.00
C541   C     0.86470   0.92399   0.08010   0.00000  Uiso   1.00
C542   C     0.68779   0.94402   0.16667   0.00000  Uiso   1.00
C543   C     0.81221   0.55598   0.16667   0.00000  Uiso   1.00
C544   C     0.50000   0.70922   0.02478   0.00000  Uiso   1.00
Cu545  Cu    0.50000   0.75000   0.21355   0.00000  Uiso   1.00
Cu546  Cu    0.50000   0.75000   0.11978   0.00000  Uiso   1.00
Cu547  Cu    0.75000   0.50000   0.21355   0.00000  Uiso   1.00
Cu548  Cu    0.75000   0.50000   0.11978   0.00000  Uiso   1.00
H549   H     0.50000   0.66282   0.08646   0.00000  Uiso   1.00
H550   H     0.50000   0.66282   0.24687   0.00000  Uiso   1.00
H551   H     0.52756   0.64261   0.29454   0.00000  Uiso   1.00
H552   H     0.97244   0.64260   0.29454   0.00000  Uiso   1.00
H553   H     0.75000   0.91282   0.08646   0.00000  Uiso   1.00
H554   H     0.72244   0.89260   0.03879   0.00000  Uiso   1.00
H555   H     0.77756   0.89260   0.03879   0.00000  Uiso   1.00
H556   H     0.75000   0.58718   0.24687   0.00000  Uiso   1.00
H557   H     0.72244   0.60740   0.29454   0.00000  Uiso   1.00
H558   H     0.77756   0.60740   0.29454   0.00000  Uiso   1.00
H559   H     0.75000   0.58718   0.08646   0.00000  Uiso   1.00
H560   H     0.97244   0.64260   0.03879   0.00000  Uiso   1.00
H561   H     0.77756   0.60740   0.03879   0.00000  Uiso   1.00
H562   H     0.72244   0.60740   0.03879   0.00000  Uiso   1.00
H563   H     0.75000   0.91282   0.24687   0.00000  Uiso   1.00
H564   H     0.77756   0.89261   0.29454   0.00000  Uiso   1.00
H565   H     0.72244   0.89260   0.29454   0.00000  Uiso   1.00
H566   H     0.89156   0.71077   0.08636   0.00000  Uiso   1.00
H567   H     0.90762   0.66000   0.05484   0.00000  Uiso   1.00
H568   H     0.85399   0.67291   0.06420   0.00000  Uiso   1.00
H569   H     0.60844   0.78923   0.24697   0.00000  Uiso   1.00
H570   H     0.64601   0.82709   0.26913   0.00000  Uiso   1.00
H571   H     0.52756   0.64260   0.03879   0.00000  Uiso   1.00
H572   H     0.59238   0.84000   0.27850   0.00000  Uiso   1.00
H573   H     0.60844   0.78923   0.08636   0.00000  Uiso   1.00
H574   H     0.59238   0.84000   0.05484   0.00000  Uiso   1.00
H575   H     0.64601   0.82709   0.06420   0.00000  Uiso   1.00
H576   H     0.89156   0.71077   0.24697   0.00000  Uiso   1.00
H577   H     0.85399   0.67291   0.26913   0.00000  Uiso   1.00
H578   H     0.90762   0.66000   0.27850   0.00000  Uiso   1.00
H579   H     0.60844   0.71077   0.24697   0.00000  Uiso   1.00
H580   H     0.59238   0.66000   0.27850   0.00000  Uiso   1.00
H581   H     0.64601   0.67292   0.26913   0.00000  Uiso   1.00
H582   H     0.50000   0.83718   0.24687   0.00000  Uiso   1.00
H583   H     0.89156   0.78923   0.08636   0.00000  Uiso   1.00
H584   H     0.85399   0.82709   0.06420   0.00000  Uiso   1.00
H585   H     0.90762   0.84000   0.05483   0.00000  Uiso   1.00
H586   H     0.89156   0.78923   0.24697   0.00000  Uiso   1.00
H587   H     0.90762   0.84000   0.27850   0.00000  Uiso   1.00
H588   H     0.85399   0.82709   0.26913   0.00000  Uiso   1.00
H589   H     0.60844   0.71077   0.08636   0.00000  Uiso   1.00
H590   H     0.64601   0.67291   0.06420   0.00000  Uiso   1.00
H591   H     0.59238   0.66000   0.05483   0.00000  Uiso   1.00
H592   H     0.64156   0.96077   0.08636   0.00000  Uiso   1.00
H593   H     0.97244   0.85740   0.29454   0.00000  Uiso   1.00
H594   H     0.65762   0.91000   0.05484   0.00000  Uiso   1.00
H595   H     0.60399   0.92291   0.06420   0.00000  Uiso   1.00
H596   H     0.85844   0.53923   0.24697   0.00000  Uiso   1.00
H597   H     0.89601   0.57709   0.26913   0.00000  Uiso   1.00
H598   H     0.84238   0.59000   0.27850   0.00000  Uiso   1.00
H599   H     0.85844   0.53923   0.08636   0.00000  Uiso   1.00
H600   H     0.84238   0.59000   0.05484   0.00000  Uiso   1.00
H601   H     0.89601   0.57709   0.06420   0.00000  Uiso   1.00
H602   H     0.64156   0.96077   0.24697   0.00000  Uiso   1.00
H603   H     0.60399   0.92291   0.26913   0.00000  Uiso   1.00
H604   H     0.52756   0.85740   0.29454   0.00000  Uiso   1.00
H605   H     0.65762   0.91000   0.27850   0.00000  Uiso   1.00
H606   H     0.85844   0.96077   0.24697   0.00000  Uiso   1.00
H607   H     0.84238   0.91000   0.27850   0.00000  Uiso   1.00
H608   H     0.89601   0.92292   0.26913   0.00000  Uiso   1.00
H609   H     0.64156   0.53923   0.08636   0.00000  Uiso   1.00
H610   H     0.60399   0.57709   0.06420   0.00000  Uiso   1.00
H611   H     0.65762   0.59000   0.05483   0.00000  Uiso   1.00
H612   H     0.64156   0.53923   0.24697   0.00000  Uiso   1.00
H613   H     0.65762   0.59000   0.27850   0.00000  Uiso   1.00
H614   H     0.60399   0.57709   0.26913   0.00000  Uiso   1.00
H615   H     0.50000   0.83718   0.08646   0.00000  Uiso   1.00
H616   H     0.85844   0.96077   0.08636   0.00000  Uiso   1.00
H617   H     0.89601   0.92291   0.06420   0.00000  Uiso   1.00
H618   H     0.84238   0.91000   0.05483   0.00000  Uiso   1.00
H619   H     0.52756   0.85740   0.03879   0.00000  Uiso   1.00
H620   H     0.97244   0.85740   0.03879   0.00000  Uiso   1.00
N621   N     0.50000   0.75000   0.28402   0.00000  Uiso   1.00
N622   N     0.50000   0.75000   0.04931   0.00000  Uiso   1.00
N623   N     0.75000   0.50000   0.28402   0.00000  Uiso   1.00
N624   N     0.75000   0.50000   0.04931   0.00000  Uiso   1.00
O625   O     0.54508   0.70491   0.20625   0.00000  Uiso   1.00
O626   O     0.70491   0.54509   0.12709   0.00000  Uiso   1.00
O627   O     0.70491   0.54509   0.20625   0.00000  Uiso   1.00
O628   O     0.79508   0.95491   0.12709   0.00000  Uiso   1.00
O629   O     0.70491   0.95491   0.12709   0.00000  Uiso   1.00
O630   O     0.79508   0.54509   0.20625   0.00000  Uiso   1.00
O631   O     0.79508   0.54509   0.12709   0.00000  Uiso   1.00
O632   O     0.70491   0.95491   0.20625   0.00000  Uiso   1.00
O633   O     0.95491   0.79509   0.12709   0.00000  Uiso   1.00
O634   O     0.95491   0.79509   0.20625   0.00000  Uiso   1.00
O635   O     0.54508   0.70491   0.12709   0.00000  Uiso   1.00
O636   O     0.95491   0.70491   0.12709   0.00000  Uiso   1.00
O637   O     0.54508   0.79509   0.20625   0.00000  Uiso   1.00
O638   O     0.54508   0.79509   0.12709   0.00000  Uiso   1.00
O639   O     0.95491   0.70491   0.20625   0.00000  Uiso   1.00
O640   O     0.79508   0.95491   0.20625   0.00000  Uiso   1.00
C641   C     0.06221   0.19402   0.50000   0.00000  Uiso   1.00
C642   C    -0.00000   0.29078   0.64188   0.00000  Uiso   1.00
C643   C    -0.00000   0.29078   0.35812   0.00000  Uiso   1.00
C644   C     0.00000   0.20922   0.64188   0.00000  Uiso   1.00
C645   C     0.25000   0.45922   0.35812   0.00000  Uiso   1.00
C646   C     0.25000   0.04078   0.64188   0.00000  Uiso   1.00
C647   C     0.25000   0.04078   0.35812   0.00000  Uiso   1.00
C648   C     0.25000   0.45922   0.64188   0.00000  Uiso   1.00
C649   C     0.38536   0.14613   0.45777   0.00000  Uiso   1.00
C650   C     0.11463   0.35387   0.54223   0.00000  Uiso   1.00
C651   C     0.11463   0.35387   0.45777   0.00000  Uiso   1.00
C652   C     0.43779   0.30598   0.50000   0.00000  Uiso   1.00
C653   C     0.38536   0.14613   0.54223   0.00000  Uiso   1.00
C654   C     0.11463   0.14613   0.54223   0.00000  Uiso   1.00
C655   C     0.38536   0.35387   0.45777   0.00000  Uiso   1.00
C656   C     0.38536   0.35387   0.54223   0.00000  Uiso   1.00
C657   C     0.11463   0.14613   0.45777   0.00000  Uiso   1.00
C658   C     0.13536   0.39613   0.45777   0.00000  Uiso   1.00
C659   C     0.36463   0.10387   0.54223   0.00000  Uiso   1.00
C660   C     0.36463   0.10387   0.45777   0.00000  Uiso   1.00
C661   C     0.13536   0.39613   0.54223   0.00000  Uiso   1.00
C662   C     0.36463   0.39613   0.54223   0.00000  Uiso   1.00
C663   C     0.43779   0.19402   0.50000   0.00000  Uiso   1.00
C664   C     0.13536   0.10387   0.45777   0.00000  Uiso   1.00
C665   C     0.13536   0.10387   0.54223   0.00000  Uiso   1.00
C666   C     0.36463   0.39613   0.45777   0.00000  Uiso   1.00
C667   C     0.09928   0.33607   0.50000   0.00000  Uiso   1.00
C668   C     0.40072   0.16393   0.50000   0.00000  Uiso   1.00
C669   C     0.40072   0.33607   0.50000   0.00000  Uiso   1.00
C670   C     0.09928   0.16393   0.50000   0.00000  Uiso   1.00
C671   C     0.34928   0.08607   0.50000   0.00000  Uiso   1.00
C672   C     0.15072   0.41393   0.50000   0.00000  Uiso   1.00
C673   C     0.15072   0.08607   0.50000   0.00000  Uiso   1.00
C674   C     0.06221   0.30598   0.50000   0.00000  Uiso   1.00
C675   C     0.34928   0.41393   0.50000   0.00000  Uiso   1.00
C676   C     0.00000   0.16272   0.38226   0.00000  Uiso   1.00
C677   C    -0.00000   0.33728   0.61774   0.00000  Uiso   1.00
C678   C    -0.00000   0.33728   0.38226   0.00000  Uiso   1.00
C679   C     0.00000   0.16272   0.61774   0.00000  Uiso   1.00
C680   C     0.25000   0.41272   0.38226   0.00000  Uiso   1.00
C681   C     0.25000   0.08728   0.61774   0.00000  Uiso   1.00
C682   C     0.25000   0.08728   0.38226   0.00000  Uiso   1.00
C683   C     0.25000   0.41272   0.61774   0.00000  Uiso   1.00
C684   C     0.38530   0.17399   0.41344   0.00000  Uiso   1.00
C685   C     0.31221   0.44402   0.50000   0.00000  Uiso   1.00
C686   C     0.11470   0.32601   0.58656   0.00000  Uiso   1.00
C687   C     0.11470   0.32601   0.41344   0.00000  Uiso   1.00
C688   C     0.38530   0.17399   0.58656   0.00000  Uiso   1.00
C689   C     0.11470   0.17399   0.58656   0.00000  Uiso   1.00
C690   C     0.38529   0.32601   0.41344   0.00000  Uiso   1.00
C691   C     0.38529   0.32601   0.58656   0.00000  Uiso   1.00
C692   C     0.11470   0.17399   0.41344   0.00000  Uiso   1.00
C693   C     0.13530   0.42399   0.41344   0.00000  Uiso   1.00
C694   C     0.36470   0.07601   0.58656   0.00000  Uiso   1.00
C695   C     0.36470   0.07601   0.41344   0.00000  Uiso   1.00
C696   C     0.18778   0.05598   0.50000   0.00000  Uiso   1.00
C697   C     0.13530   0.42399   0.58656   0.00000  Uiso   1.00
C698   C     0.36470   0.42399   0.58656   0.00000  Uiso   1.00
C699   C     0.13529   0.07601   0.41344   0.00000  Uiso   1.00
C700   C     0.13529   0.07601   0.58656   0.00000  Uiso   1.00
C701   C     0.36470   0.42399   0.41344   0.00000  Uiso   1.00
C702   C     0.18779   0.44402   0.50000   0.00000  Uiso   1.00
C703   C     0.31221   0.05598   0.50000   0.00000  Uiso   1.00
C704   C     0.00000   0.20922   0.35812   0.00000  Uiso   1.00
Cu705  Cu    0.00000   0.25000   0.54689   0.00000  Uiso   1.00
Cu706  Cu    0.00000   0.25000   0.45311   0.00000  Uiso   1.00
Cu707  Cu    0.25000   0.00000   0.54689   0.00000  Uiso   1.00
Cu708  Cu    0.25000   0.00000   0.45311   0.00000  Uiso   1.00
H709   H     0.00000   0.16282   0.41980   0.00000  Uiso   1.00
H710   H     0.00000   0.16282   0.58020   0.00000  Uiso   1.00
H711   H     0.02756   0.14261   0.62787   0.00000  Uiso   1.00
H712   H     0.47244   0.14260   0.62788   0.00000  Uiso   1.00
H713   H     0.25000   0.41282   0.41980   0.00000  Uiso   1.00
H714   H     0.22244   0.39260   0.37213   0.00000  Uiso   1.00
H715   H     0.27756   0.39260   0.37213   0.00000  Uiso   1.00
H716   H     0.25000   0.08718   0.58020   0.00000  Uiso   1.00
H717   H     0.22244   0.10740   0.62787   0.00000  Uiso   1.00
H718   H     0.27756   0.10740   0.62787   0.00000  Uiso   1.00
H719   H     0.25000   0.08718   0.41980   0.00000  Uiso   1.00
H720   H     0.47244   0.14260   0.37213   0.00000  Uiso   1.00
H721   H     0.27756   0.10740   0.37212   0.00000  Uiso   1.00
H722   H     0.22244   0.10740   0.37213   0.00000  Uiso   1.00
H723   H     0.25000   0.41282   0.58020   0.00000  Uiso   1.00
H724   H     0.27756   0.39261   0.62787   0.00000  Uiso   1.00
H725   H     0.22244   0.39260   0.62788   0.00000  Uiso   1.00
H726   H     0.39156   0.21077   0.41970   0.00000  Uiso   1.00
H727   H     0.40762   0.16000   0.38817   0.00000  Uiso   1.00
H728   H     0.35399   0.17291   0.39754   0.00000  Uiso   1.00
H729   H     0.10844   0.28923   0.58030   0.00000  Uiso   1.00
H730   H     0.14601   0.32709   0.60246   0.00000  Uiso   1.00
H731   H     0.02756   0.14260   0.37213   0.00000  Uiso   1.00
H732   H     0.09238   0.34000   0.61183   0.00000  Uiso   1.00
H733   H     0.10844   0.28923   0.41970   0.00000  Uiso   1.00
H734   H     0.09238   0.34000   0.38817   0.00000  Uiso   1.00
H735   H     0.14601   0.32709   0.39753   0.00000  Uiso   1.00
H736   H     0.39156   0.21077   0.58030   0.00000  Uiso   1.00
H737   H     0.35399   0.17291   0.60247   0.00000  Uiso   1.00
H738   H     0.40762   0.16000   0.61183   0.00000  Uiso   1.00
H739   H     0.10844   0.21077   0.58030   0.00000  Uiso   1.00
H740   H     0.09238   0.16000   0.61183   0.00000  Uiso   1.00
H741   H     0.14601   0.17292   0.60246   0.00000  Uiso   1.00
H742   H    -0.00000   0.33718   0.58020   0.00000  Uiso   1.00
H743   H     0.39156   0.28923   0.41970   0.00000  Uiso   1.00
H744   H     0.35399   0.32709   0.39754   0.00000  Uiso   1.00
H745   H     0.40762   0.34000   0.38817   0.00000  Uiso   1.00
H746   H     0.39156   0.28923   0.58030   0.00000  Uiso   1.00
H747   H     0.40762   0.34000   0.61183   0.00000  Uiso   1.00
H748   H     0.35399   0.32709   0.60246   0.00000  Uiso   1.00
H749   H     0.10844   0.21077   0.41970   0.00000  Uiso   1.00
H750   H     0.14601   0.17291   0.39754   0.00000  Uiso   1.00
H751   H     0.09238   0.16000   0.38817   0.00000  Uiso   1.00
H752   H     0.14156   0.46077   0.41970   0.00000  Uiso   1.00
H753   H     0.47244   0.35740   0.62787   0.00000  Uiso   1.00
H754   H     0.15762   0.41000   0.38817   0.00000  Uiso   1.00
H755   H     0.10399   0.42291   0.39754   0.00000  Uiso   1.00
H756   H     0.35844   0.03923   0.58030   0.00000  Uiso   1.00
H757   H     0.39601   0.07709   0.60246   0.00000  Uiso   1.00
H758   H     0.34238   0.09000   0.61183   0.00000  Uiso   1.00
H759   H     0.35844   0.03923   0.41970   0.00000  Uiso   1.00
H760   H     0.34238   0.09000   0.38817   0.00000  Uiso   1.00
H761   H     0.39601   0.07709   0.39753   0.00000  Uiso   1.00
H762   H     0.14156   0.46077   0.58030   0.00000  Uiso   1.00
H763   H     0.10399   0.42291   0.60247   0.00000  Uiso   1.00
H764   H     0.02756   0.35740   0.62787   0.00000  Uiso   1.00
H765   H     0.15762   0.41000   0.61183   0.00000  Uiso   1.00
H766   H     0.35844   0.46077   0.58030   0.00000  Uiso   1.00
H767   H     0.34238   0.41000   0.61183   0.00000  Uiso   1.00
H768   H     0.39601   0.42292   0.60246   0.00000  Uiso   1.00
H769   H     0.14156   0.03923   0.41970   0.00000  Uiso   1.00
H770   H     0.10399   0.07709   0.39754   0.00000  Uiso   1.00
H771   H     0.15762   0.09000   0.38817   0.00000  Uiso   1.00
H772   H     0.14156   0.03923   0.58030   0.00000  Uiso   1.00
H773   H     0.15762   0.09000   0.61183   0.00000  Uiso   1.00
H774   H     0.10399   0.07709   0.60246   0.00000  Uiso   1.00
H775   H    -0.00000   0.33718   0.41980   0.00000  Uiso   1.00
H776   H     0.35844   0.46077   0.41970   0.00000  Uiso   1.00
H777   H     0.39601   0.42291   0.39754   0.00000  Uiso   1.00
H778   H     0.34238   0.41000   0.38817   0.00000  Uiso   1.00
H779   H     0.02756   0.35740   0.37212   0.00000  Uiso   1.00
H780   H     0.47244   0.35740   0.37213   0.00000  Uiso   1.00
N781   N     0.00000   0.25000   0.61736   0.00000  Uiso   1.00
N782   N     0.00000   0.25000   0.38264   0.00000  Uiso   1.00
N783   N     0.25000   0.00000   0.61736   0.00000  Uiso   1.00
N784   N     0.25000   0.00000   0.38264   0.00000  Uiso   1.00
O785   O     0.04508   0.20491   0.53958   0.00000  Uiso   1.00
O786   O     0.20491   0.04509   0.46042   0.00000  Uiso   1.00
O787   O     0.20491   0.04509   0.53958   0.00000  Uiso   1.00
O788   O     0.29508   0.45491   0.46042   0.00000  Uiso   1.00
O789   O     0.20491   0.45491   0.46042   0.00000  Uiso   1.00
O790   O     0.29508   0.04509   0.53958   0.00000  Uiso   1.00
O791   O     0.29508   0.04509   0.46042   0.00000  Uiso   1.00
O792   O     0.20491   0.45491   0.53958   0.00000  Uiso   1.00
O793   O     0.45491   0.29509   0.46042   0.00000  Uiso   1.00
O794   O     0.45491   0.29509   0.53958   0.00000  Uiso   1.00
O795   O     0.04508   0.20491   0.46042   0.00000  Uiso   1.00
O796   O     0.45491   0.20491   0.46042   0.00000  Uiso   1.00
O797   O     0.04508   0.29509   0.53958   0.00000  Uiso   1.00
O798   O     0.04508   0.29509   0.46042   0.00000  Uiso   1.00
O799   O     0.45491   0.20491   0.53958   0.00000  Uiso   1.00
O800   O     0.29508   0.45491   0.53958   0.00000  Uiso   1.00
C801   C     0.56221   0.19402   0.50000   0.00000  Uiso   1.00
C802   C     0.50000   0.29078   0.64188   0.00000  Uiso   1.00
C803   C     0.50000   0.29078   0.35812   0.00000  Uiso   1.00
C804   C     0.50000   0.20922   0.64188   0.00000  Uiso   1.00
C805   C     0.75000   0.45922   0.35812   0.00000  Uiso   1.00
C806   C     0.75000   0.04078   0.64188   0.00000  Uiso   1.00
C807   C     0.75000   0.04078   0.35812   0.00000  Uiso   1.00
C808   C     0.75000   0.45922   0.64188   0.00000  Uiso   1.00
C809   C     0.88536   0.14613   0.45777   0.00000  Uiso   1.00
C810   C     0.61463   0.35387   0.54223   0.00000  Uiso   1.00
C811   C     0.61463   0.35387   0.45777   0.00000  Uiso   1.00
C812   C     0.93779   0.30598   0.50000   0.00000  Uiso   1.00
C813   C     0.88536   0.14613   0.54223   0.00000  Uiso   1.00
C814   C     0.61463   0.14613   0.54223   0.00000  Uiso   1.00
C815   C     0.88536   0.35387   0.45777   0.00000  Uiso   1.00
C816   C     0.88536   0.35387   0.54223   0.00000  Uiso   1.00
C817   C     0.61463   0.14613   0.45777   0.00000  Uiso   1.00
C818   C     0.63536   0.39613   0.45777   0.00000  Uiso   1.00
C819   C     0.86463   0.10387   0.54223   0.00000  Uiso   1.00
C820   C     0.86463   0.10387   0.45777   0.00000  Uiso   1.00
C821   C     0.63536   0.39613   0.54223   0.00000  Uiso   1.00
C822   C     0.86463   0.39613   0.54223   0.00000  Uiso   1.00
C823   C     0.93779   0.19402   0.50000   0.00000  Uiso   1.00
C824   C     0.63536   0.10387   0.45777   0.00000  Uiso   1.00
C825   C     0.63536   0.10387   0.54223   0.00000  Uiso   1.00
C826   C     0.86463   0.39613   0.45777   0.00000  Uiso   1.00
C827   C     0.59928   0.33607   0.50000   0.00000  Uiso   1.00
C828   C     0.90072   0.16393   0.50000   0.00000  Uiso   1.00
C829   C     0.90072   0.33607   0.50000   0.00000  Uiso   1.00
C830   C     0.59928   0.16393   0.50000   0.00000  Uiso   1.00
C831   C     0.84928   0.08607   0.50000   0.00000  Uiso   1.00
C832   C     0.65072   0.41393   0.50000   0.00000  Uiso   1.00
C833   C     0.65072   0.08607   0.50000   0.00000  Uiso   1.00
C834   C     0.56221   0.30598   0.50000   0.00000  Uiso   1.00
C835   C     0.84928   0.41393   0.50000   0.00000  Uiso   1.00
C836   C     0.50000   0.16272   0.38226   0.00000  Uiso   1.00
C837   C     0.50000   0.33728   0.61774   0.00000  Uiso   1.00
C838   C     0.50000   0.33728   0.38226   0.00000  Uiso   1.00
C839   C     0.50000   0.16272   0.61774   0.00000  Uiso   1.00
C840   C     0.75000   0.41272   0.38226   0.00000  Uiso   1.00
C841   C     0.75000   0.08728   0.61774   0.00000  Uiso   1.00
C842   C     0.75000   0.08728   0.38226   0.00000  Uiso   1.00
C843   C     0.75000   0.41272   0.61774   0.00000  Uiso   1.00
C844   C     0.88530   0.17399   0.41344   0.00000  Uiso   1.00
C845   C     0.81221   0.44402   0.50000   0.00000  Uiso   1.00
C846   C     0.61470   0.32601   0.58656   0.00000  Uiso   1.00
C847   C     0.61470   0.32601   0.41344   0.00000  Uiso   1.00
C848   C     0.88530   0.17399   0.58656   0.00000  Uiso   1.00
C849   C     0.61470   0.17399   0.58656   0.00000  Uiso   1.00
C850   C     0.88529   0.32601   0.41344   0.00000  Uiso   1.00
C851   C     0.88529   0.32601   0.58656   0.00000  Uiso   1.00
C852   C     0.61470   0.17399   0.41344   0.00000  Uiso   1.00
C853   C     0.63530   0.42399   0.41344   0.00000  Uiso   1.00
C854   C     0.86470   0.07601   0.58656   0.00000  Uiso   1.00
C855   C     0.86470   0.07601   0.41344   0.00000  Uiso   1.00
C856   C     0.68778   0.05598   0.50000   0.00000  Uiso   1.00
C857   C     0.63530   0.42399   0.58656   0.00000  Uiso   1.00
C858   C     0.86470   0.42399   0.58656   0.00000  Uiso   1.00
C859   C     0.63529   0.07601   0.41344   0.00000  Uiso   1.00
C860   C     0.63529   0.07601   0.58656   0.00000  Uiso   1.00
C861   C     0.86470   0.42399   0.41344   0.00000  Uiso   1.00
C862   C     0.68779   0.44402   0.50000   0.00000  Uiso   1.00
C863   C     0.81221   0.05598   0.50000   0.00000  Uiso   1.00
C864   C     0.50000   0.20922   0.35812   0.00000  Uiso   1.00
Cu865  Cu    0.50000   0.25000   0.54689   0.00000  Uiso   1.00
Cu866  Cu    0.50000   0.25000   0.45311   0.00000  Uiso   1.00
Cu867  Cu    0.75000   0.00000   0.54689   0.00000  Uiso   1.00
Cu868  Cu    0.75000   0.00000   0.45311   0.00000  Uiso   1.00
H869   H     0.50000   0.16282   0.41980   0.00000  Uiso   1.00
H870   H     0.50000   0.16282   0.58020   0.00000  Uiso   1.00
H871   H     0.52756   0.14261   0.62787   0.00000  Uiso   1.00
H872   H     0.97244   0.14260   0.62788   0.00000  Uiso   1.00
H873   H     0.75000   0.41282   0.41980   0.00000  Uiso   1.00
H874   H     0.72244   0.39260   0.37213   0.00000  Uiso   1.00
H875   H     0.77756   0.39260   0.37213   0.00000  Uiso   1.00
H876   H     0.75000   0.08718   0.58020   0.00000  Uiso   1.00
H877   H     0.72244   0.10740   0.62787   0.00000  Uiso   1.00
H878   H     0.77756   0.10740   0.62787   0.00000  Uiso   1.00
H879   H     0.75000   0.08718   0.41980   0.00000  Uiso   1.00
H880   H     0.97244   0.14260   0.37213   0.00000  Uiso   1.00
H881   H     0.77756   0.10740   0.37212   0.00000  Uiso   1.00
H882   H     0.72244   0.10740   0.37213   0.00000  Uiso   1.00
H883   H     0.75000   0.41282   0.58020   0.00000  Uiso   1.00
H884   H     0.77756   0.39261   0.62787   0.00000  Uiso   1.00
H885   H     0.72244   0.39260   0.62788   0.00000  Uiso   1.00
H886   H     0.89156   0.21077   0.41970   0.00000  Uiso   1.00
H887   H     0.90762   0.16000   0.38817   0.00000  Uiso   1.00
H888   H     0.85399   0.17291   0.39754   0.00000  Uiso   1.00
H889   H     0.60844   0.28923   0.58030   0.00000  Uiso   1.00
H890   H     0.64601   0.32709   0.60246   0.00000  Uiso   1.00
H891   H     0.52756   0.14260   0.37213   0.00000  Uiso   1.00
H892   H     0.59238   0.34000   0.61183   0.00000  Uiso   1.00
H893   H     0.60844   0.28923   0.41970   0.00000  Uiso   1.00
H894   H     0.59238   0.34000   0.38817   0.00000  Uiso   1.00
H895   H     0.64601   0.32709   0.39753   0.00000  Uiso   1.00
H896   H     0.89156   0.21077   0.58030   0.00000  Uiso   1.00
H897   H     0.85399   0.17291   0.60247   0.00000  Uiso   1.00
H898   H     0.90762   0.16000   0.61183   0.00000  Uiso   1.00
H899   H     0.60844   0.21077   0.58030   0.00000  Uiso   1.00
H900   H     0.59238   0.16000   0.61183   0.00000  Uiso   1.00
H901   H     0.64601   0.17292   0.60246   0.00000  Uiso   1.00
H902   H     0.50000   0.33718   0.58020   0.00000  Uiso   1.00
H903   H     0.89156   0.28923   0.41970   0.00000  Uiso   1.00
H904   H     0.85399   0.32709   0.39754   0.00000  Uiso   1.00
H905   H     0.90762   0.34000   0.38817   0.00000  Uiso   1.00
H906   H     0.89156   0.28923   0.58030   0.00000  Uiso   1.00
H907   H     0.90762   0.34000   0.61183   0.00000  Uiso   1.00
H908   H     0.85399   0.32709   0.60246   0.00000  Uiso   1.00
H909   H     0.60844   0.21077   0.41970   0.00000  Uiso   1.00
H910   H     0.64601   0.17291   0.39754   0.00000  Uiso   1.00
H911   H     0.59238   0.16000   0.38817   0.00000  Uiso   1.00
H912   H     0.64156   0.46077   0.41970   0.00000  Uiso   1.00
H913   H     0.97244   0.35740   0.62787   0.00000  Uiso   1.00
H914   H     0.65762   0.41000   0.38817   0.00000  Uiso   1.00
H915   H     0.60399   0.42291   0.39754   0.00000  Uiso   1.00
H916   H     0.85844   0.03923   0.58030   0.00000  Uiso   1.00
H917   H     0.89601   0.07709   0.60246   0.00000  Uiso   1.00
H918   H     0.84238   0.09000   0.61183   0.00000  Uiso   1.00
H919   H     0.85844   0.03923   0.41970   0.00000  Uiso   1.00
H920   H     0.84238   0.09000   0.38817   0.00000  Uiso   1.00
H921   H     0.89601   0.07709   0.39753   0.00000  Uiso   1.00
H922   H     0.64156   0.46077   0.58030   0.00000  Uiso   1.00
H923   H     0.60399   0.42291   0.60247   0.00000  Uiso   1.00
H924   H     0.52756   0.35740   0.62787   0.00000  Uiso   1.00
H925   H     0.65762   0.41000   0.61183   0.00000  Uiso   1.00
H926   H     0.85844   0.46077   0.58030   0.00000  Uiso   1.00
H927   H     0.84238   0.41000   0.61183   0.00000  Uiso   1.00
H928   H     0.89601   0.42292   0.60246   0.00000  Uiso   1.00
H929   H     0.64156   0.03923   0.41970   0.00000  Uiso   1.00
H930   H     0.60399   0.07709   0.39754   0.00000  Uiso   1.00
H931   H     0.65762   0.09000   0.38817   0.00000  Uiso   1.00
H932   H     0.64156   0.03923   0.58030   0.00000  Uiso   1.00
H933   H     0.65762   0.09000   0.61183   0.00000  Uiso   1.00
H934   H     0.60399   0.07709   0.60246   0.00000  Uiso   1.00
H935   H     0.50000   0.33718   0.41980   0.00000  Uiso   1.00
H936   H     0.85844   0.46077   0.41970   0.00000  Uiso   1.00
H937   H     0.89601   0.42291   0.39754   0.00000  Uiso   1.00
H938   H     0.84238   0.41000   0.38817   0.00000  Uiso   1.00
H939   H     0.52756   0.35740   0.37212   0.00000  Uiso   1.00
H940   H     0.97244   0.35740   0.37213   0.00000  Uiso   1.00
N941   N     0.50000   0.25000   0.61736   0.00000  Uiso   1.00
N942   N     0.50000   0.25000   0.38264   0.00000  Uiso   1.00
N943   N     0.75000   0.00000   0.61736   0.00000  Uiso   1.00
N944   N     0.75000   0.00000   0.38264   0.00000  Uiso   1.00
O945   O     0.54508   0.20491   0.53958   0.00000  Uiso   1.00
O946   O     0.70491   0.04509   0.46042   0.00000  Uiso   1.00
O947   O     0.70491   0.04509   0.53958   0.00000  Uiso   1.00
O948   O     0.79508   0.45491   0.46042   0.00000  Uiso   1.00
O949   O     0.70491   0.45491   0.46042   0.00000  Uiso   1.00
O950   O     0.79508   0.04509   0.53958   0.00000  Uiso   1.00
O951   O     0.79508   0.04509   0.46042   0.00000  Uiso   1.00
O952   O     0.70491   0.45491   0.53958   0.00000  Uiso   1.00
O953   O     0.95491   0.29509   0.46042   0.00000  Uiso   1.00
O954   O     0.95491   0.29509   0.53958   0.00000  Uiso   1.00
O955   O     0.54508   0.20491   0.46042   0.00000  Uiso   1.00
O956   O     0.95491   0.20491   0.46042   0.00000  Uiso   1.00
O957   O     0.54508   0.29509   0.53958   0.00000  Uiso   1.00
O958   O     0.54508   0.29509   0.46042   0.00000  Uiso   1.00
O959   O     0.95491   0.20491   0.53958   0.00000  Uiso   1.00
O960   O     0.79508   0.45491   0.53958   0.00000  Uiso   1.00
C961   C     0.06221   0.69402   0.50000   0.00000  Uiso   1.00
C962   C    -0.00000   0.79078   0.64188   0.00000  Uiso   1.00
C963   C    -0.00000   0.79078   0.35812   0.00000  Uiso   1.00
C964   C     0.00000   0.70922   0.64188   0.00000  Uiso   1.00
C965   C     0.25000   0.95922   0.35812   0.00000  Uiso   1.00
C966   C     0.25000   0.54078   0.64188   0.00000  Uiso   1.00
C967   C     0.25000   0.54078   0.35812   0.00000  Uiso   1.00
C968   C     0.25000   0.95922   0.64188   0.00000  Uiso   1.00
C969   C     0.38536   0.64613   0.45777   0.00000  Uiso   1.00
C970   C     0.11463   0.85387   0.54223   0.00000  Uiso   1.00
C971   C     0.11463   0.85387   0.45777   0.00000  Uiso   1.00
C972   C     0.43779   0.80598   0.50000   0.00000  Uiso   1.00
C973   C     0.38536   0.64613   0.54223   0.00000  Uiso   1.00
C974   C     0.11463   0.64613   0.54223   0.00000  Uiso   1.00
C975   C     0.38536   0.85387   0.45777   0.00000  Uiso   1.00
C976   C     0.38536   0.85387   0.54223   0.00000  Uiso   1.00
C977   C     0.11463   0.64613   0.45777   0.00000  Uiso   1.00
C978   C     0.13536   0.89613   0.45777   0.00000  Uiso   1.00
C979   C     0.36463   0.60387   0.54223   0.00000  Uiso   1.00
C980   C     0.36463   0.60387   0.45777   0.00000  Uiso   1.00
C981   C     0.13536   0.89613   0.54223   0.00000  Uiso   1.00
C982   C     0.36463   0.89613   0.54223   0.00000  Uiso   1.00
C983   C     0.43779   0.69402   0.50000   0.00000  Uiso   1.00
C984   C     0.13536   0.60387   0.45777   0.00000  Uiso   1.00
C985   C     0.13536   0.60387   0.54223   0.00000  Uiso   1.00
C986   C     0.36463   0.89613   0.45777   0.00000  Uiso   1.00
C987   C     0.09928   0.83607   0.50000   0.00000  Uiso   1.00
C988   C     0.40072   0.66393   0.50000   0.00000  Uiso   1.00
C989   C     0.40072   0.83607   0.50000   0.00000  Uiso   1.00
C990   C     0.09928   0.66393   0.50000   0.00000  Uiso   1.00
C991   C     0.34928   0.58607   0.50000   0.00000  Uiso   1.00
C992   C     0.15072   0.91393   0.50000   0.00000  Uiso   1.00
C993   C     0.15072   0.58607   0.50000   0.00000  Uiso   1.00
C994   C     0.06221   0.80598   0.50000   0.00000  Uiso   1.00
C995   C     0.34928   0.91393   0.50000   0.00000  Uiso   1.00
C996   C     0.00000   0.66272   0.38226   0.00000  Uiso   1.00
C997   C    -0.00000   0.83728   0.61774   0.00000  Uiso   1.00
C998   C    -0.00000   0.83728   0.38226   0.00000  Uiso   1.00
C999   C     0.00000   0.66272   0.61774   0.00000  Uiso   1.00
C1000  C     0.25000   0.91272   0.38226   0.00000  Uiso   1.00
C1001  C     0.25000   0.58728   0.61774   0.00000  Uiso   1.00
C1002  C     0.25000   0.58728   0.38226   0.00000  Uiso   1.00
C1003  C     0.25000   0.91272   0.61774   0.00000  Uiso   1.00
C1004  C     0.38530   0.67399   0.41344   0.00000  Uiso   1.00
C1005  C     0.31221   0.94402   0.50000   0.00000  Uiso   1.00
C1006  C     0.11470   0.82601   0.58656   0.00000  Uiso   1.00
C1007  C     0.11470   0.82601   0.41344   0.00000  Uiso   1.00
C1008  C     0.38530   0.67399   0.58656   0.00000  Uiso   1.00
C1009  C     0.11470   0.67399   0.58656   0.00000  Uiso   1.00
C1010  C     0.38529   0.82601   0.41344   0.00000  Uiso   1.00
C1011  C     0.38529   0.82601   0.58656   0.00000  Uiso   1.00
C1012  C     0.11470   0.67399   0.41344   0.00000  Uiso   1.00
C1013  C     0.13530   0.92399   0.41344   0.00000  Uiso   1.00
C1014  C     0.36470   0.57601   0.58656   0.00000  Uiso   1.00
C1015  C     0.36470   0.57601   0.41344   0.00000  Uiso   1.00
C1016  C     0.18778   0.55598   0.50000   0.00000  Uiso   1.00
C1017  C     0.13530   0.92399   0.58656   0.00000  Uiso   1.00
C1018  C     0.36470   0.92399   0.58656   0.00000  Uiso   1.00
C1019  C     0.13529   0.57601   0.41344   0.00000  Uiso   1.00
C1020  C     0.13529   0.57601   0.58656   0.00000  Uiso   1.00
C1021  C     0.36470   0.92399   0.41344   0.00000  Uiso   1.00
C1022  C     0.18779   0.94402   0.50000   0.00000  Uiso   1.00
C1023  C     0.31221   0.55598   0.50000   0.00000  Uiso   1.00
C1024  C     0.00000   0.70922   0.35812   0.00000  Uiso   1.00
Cu1025 Cu    0.00000   0.75000   0.54689   0.00000  Uiso   1.00
Cu1026 Cu    0.00000   0.75000   0.45311   0.00000  Uiso   1.00
Cu1027 Cu    0.25000   0.50000   0.54689   0.00000  Uiso   1.00
Cu1028 Cu    0.25000   0.50000   0.45311   0.00000  Uiso   1.00
H1029  H     0.00000   0.66282   0.41980   0.00000  Uiso   1.00
H1030  H     0.00000   0.66282   0.58020   0.00000  Uiso   1.00
H1031  H     0.02756   0.64261   0.62787   0.00000  Uiso   1.00
H1032  H     0.47244   0.64260   0.62788   0.00000  Uiso   1.00
H1033  H     0.25000   0.91282   0.41980   0.00000  Uiso   1.00
H1034  H     0.22244   0.89260   0.37213   0.00000  Uiso   1.00
H1035  H     0.27756   0.89260   0.37213   0.00000  Uiso   1.00
H1036  H     0.25000   0.58718   0.58020   0.00000  Uiso   1.00
H1037  H     0.22244   0.60740   0.62787   0.00000  Uiso   1.00
H1038  H     0.27756   0.60740   0.62787   0.00000  Uiso   1.00
H1039  H     0.25000   0.58718   0.41980   0.00000  Uiso   1.00
H1040  H     0.47244   0.64260   0.37213   0.00000  Uiso   1.00
H1041  H     0.27756   0.60740   0.37212   0.00000  Uiso   1.00
H1042  H     0.22244   0.60740   0.37213   0.00000  Uiso   1.00
H1043  H     0.25000   0.91282   0.58020   0.00000  Uiso   1.00
H1044  H     0.27756   0.89261   0.62787   0.00000  Uiso   1.00
H1045  H     0.22244   0.89260   0.62788   0.00000  Uiso   1.00
H1046  H     0.39156   0.71077   0.41970   0.00000  Uiso   1.00
H1047  H     0.40762   0.66000   0.38817   0.00000  Uiso   1.00
H1048  H     0.35399   0.67291   0.39754   0.00000  Uiso   1.00
H1049  H     0.10844   0.78923   0.58030   0.00000  Uiso   1.00
H1050  H     0.14601   0.82709   0.60246   0.00000  Uiso   1.00
H1051  H     0.02756   0.64260   0.37213   0.00000  Uiso   1.00
H1052  H     0.09238   0.84000   0.61183   0.00000  Uiso   1.00
H1053  H     0.10844   0.78923   0.41970   0.00000  Uiso   1.00
H1054  H     0.09238   0.84000   0.38817   0.00000  Uiso   1.00
H1055  H     0.14601   0.82709   0.39753   0.00000  Uiso   1.00
H1056  H     0.39156   0.71077   0.58030   0.00000  Uiso   1.00
H1057  H     0.35399   0.67291   0.60247   0.00000  Uiso   1.00
H1058  H     0.40762   0.66000   0.61183   0.00000  Uiso   1.00
H1059  H     0.10844   0.71077   0.58030   0.00000  Uiso   1.00
H1060  H     0.09238   0.66000   0.61183   0.00000  Uiso   1.00
H1061  H     0.14601   0.67292   0.60246   0.00000  Uiso   1.00
H1062  H    -0.00000   0.83718   0.58020   0.00000  Uiso   1.00
H1063  H     0.39156   0.78923   0.41970   0.00000  Uiso   1.00
H1064  H     0.35399   0.82709   0.39754   0.00000  Uiso   1.00
H1065  H     0.40762   0.84000   0.38817   0.00000  Uiso   1.00
H1066  H     0.39156   0.78923   0.58030   0.00000  Uiso   1.00
H1067  H     0.40762   0.84000   0.61183   0.00000  Uiso   1.00
H1068  H     0.35399   0.82709   0.60246   0.00000  Uiso   1.00
H1069  H     0.10844   0.71077   0.41970   0.00000  Uiso   1.00
H1070  H     0.14601   0.67291   0.39754   0.00000  Uiso   1.00
H1071  H     0.09238   0.66000   0.38817   0.00000  Uiso   1.00
H1072  H     0.14156   0.96077   0.41970   0.00000  Uiso   1.00
H1073  H     0.47244   0.85740   0.62787   0.00000  Uiso   1.00
H1074  H     0.15762   0.91000   0.38817   0.00000  Uiso   1.00
H1075  H     0.10399   0.92291   0.39754   0.00000  Uiso   1.00
H1076  H     0.35844   0.53923   0.58030   0.00000  Uiso   1.00
H1077  H     0.39601   0.57709   0.60246   0.00000  Uiso   1.00
H1078  H     0.34238   0.59000   0.61183   0.00000  Uiso   1.00
H1079  H     0.35844   0.53923   0.41970   0.00000  Uiso   1.00
H1080  H     0.34238   0.59000   0.38817   0.00000  Uiso   1.00
H1081  H     0.39601   0.57709   0.39753   0.00000  Uiso   1.00
H1082  H     0.14156   0.96077   0.58030   0.00000  Uiso   1.00
H1083  H     0.10399   0.92291   0.60247   0.00000  Uiso   1.00
H1084  H     0.02756   0.85740   0.62787   0.00000  Uiso   1.00
H1085  H     0.15762   0.91000   0.61183   0.00000  Uiso   1.00
H1086  H     0.35844   0.96077   0.58030   0.00000  Uiso   1.00
H1087  H     0.34238   0.91000   0.61183   0.00000  Uiso   1.00
H1088  H     0.39601   0.92292   0.60246   0.00000  Uiso   1.00
H1089  H     0.14156   0.53923   0.41970   0.00000  Uiso   1.00
H1090  H     0.10399   0.57709   0.39754   0.00000  Uiso   1.00
H1091  H     0.15762   0.59000   0.38817   0.00000  Uiso   1.00
H1092  H     0.14156   0.53923   0.58030   0.00000  Uiso   1.00
H1093  H     0.15762   0.59000   0.61183   0.00000  Uiso   1.00
H1094  H     0.10399   0.57709   0.60246   0.00000  Uiso   1.00
H1095  H    -0.00000   0.83718   0.41980   0.00000  Uiso   1.00
H1096  H     0.35844   0.96077   0.41970   0.00000  Uiso   1.00
H1097  H     0.39601   0.92291   0.39754   0.00000  Uiso   1.00
H1098  H     0.34238   0.91000   0.38817   0.00000  Uiso   1.00
H1099  H     0.02756   0.85740   0.37212   0.00000  Uiso   1.00
H1100  H     0.47244   0.85740   0.37213   0.00000  Uiso   1.00
N1101  N     0.00000   0.75000   0.61736   0.00000  Uiso   1.00
N1102  N     0.00000   0.75000   0.38264   0.00000  Uiso   1.00
N1103  N     0.25000   0.50000   0.61736   0.00000  Uiso   1.00
N1104  N     0.25000   0.50000   0.38264   0.00000  Uiso   1.00
O1105  O     0.04508   0.70491   0.53958   0.00000  Uiso   1.00
O1106  O     0.20491   0.54509   0.46042   0.00000  Uiso   1.00
O1107  O     0.20491   0.54509   0.53958   0.00000  Uiso   1.00
O1108  O     0.29508   0.95491   0.46042   0.00000  Uiso   1.00
O1109  O     0.20491   0.95491   0.46042   0.00000  Uiso   1.00
O1110  O     0.29508   0.54509   0.53958   0.00000  Uiso   1.00
O1111  O     0.29508   0.54509   0.46042   0.00000  Uiso   1.00
O1112  O     0.20491   0.95491   0.53958   0.00000  Uiso   1.00
O1113  O     0.45491   0.79509   0.46042   0.00000  Uiso   1.00
O1114  O     0.45491   0.79509   0.53958   0.00000  Uiso   1.00
O1115  O     0.04508   0.70491   0.46042   0.00000  Uiso   1.00
O1116  O     0.45491   0.70491   0.46042   0.00000  Uiso   1.00
O1117  O     0.04508   0.79509   0.53958   0.00000  Uiso   1.00
O1118  O     0.04508   0.79509   0.46042   0.00000  Uiso   1.00
O1119  O     0.45491   0.70491   0.53958   0.00000  Uiso   1.00
O1120  O     0.29508   0.95491   0.53958   0.00000  Uiso   1.00
C1121  C     0.56221   0.69402   0.50000   0.00000  Uiso   1.00
C1122  C     0.50000   0.79078   0.64188   0.00000  Uiso   1.00
C1123  C     0.50000   0.79078   0.35812   0.00000  Uiso   1.00
C1124  C     0.50000   0.70922   0.64188   0.00000  Uiso   1.00
C1125  C     0.75000   0.95922   0.35812   0.00000  Uiso   1.00
C1126  C     0.75000   0.54078   0.64188   0.00000  Uiso   1.00
C1127  C     0.75000   0.54078   0.35812   0.00000  Uiso   1.00
C1128  C     0.75000   0.95922   0.64188   0.00000  Uiso   1.00
C1129  C     0.88536   0.64613   0.45777   0.00000  Uiso   1.00
C1130  C     0.61463   0.85387   0.54223   0.00000  Uiso   1.00
C1131  C     0.61463   0.85387   0.45777   0.00000  Uiso   1.00
C1132  C     0.93779   0.80598   0.50000   0.00000  Uiso   1.00
C1133  C     0.88536   0.64613   0.54223   0.00000  Uiso   1.00
C1134  C     0.61463   0.64613   0.54223   0.00000  Uiso   1.00
C1135  C     0.88536   0.85387   0.45777   0.00000  Uiso   1.00
C1136  C     0.88536   0.85387   0.54223   0.00000  Uiso   1.00
C1137  C     0.61463   0.64613   0.45777   0.00000  Uiso   1.00
C1138  C     0.63536   0.89613   0.45777   0.00000  Uiso   1.00
C1139  C     0.86463   0.60387   0.54223   0.00000  Uiso   1.00
C1140  C     0.86463   0.60387   0.45777   0.00000  Uiso   1.00
C1141  C     0.63536   0.89613   0.54223   0.00000  Uiso   1.00
C1142  C     0.86463   0.89613   0.54223   0.00000  Uiso   1.00
C1143  C     0.93779   0.69402   0.50000   0.00000  Uiso   1.00
C1144  C     0.63536   0.60387   0.45777   0.00000  Uiso   1.00
C1145  C     0.63536   0.60387   0.54223   0.00000  Uiso   1.00
C1146  C     0.86463   0.89613   0.45777   0.00000  Uiso   1.00
C1147  C     0.59928   0.83607   0.50000   0.00000  Uiso   1.00
C1148  C     0.90072   0.66393   0.50000   0.00000  Uiso   1.00
C1149  C     0.90072   0.83607   0.50000   0.00000  Uiso   1.00
C1150  C     0.59928   0.66393   0.50000   0.00000  Uiso   1.00
C1151  C     0.84928   0.58607   0.50000   0.00000  Uiso   1.00
C1152  C     0.65072   0.91393   0.50000   0.00000  Uiso   1.00
C1153  C     0.65072   0.58607   0.50000   0.00000  Uiso   1.00
C1154  C     0.56221   0.80598   0.50000   0.00000  Uiso   1.00
C1155  C     0.84928   0.91393   0.50000   0.00000  Uiso   1.00
C1156  C     0.50000   0.66272   0.38226   0.00000  Uiso   1.00
C1157  C     0.50000   0.83728   0.61774   0.00000  Uiso   1.00
C1158  C     0.50000   0.83728   0.38226   0.00000  Uiso   1.00
C1159  C     0.50000   0.66272   0.61774   0.00000  Uiso   1.00
C1160  C     0.75000   0.91272   0.38226   0.00000  Uiso   1.00
C1161  C     0.75000   0.58728   0.61774   0.00000  Uiso   1.00
C1162  C     0.75000   0.58728   0.38226   0.00000  Uiso   1.00
C1163  C     0.75000   0.91272   0.61774   0.00000  Uiso   1.00
C1164  C     0.88530   0.67399   0.41344   0.00000  Uiso   1.00
C1165  C     0.81221   0.94402   0.50000   0.00000  Uiso   1.00
C1166  C     0.61470   0.82601   0.58656   0.00000  Uiso   1.00
C1167  C     0.61470   0.82601   0.41344   0.00000  Uiso   1.00
C1168  C     0.88530   0.67399   0.58656   0.00000  Uiso   1.00
C1169  C     0.61470   0.67399   0.58656   0.00000  Uiso   1.00
C1170  C     0.88529   0.82601   0.41344   0.00000  Uiso   1.00
C1171  C     0.88529   0.82601   0.58656   0.00000  Uiso   1.00
C1172  C     0.61470   0.67399   0.41344   0.00000  Uiso   1.00
C1173  C     0.63530   0.92399   0.41344   0.00000  Uiso   1.00
C1174  C     0.86470   0.57601   0.58656   0.00000  Uiso   1.00
C1175  C     0.86470   0.57601   0.41344   0.00000  Uiso   1.00
C1176  C     0.68778   0.55598   0.50000   0.00000  Uiso   1.00
C1177  C     0.63530   0.92399   0.58656   0.00000  Uiso   1.00
C1178  C     0.86470   0.92399   0.58656   0.00000  Uiso   1.00
C1179  C     0.63529   0.57601   0.41344   0.00000  Uiso   1.00
C1180  C     0.63529   0.57601   0.58656   0.00000  Uiso   1.00
C1181  C     0.86470   0.92399   0.41344   0.00000  Uiso   1.00
C1182  C     0.68779   0.94402   0.50000   0.00000  Uiso   1.00
C1183  C     0.81221   0.55598   0.50000   0.00000  Uiso   1.00
C1184  C     0.50000   0.70922   0.35812   0.00000  Uiso   1.00
Cu1185 Cu    0.50000   0.75000   0.54689   0.00000  Uiso   1.00
Cu1186 Cu    0.50000   0.75000   0.45311   0.00000  Uiso   1.00
Cu1187 Cu    0.75000   0.50000   0.54689   0.00000  Uiso   1.00
Cu1188 Cu    0.75000   0.50000   0.45311   0.00000  Uiso   1.00
H1189  H     0.50000   0.66282   0.41980   0.00000  Uiso   1.00
H1190  H     0.50000   0.66282   0.58020   0.00000  Uiso   1.00
H1191  H     0.52756   0.64261   0.62787   0.00000  Uiso   1.00
H1192  H     0.97244   0.64260   0.62788   0.00000  Uiso   1.00
H1193  H     0.75000   0.91282   0.41980   0.00000  Uiso   1.00
H1194  H     0.72244   0.89260   0.37213   0.00000  Uiso   1.00
H1195  H     0.77756   0.89260   0.37213   0.00000  Uiso   1.00
H1196  H     0.75000   0.58718   0.58020   0.00000  Uiso   1.00
H1197  H     0.72244   0.60740   0.62787   0.00000  Uiso   1.00
H1198  H     0.77756   0.60740   0.62787   0.00000  Uiso   1.00
H1199  H     0.75000   0.58718   0.41980   0.00000  Uiso   1.00
H1200  H     0.97244   0.64260   0.37213   0.00000  Uiso   1.00
H1201  H     0.77756   0.60740   0.37212   0.00000  Uiso   1.00
H1202  H     0.72244   0.60740   0.37213   0.00000  Uiso   1.00
H1203  H     0.75000   0.91282   0.58020   0.00000  Uiso   1.00
H1204  H     0.77756   0.89261   0.62787   0.00000  Uiso   1.00
H1205  H     0.72244   0.89260   0.62788   0.00000  Uiso   1.00
H1206  H     0.89156   0.71077   0.41970   0.00000  Uiso   1.00
H1207  H     0.90762   0.66000   0.38817   0.00000  Uiso   1.00
H1208  H     0.85399   0.67291   0.39754   0.00000  Uiso   1.00
H1209  H     0.60844   0.78923   0.58030   0.00000  Uiso   1.00
H1210  H     0.64601   0.82709   0.60246   0.00000  Uiso   1.00
H1211  H     0.52756   0.64260   0.37213   0.00000  Uiso   1.00
H1212  H     0.59238   0.84000   0.61183   0.00000  Uiso   1.00
H1213  H     0.60844   0.78923   0.41970   0.00000  Uiso   1.00
H1214  H     0.59238   0.84000   0.38817   0.00000  Uiso   1.00
H1215  H     0.64601   0.82709   0.39753   0.00000  Uiso   1.00
H1216  H     0.89156   0.71077   0.58030   0.00000  Uiso   1.00
H1217  H     0.85399   0.67291   0.60247   0.00000  Uiso   1.00
H1218  H     0.90762   0.66000   0.61183   0.00000  Uiso   1.00
H1219  H     0.60844   0.71077   0.58030   0.00000  Uiso   1.00
H1220  H     0.59238   0.66000   0.61183   0.00000  Uiso   1.00
H1221  H     0.64601   0.67292   0.60246   0.00000  Uiso   1.00
H1222  H     0.50000   0.83718   0.58020   0.00000  Uiso   1.00
H1223  H     0.89156   0.78923   0.41970   0.00000  Uiso   1.00
H1224  H     0.85399   0.82709   0.39754   0.00000  Uiso   1.00
H1225  H     0.90762   0.84000   0.38817   0.00000  Uiso   1.00
H1226  H     0.89156   0.78923   0.58030   0.00000  Uiso   1.00
H1227  H     0.90762   0.84000   0.61183   0.00000  Uiso   1.00
H1228  H     0.85399   0.82709   0.60246   0.00000  Uiso   1.00
H1229  H     0.60844   0.71077   0.41970   0.00000  Uiso   1.00
H1230  H     0.64601   0.67291   0.39754   0.00000  Uiso   1.00
H1231  H     0.59238   0.66000   0.38817   0.00000  Uiso   1.00
H1232  H     0.64156   0.96077   0.41970   0.00000  Uiso   1.00
H1233  H     0.97244   0.85740   0.62787   0.00000  Uiso   1.00
H1234  H     0.65762   0.91000   0.38817   0.00000  Uiso   1.00
H1235  H     0.60399   0.92291   0.39754   0.00000  Uiso   1.00
H1236  H     0.85844   0.53923   0.58030   0.00000  Uiso   1.00
H1237  H     0.89601   0.57709   0.60246   0.00000  Uiso   1.00
H1238  H     0.84238   0.59000   0.61183   0.00000  Uiso   1.00
H1239  H     0.85844   0.53923   0.41970   0.00000  Uiso   1.00
H1240  H     0.84238   0.59000   0.38817   0.00000  Uiso   1.00
H1241  H     0.89601   0.57709   0.39753   0.00000  Uiso   1.00
H1242  H     0.64156   0.96077   0.58030   0.00000  Uiso   1.00
H1243  H     0.60399   0.92291   0.60247   0.00000  Uiso   1.00
H1244  H     0.52756   0.85740   0.62787   0.00000  Uiso   1.00
H1245  H     0.65762   0.91000   0.61183   0.00000  Uiso   1.00
H1246  H     0.85844   0.96077   0.58030   0.00000  Uiso   1.00
H1247  H     0.84238   0.91000   0.61183   0.00000  Uiso   1.00
H1248  H     0.89601   0.92292   0.60246   0.00000  Uiso   1.00
H1249  H     0.64156   0.53923   0.41970   0.00000  Uiso   1.00
H1250  H     0.60399   0.57709   0.39754   0.00000  Uiso   1.00
H1251  H     0.65762   0.59000   0.38817   0.00000  Uiso   1.00
H1252  H     0.64156   0.53923   0.58030   0.00000  Uiso   1.00
H1253  H     0.65762   0.59000   0.61183   0.00000  Uiso   1.00
H1254  H     0.60399   0.57709   0.60246   0.00000  Uiso   1.00
H1255  H     0.50000   0.83718   0.41980   0.00000  Uiso   1.00
H1256  H     0.85844   0.96077   0.41970   0.00000  Uiso   1.00
H1257  H     0.89601   0.92291   0.39754   0.00000  Uiso   1.00
H1258  H     0.84238   0.91000   0.38817   0.00000  Uiso   1.00
H1259  H     0.52756   0.85740   0.37212   0.00000  Uiso   1.00
H1260  H     0.97244   0.85740   0.37213   0.00000  Uiso   1.00
N1261  N     0.50000   0.75000   0.61736   0.00000  Uiso   1.00
N1262  N     0.50000   0.75000   0.38264   0.00000  Uiso   1.00
N1263  N     0.75000   0.50000   0.61736   0.00000  Uiso   1.00
N1264  N     0.75000   0.50000   0.38264   0.00000  Uiso   1.00
O1265  O     0.54508   0.70491   0.53958   0.00000  Uiso   1.00
O1266  O     0.70491   0.54509   0.46042   0.00000  Uiso   1.00
O1267  O     0.70491   0.54509   0.53958   0.00000  Uiso   1.00
O1268  O     0.79508   0.95491   0.46042   0.00000  Uiso   1.00
O1269  O     0.70491   0.95491   0.46042   0.00000  Uiso   1.00
O1270  O     0.79508   0.54509   0.53958   0.00000  Uiso   1.00
O1271  O     0.79508   0.54509   0.46042   0.00000  Uiso   1.00
O1272  O     0.70491   0.95491   0.53958   0.00000  Uiso   1.00
O1273  O     0.95491   0.79509   0.46042   0.00000  Uiso   1.00
O1274  O     0.95491   0.79509   0.53958   0.00000  Uiso   1.00
O1275  O     0.54508   0.70491   0.46042   0.00000  Uiso   1.00
O1276  O     0.95491   0.70491   0.46042   0.00000  Uiso   1.00
O1277  O     0.54508   0.79509   0.53958   0.00000  Uiso   1.00
O1278  O     0.54508   0.79509   0.46042   0.00000  Uiso   1.00
O1279  O     0.95491   0.70491   0.53958   0.00000  Uiso   1.00
O1280  O     0.79508   0.95491   0.53958   0.00000  Uiso   1.00
C1281  C     0.06221   0.19402   0.83333   0.00000  Uiso   1.00
C1282  C    -0.00000   0.29078   0.97522   0.00000  Uiso   1.00
C1283  C    -0.00000   0.29078   0.69145   0.00000  Uiso   1.00
C1284  C     0.00000   0.20922   0.97522   0.00000  Uiso   1.00
C1285  C     0.25000   0.45922   0.69145   0.00000  Uiso   1.00
C1286  C     0.25000   0.04078   0.97522   0.00000  Uiso   1.00
C1287  C     0.25000   0.04078   0.69145   0.00000  Uiso   1.00
C1288  C     0.25000   0.45922   0.97522   0.00000  Uiso   1.00
C1289  C     0.38536   0.14613   0.79110   0.00000  Uiso   1.00
C1290  C     0.11463   0.35387   0.87557   0.00000  Uiso   1.00
C1291  C     0.11463   0.35387   0.79110   0.00000  Uiso   1.00
C1292  C     0.43779   0.30598   0.83333   0.00000  Uiso   1.00
C1293  C     0.38536   0.14613   0.87557   0.00000  Uiso   1.00
C1294  C     0.11463   0.14613   0.87557   0.00000  Uiso   1.00
C1295  C     0.38536   0.35387   0.79110   0.00000  Uiso   1.00
C1296  C     0.38536   0.35387   0.87557   0.00000  Uiso   1.00
C1297  C     0.11463   0.14613   0.79110   0.00000  Uiso   1.00
C1298  C     0.13536   0.39613   0.79110   0.00000  Uiso   1.00
C1299  C     0.36463   0.10387   0.87557   0.00000  Uiso   1.00
C1300  C     0.36463   0.10387   0.79110   0.00000  Uiso   1.00
C1301  C     0.13536   0.39613   0.87557   0.00000  Uiso   1.00
C1302  C     0.36463   0.39613   0.87557   0.00000  Uiso   1.00
C1303  C     0.43779   0.19402   0.83333   0.00000  Uiso   1.00
C1304  C     0.13536   0.10387   0.79110   0.00000  Uiso   1.00
C1305  C     0.13536   0.10387   0.87557   0.00000  Uiso   1.00
C1306  C     0.36463   0.39613   0.79110   0.00000  Uiso   1.00
C1307  C     0.09928   0.33607   0.83333   0.00000  Uiso   1.00
C1308  C     0.40072   0.16393   0.83333   0.00000  Uiso   1.00
C1309  C     0.40072   0.33607   0.83333   0.00000  Uiso   1.00
C1310  C     0.09928   0.16393   0.83333   0.00000  Uiso   1.00
C1311  C     0.34928   0.08607   0.83333   0.00000  Uiso   1.00
C1312  C     0.15072   0.41393   0.83333   0.00000  Uiso   1.00
C1313  C     0.15072   0.08607   0.83333   0.00000  Uiso   1.00
C1314  C     0.06221   0.30598   0.83333   0.00000  Uiso   1.00
C1315  C     0.34928   0.41393   0.83333   0.00000  Uiso   1.00
C1316  C     0.00000   0.16272   0.71560   0.00000  Uiso   1.00
C1317  C    -0.00000   0.33728   0.95107   0.00000  Uiso   1.00
C1318  C    -0.00000   0.33728   0.71560   0.00000  Uiso   1.00
C1319  C     0.00000   0.16272   0.95107   0.00000  Uiso   1.00
C1320  C     0.25000   0.41272   0.71560   0.00000  Uiso   1.00
C1321  C     0.25000   0.08728   0.95107   0.00000  Uiso   1.00
C1322  C     0.25000   0.08728   0.71560   0.00000  Uiso   1.00
C1323  C     0.25000   0.41272   0.95107   0.00000  Uiso   1.00
C1324  C     0.38530   0.17399   0.74677   0.00000  Uiso   1.00
C1325  C     0.31221   0.44402   0.83333   0.00000  Uiso   1.00
C1326  C     0.11470   0.32601   0.91990   0.00000  Uiso   1.00
C1327  C     0.11470   0.32601   0.74677   0.00000  Uiso   1.00
C1328  C     0.38530   0.17399   0.91990   0.00000  Uiso   1.00
C1329  C     0.11470   0.17399   0.91990   0.00000  Uiso   1.00
C1330  C     0.38529   0.32601   0.74677   0.00000  Uiso   1.00
C1331  C     0.38529   0.32601   0.91990   0.00000  Uiso   1.00
C1332  C     0.11470   0.17399   0.74677   0.00000  Uiso   1.00
C1333  C     0.13530   0.42399   0.74677   0.00000  Uiso   1.00
C1334  C     0.36470   0.07601   0.91990   0.00000  Uiso   1.00
C1335  C     0.36470   0.07601   0.74677   0.00000  Uiso   1.00
C1336  C     0.18778   0.05598   0.83333   0.00000  Uiso   1.00
C1337  C     0.13530   0.42399   0.91990   0.00000  Uiso   1.00
C1338  C     0.36470   0.42399   0.91990   0.00000  Uiso   1.00
C1339  C     0.13529   0.07601   0.74677   0.00000  Uiso   1.00
C1340  C     0.13529   0.07601   0.91990   0.00000  Uiso   1.00
C1341  C     0.36470   0.42399   0.74677   0.00000  Uiso   1.00
C1342  C     0.18779   0.44402   0.83333   0.00000  Uiso   1.00
C1343  C     0.31221   0.05598   0.83333   0.00000  Uiso   1.00
C1344  C     0.00000   0.20922   0.69145   0.00000  Uiso   1.00
Cu1345 Cu    0.00000   0.25000   0.88022   0.00000  Uiso   1.00
Cu1346 Cu    0.00000   0.25000   0.78645   0.00000  Uiso   1.00
Cu1347 Cu    0.25000   0.00000   0.88022   0.00000  Uiso   1.00
Cu1348 Cu    0.25000   0.00000   0.78645   0.00000  Uiso   1.00
H1349  H     0.00000   0.16282   0.75313   0.00000  Uiso   1.00
H1350  H     0.00000   0.16282   0.91354   0.00000  Uiso   1.00
H1351  H     0.02756   0.14261   0.96121   0.00000  Uiso   1.00
H1352  H     0.47244   0.14260   0.96121   0.00000  Uiso   1.00
H1353  H     0.25000   0.41282   0.75313   0.00000  Uiso   1.00
H1354  H     0.22244   0.39260   0.70546   0.00000  Uiso   1.00
H1355  H     0.27756   0.39260   0.70546   0.00000  Uiso   1.00
H1356  H     0.25000   0.08718   0.91354   0.00000  Uiso   1.00
H1357  H     0.22244   0.10740   0.96121   0.00000  Uiso   1.00
H1358  H     0.27756   0.10740   0.96121   0.00000  Uiso   1.00
H1359  H     0.25000   0.08718   0.75313   0.00000  Uiso   1.00
H1360  H     0.47244   0.14260   0.70546   0.00000  Uiso   1.00
H1361  H     0.27756   0.10740   0.70546   0.00000  Uiso   1.00
H1362  H     0.22244   0.10740   0.70546   0.00000  Uiso   1.00
H1363  H     0.25000   0.41282   0.91354   0.00000  Uiso   1.00
H1364  H     0.27756   0.39261   0.96121   0.00000  Uiso   1.00
H1365  H     0.22244   0.39260   0.96121   0.00000  Uiso   1.00
H1366  H     0.39156   0.21077   0.75303   0.00000  Uiso   1.00
H1367  H     0.40762   0.16000   0.72150   0.00000  Uiso   1.00
H1368  H     0.35399   0.17291   0.73087   0.00000  Uiso   1.00
H1369  H     0.10844   0.28923   0.91364   0.00000  Uiso   1.00
H1370  H     0.14601   0.32709   0.93580   0.00000  Uiso   1.00
H1371  H     0.02756   0.14260   0.70546   0.00000  Uiso   1.00
H1372  H     0.09238   0.34000   0.94517   0.00000  Uiso   1.00
H1373  H     0.10844   0.28923   0.75303   0.00000  Uiso   1.00
H1374  H     0.09238   0.34000   0.72150   0.00000  Uiso   1.00
H1375  H     0.14601   0.32709   0.73087   0.00000  Uiso   1.00
H1376  H     0.39156   0.21077   0.91364   0.00000  Uiso   1.00
H1377  H     0.35399   0.17291   0.93580   0.00000  Uiso   1.00
H1378  H     0.40762   0.16000   0.94517   0.00000  Uiso   1.00
H1379  H     0.10844   0.21077   0.91364   0.00000  Uiso   1.00
H1380  H     0.09238   0.16000   0.94517   0.00000  Uiso   1.00
H1381  H     0.14601   0.17292   0.93580   0.00000  Uiso   1.00
H1382  H    -0.00000   0.33718   0.91354   0.00000  Uiso   1.00
H1383  H     0.39156   0.28923   0.75303   0.00000  Uiso   1.00
H1384  H     0.35399   0.32709   0.73087   0.00000  Uiso   1.00
H1385  H     0.40762   0.34000   0.72150   0.00000  Uiso   1.00
H1386  H     0.39156   0.28923   0.91364   0.00000  Uiso   1.00
H1387  H     0.40762   0.34000   0.94517   0.00000  Uiso   1.00
H1388  H     0.35399   0.32709   0.93580   0.00000  Uiso   1.00
H1389  H     0.10844   0.21077   0.75303   0.00000  Uiso   1.00
H1390  H     0.14601   0.17291   0.73087   0.00000  Uiso   1.00
H1391  H     0.09238   0.16000   0.72150   0.00000  Uiso   1.00
H1392  H     0.14156   0.46077   0.75303   0.00000  Uiso   1.00
H1393  H     0.47244   0.35740   0.96121   0.00000  Uiso   1.00
H1394  H     0.15762   0.41000   0.72150   0.00000  Uiso   1.00
H1395  H     0.10399   0.42291   0.73087   0.00000  Uiso   1.00
H1396  H     0.35844   0.03923   0.91364   0.00000  Uiso   1.00
H1397  H     0.39601   0.07709   0.93580   0.00000  Uiso   1.00
H1398  H     0.34238   0.09000   0.94517   0.00000  Uiso   1.00
H1399  H     0.35844   0.03923   0.75303   0.00000  Uiso   1.00
H1400  H     0.34238   0.09000   0.72150   0.00000  Uiso   1.00
H1401  H     0.39601   0.07709   0.73087   0.00000  Uiso   1.00
H1402  H     0.14156   0.46077   0.91364   0.00000  Uiso   1.00
H1403  H     0.10399   0.42291   0.93580   0.00000  Uiso   1.00
H1404  H     0.02756   0.35740   0.96121   0.00000  Uiso   1.00
H1405  H     0.15762   0.41000   0.94517   0.00000  Uiso   1.00
H1406  H     0.35844   0.46077   0.91364   0.00000  Uiso   1.00
H1407  H     0.34238   0.41000   0.94517   0.00000  Uiso   1.00
H1408  H     0.39601   0.42292   0.93580   0.00000  Uiso   1.00
H1409  H     0.14156   0.03923   0.75303   0.00000  Uiso   1.00
H1410  H     0.10399   0.07709   0.73087   0.00000  Uiso   1.00
H1411  H     0.15762   0.09000   0.72150   0.00000  Uiso   1.00
H1412  H     0.14156   0.03923   0.91364   0.00000  Uiso   1.00
H1413  H     0.15762   0.09000   0.94517   0.00000  Uiso   1.00
H1414  H     0.10399   0.07709   0.93580   0.00000  Uiso   1.00
H1415  H    -0.00000   0.33718   0.75313   0.00000  Uiso   1.00
H1416  H     0.35844   0.46077   0.75303   0.00000  Uiso   1.00
H1417  H     0.39601   0.42291   0.73087   0.00000  Uiso   1.00
H1418  H     0.34238   0.41000   0.72150   0.00000  Uiso   1.00
H1419  H     0.02756   0.35740   0.70546   0.00000  Uiso   1.00
H1420  H     0.47244   0.35740   0.70546   0.00000  Uiso   1.00
N1421  N     0.00000   0.25000   0.95069   0.00000  Uiso   1.00
N1422  N     0.00000   0.25000   0.71598   0.00000  Uiso   1.00
N1423  N     0.25000   0.00000   0.95069   0.00000  Uiso   1.00
N1424  N     0.25000   0.00000   0.71598   0.00000  Uiso   1.00
O1425  O     0.04508   0.20491   0.87291   0.00000  Uiso   1.00
O1426  O     0.20491   0.04509   0.79375   0.00000  Uiso   1.00
O1427  O     0.20491   0.04509   0.87291   0.00000  Uiso   1.00
O1428  O     0.29508   0.45491   0.79375   0.00000  Uiso   1.00
O1429  O     0.20491   0.45491   0.79375   0.00000  Uiso   1.00
O1430  O     0.29508   0.04509   0.87291   0.00000  Uiso   1.00
O1431  O     0.29508   0.04509   0.79375   0.00000  Uiso   1.00
O1432  O     0.20491   0.45491   0.87291   0.00000  Uiso   1.00
O1433  O     0.45491   0.29509   0.79375   0.00000  Uiso   1.00
O1434  O     0.45491   0.29509   0.87291   0.00000  Uiso   1.00
O1435  O     0.04508   0.20491   0.79375   0.00000  Uiso   1.00
O1436  O     0.45491   0.20491   0.79375   0.00000  Uiso   1.00
O1437  O     0.04508   0.29509   0.87291   0.00000  Uiso   1.00
O1438  O     0.04508   0.29509   0.79375   0.00000  Uiso   1.00
O1439  O     0.45491   0.20491   0.87291   0.00000  Uiso   1.00
O1440  O     0.29508   0.45491   0.87291   0.00000  Uiso   1.00
C1441  C     0.56221   0.19402   0.83333   0.00000  Uiso   1.00
C1442  C     0.50000   0.29078   0.97522   0.00000  Uiso   1.00
C1443  C     0.50000   0.29078   0.69145   0.00000  Uiso   1.00
C1444  C     0.50000   0.20922   0.97522   0.00000  Uiso   1.00
C1445  C     0.75000   0.45922   0.69145   0.00000  Uiso   1.00
C1446  C     0.75000   0.04078   0.97522   0.00000  Uiso   1.00
C1447  C     0.75000   0.04078   0.69145   0.00000  Uiso   1.00
C1448  C     0.75000   0.45922   0.97522   0.00000  Uiso   1.00
C1449  C     0.88536   0.14613   0.79110   0.00000  Uiso   1.00
C1450  C     0.61463   0.35387   0.87557   0.00000  Uiso   1.00
C1451  C     0.61463   0.35387   0.79110   0.00000  Uiso   1.00
C1452  C     0.93779   0.30598   0.83333   0.00000  Uiso   1.00
C1453  C     0.88536   0.14613   0.87557   0.00000  Uiso   1.00
C1454  C     0.61463   0.14613   0.87557   0.00000  Uiso   1.00
C1455  C     0.88536   0.35387   0.79110   0.00000  Uiso   1.00
C1456  C     0.88536   0.35387   0.87557   0.00000  Uiso   1.00
C1457  C     0.61463   0.14613   0.79110   0.00000  Uiso   1.00
C1458  C     0.63536   0.39613   0.79110   0.00000  Uiso   1.00
C1459  C     0.86463   0.10387   0.87557   0.00000  Uiso   1.00
C1460  C     0.86463   0.10387   0.79110   0.00000  Uiso   1.00
C1461  C     0.63536   0.39613   0.87557   0.00000  Uiso   1.00
C1462  C     0.86463   0.39613   0.87557   0.00000  Uiso   1.00
C1463  C     0.93779   0.19402   0.83333   0.00000  Uiso   1.00
C1464  C     0.63536   0.10387   0.79110   0.00000  Uiso   1.00
C1465  C     0.63536   0.10387   0.87557   0.00000  Uiso   1.00
C1466  C     0.86463   0.39613   0.79110   0.00000  Uiso   1.00
C1467  C     0.59928   0.33607   0.83333   0.00000  Uiso   1.00
C1468  C     0.90072   0.16393   0.83333   0.00000  Uiso   1.00
C1469  C     0.90072   0.33607   0.83333   0.00000  Uiso   1.00
C1470  C     0.59928   0.16393   0.83333   0.00000  Uiso   1.00
C1471  C     0.84928   0.08607   0.83333   0.00000  Uiso   1.00
C1472  C     0.65072   0.41393   0.83333   0.00000  Uiso   1.00
C1473  C     0.65072   0.08607   0.83333   0.00000  Uiso   1.00
C1474  C     0.56221   0.30598   0.83333   0.00000  Uiso   1.00
C1475  C     0.84928   0.41393   0.83333   0.00000  Uiso   1.00
C1476  C     0.50000   0.16272   0.71560   0.00000  Uiso   1.00
C1477  C     0.50000   0.33728   0.95107   0.00000  Uiso   1.00
C1478  C     0.50000   0.33728   0.71560   0.00000  Uiso   1.00
C1479  C     0.50000   0.16272   0.95107   0.00000  Uiso   1.00
C1480  C     0.75000   0.41272   0.71560   0.00000  Uiso   1.00
C1481  C     0.75000   0.08728   0.95107   0.00000  Uiso   1.00
C1482  C     0.75000   0.08728   0.71560   0.00000  Uiso   1.00
C1483  C     0.75000   0.41272   0.95107   0.00000  Uiso   1.00
C1484  C     0.88530   0.17399   0.74677   0.00000  Uiso   1.00
C1485  C     0.81221   0.44402   0.83333   0.00000  Uiso   1.00
C1486  C     0.61470   0.32601   0.91990   0.00000  Uiso   1.00
C1487  C     0.61470   0.32601   0.74677   0.00000  Uiso   1.00
C1488  C     0.88530   0.17399   0.91990   0.00000  Uiso   1.00
C1489  C     0.61470   0.17399   0.91990   0.00000  Uiso   1.00
C1490  C     0.88529   0.32601   0.74677   0.00000  Uiso   1.00
C1491  C     0.88529   0.32601   0.91990   0.00000  Uiso   1.00
C1492  C     0.61470   0.17399   0.74677   0.00000  Uiso   1.00
C1493  C     0.63530   0.42399   0.74677   0.00000  Uiso   1.00
C1494  C     0.86470   0.07601   0.91990   0.00000  Uiso   1.00
C1495  C     0.86470   0.07601   0.74677   0.00000  Uiso   1.00
C1496  C     0.68778   0.05598   0.83333   0.00000  Uiso   1.00
C1497  C     0.63530   0.42399   0.91990   0.00000  Uiso   1.00
C1498  C     0.86470   0.42399   0.91990   0.00000  Uiso   1.00
C1499  C     0.63529   0.07601   0.74677   0.00000  Uiso   1.00
C1500  C     0.63529   0.07601   0.91990   0.00000  Uiso   1.00
C1501  C     0.86470   0.42399   0.74677   0.00000  Uiso   1.00
C1502  C     0.68779   0.44402   0.83333   0.00000  Uiso   1.00
C1503  C     0.81221   0.05598   0.83333   0.00000  Uiso   1.00
C1504  C     0.50000   0.20922   0.69145   0.00000  Uiso   1.00
Cu1505 Cu    0.50000   0.25000   0.88022   0.00000  Uiso   1.00
Cu1506 Cu    0.50000   0.25000   0.78645   0.00000  Uiso   1.00
Cu1507 Cu    0.75000   0.00000   0.88022   0.00000  Uiso   1.00
Cu1508 Cu    0.75000   0.00000   0.78645   0.00000  Uiso   1.00
H1509  H     0.50000   0.16282   0.75313   0.00000  Uiso   1.00
H1510  H     0.50000   0.16282   0.91354   0.00000  Uiso   1.00
H1511  H     0.52756   0.14261   0.96121   0.00000  Uiso   1.00
H1512  H     0.97244   0.14260   0.96121   0.00000  Uiso   1.00
H1513  H     0.75000   0.41282   0.75313   0.00000  Uiso   1.00
H1514  H     0.72244   0.39260   0.70546   0.00000  Uiso   1.00
H1515  H     0.77756   0.39260   0.70546   0.00000  Uiso   1.00
H1516  H     0.75000   0.08718   0.91354   0.00000  Uiso   1.00
H1517  H     0.72244   0.10740   0.96121   0.00000  Uiso   1.00
H1518  H     0.77756   0.10740   0.96121   0.00000  Uiso   1.00
H1519  H     0.75000   0.08718   0.75313   0.00000  Uiso   1.00
H1520  H     0.97244   0.14260   0.70546   0.00000  Uiso   1.00
H1521  H     0.77756   0.10740   0.70546   0.00000  Uiso   1.00
H1522  H     0.72244   0.10740   0.70546   0.00000  Uiso   1.00
H1523  H     0.75000   0.41282   0.91354   0.00000  Uiso   1.00
H1524  H     0.77756   0.39261   0.96121   0.00000  Uiso   1.00
H1525  H     0.72244   0.39260   0.96121   0.00000  Uiso   1.00
H1526  H     0.89156   0.21077   0.75303   0.00000  Uiso   1.00
H1527  H     0.90762   0.16000   0.72150   0.00000  Uiso   1.00
H1528  H     0.85399   0.17291   0.73087   0.00000  Uiso   1.00
H1529  H     0.60844   0.28923   0.91364   0.00000  Uiso   1.00
H1530  H     0.64601   0.32709   0.93580   0.00000  Uiso   1.00
H1531  H     0.52756   0.14260   0.70546   0.00000  Uiso   1.00
H1532  H     0.59238   0.34000   0.94517   0.00000  Uiso   1.00
H1533  H     0.60844   0.28923   0.75303   0.00000  Uiso   1.00
H1534  H     0.59238   0.34000   0.72150   0.00000  Uiso   1.00
H1535  H     0.64601   0.32709   0.73087   0.00000  Uiso   1.00
H1536  H     0.89156   0.21077   0.91364   0.00000  Uiso   1.00
H1537  H     0.85399   0.17291   0.93580   0.00000  Uiso   1.00
H1538  H     0.90762   0.16000   0.94517   0.00000  Uiso   1.00
H1539  H     0.60844   0.21077   0.91364   0.00000  Uiso   1.00
H1540  H     0.59238   0.16000   0.94517   0.00000  Uiso   1.00
H1541  H     0.64601   0.17292   0.93580   0.00000  Uiso   1.00
H1542  H     0.50000   0.33718   0.91354   0.00000  Uiso   1.00
H1543  H     0.89156   0.28923   0.75303   0.00000  Uiso   1.00
H1544  H     0.85399   0.32709   0.73087   0.00000  Uiso   1.00
H1545  H     0.90762   0.34000   0.72150   0.00000  Uiso   1.00
H1546  H     0.89156   0.28923   0.91364   0.00000  Uiso   1.00
H1547  H     0.90762   0.34000   0.94517   0.00000  Uiso   1.00
H1548  H     0.85399   0.32709   0.93580   0.00000  Uiso   1.00
H1549  H     0.60844   0.21077   0.75303   0.00000  Uiso   1.00
H1550  H     0.64601   0.17291   0.73087   0.00000  Uiso   1.00
H1551  H     0.59238   0.16000   0.72150   0.00000  Uiso   1.00
H1552  H     0.64156   0.46077   0.75303   0.00000  Uiso   1.00
H1553  H     0.97244   0.35740   0.96121   0.00000  Uiso   1.00
H1554  H     0.65762   0.41000   0.72150   0.00000  Uiso   1.00
H1555  H     0.60399   0.42291   0.73087   0.00000  Uiso   1.00
H1556  H     0.85844   0.03923   0.91364   0.00000  Uiso   1.00
H1557  H     0.89601   0.07709   0.93580   0.00000  Uiso   1.00
H1558  H     0.84238   0.09000   0.94517   0.00000  Uiso   1.00
H1559  H     0.85844   0.03923   0.75303   0.00000  Uiso   1.00
H1560  H     0.84238   0.09000   0.72150   0.00000  Uiso   1.00
H1561  H     0.89601   0.07709   0.73087   0.00000  Uiso   1.00
H1562  H     0.64156   0.46077   0.91364   0.00000  Uiso   1.00
H1563  H     0.60399   0.42291   0.93580   0.00000  Uiso   1.00
H1564  H     0.52756   0.35740   0.96121   0.00000  Uiso   1.00
H1565  H     0.65762   0.41000   0.94517   0.00000  Uiso   1.00
H1566  H     0.85844   0.46077   0.91364   0.00000  Uiso   1.00
H1567  H     0.84238   0.41000   0.94517   0.00000  Uiso   1.00
H1568  H     0.89601   0.42292   0.93580   0.00000  Uiso   1.00
H1569  H     0.64156   0.03923   0.75303   0.00000  Uiso   1.00
H1570  H     0.60399   0.07709   0.73087   0.00000  Uiso   1.00
H1571  H     0.65762   0.09000   0.72150   0.00000  Uiso   1.00
H1572  H     0.64156   0.03923   0.91364   0.00000  Uiso   1.00
H1573  H     0.65762   0.09000   0.94517   0.00000  Uiso   1.00
H1574  H     0.60399   0.07709   0.93580   0.00000  Uiso   1.00
H1575  H     0.50000   0.33718   0.75313   0.00000  Uiso   1.00
H1576  H     0.85844   0.46077   0.75303   0.00000  Uiso   1.00
H1577  H     0.89601   0.42291   0.73087   0.00000  Uiso   1.00
H1578  H     0.84238   0.41000   0.72150   0.00000  Uiso   1.00
H1579  H     0.52756   0.35740   0.70546   0.00000  Uiso   1.00
H1580  H     0.97244   0.35740   0.70546   0.00000  Uiso   1.00
N1581  N     0.50000   0.25000   0.95069   0.00000  Uiso   1.00
N1582  N     0.50000   0.25000   0.71598   0.00000  Uiso   1.00
N1583  N     0.75000   0.00000   0.95069   0.00000  Uiso   1.00
N1584  N     0.75000   0.00000   0.71598   0.00000  Uiso   1.00
O1585  O     0.54508   0.20491   0.87291   0.00000  Uiso   1.00
O1586  O     0.70491   0.04509   0.79375   0.00000  Uiso   1.00
O1587  O     0.70491   0.04509   0.87291   0.00000  Uiso   1.00
O1588  O     0.79508   0.45491   0.79375   0.00000  Uiso   1.00
O1589  O     0.70491   0.45491   0.79375   0.00000  Uiso   1.00
O1590  O     0.79508   0.04509   0.87291   0.00000  Uiso   1.00
O1591  O     0.79508   0.04509   0.79375   0.00000  Uiso   1.00
O1592  O     0.70491   0.45491   0.87291   0.00000  Uiso   1.00
O1593  O     0.95491   0.29509   0.79375   0.00000  Uiso   1.00
O1594  O     0.95491   0.29509   0.87291   0.00000  Uiso   1.00
O1595  O     0.54508   0.20491   0.79375   0.00000  Uiso   1.00
O1596  O     0.95491   0.20491   0.79375   0.00000  Uiso   1.00
O1597  O     0.54508   0.29509   0.87291   0.00000  Uiso   1.00
O1598  O     0.54508   0.29509   0.79375   0.00000  Uiso   1.00
O1599  O     0.95491   0.20491   0.87291   0.00000  Uiso   1.00
O1600  O     0.79508   0.45491   0.87291   0.00000  Uiso   1.00
C1601  C     0.06221   0.69402   0.83333   0.00000  Uiso   1.00
C1602  C    -0.00000   0.79078   0.97522   0.00000  Uiso   1.00
C1603  C    -0.00000   0.79078   0.69145   0.00000  Uiso   1.00
C1604  C     0.00000   0.70922   0.97522   0.00000  Uiso   1.00
C1605  C     0.25000   0.95922   0.69145   0.00000  Uiso   1.00
C1606  C     0.25000   0.54078   0.97522   0.00000  Uiso   1.00
C1607  C     0.25000   0.54078   0.69145   0.00000  Uiso   1.00
C1608  C     0.25000   0.95922   0.97522   0.00000  Uiso   1.00
C1609  C     0.38536   0.64613   0.79110   0.00000  Uiso   1.00
C1610  C     0.11463   0.85387   0.87557   0.00000  Uiso   1.00
C1611  C     0.11463   0.85387   0.79110   0.00000  Uiso   1.00
C1612  C     0.43779   0.80598   0.83333   0.00000  Uiso   1.00
C1613  C     0.38536   0.64613   0.87557   0.00000  Uiso   1.00
C1614  C     0.11463   0.64613   0.87557   0.00000  Uiso   1.00
C1615  C     0.38536   0.85387   0.79110   0.00000  Uiso   1.00
C1616  C     0.38536   0.85387   0.87557   0.00000  Uiso   1.00
C1617  C     0.11463   0.64613   0.79110   0.00000  Uiso   1.00
C1618  C     0.13536   0.89613   0.79110   0.00000  Uiso   1.00
C1619  C     0.36463   0.60387   0.87557   0.00000  Uiso   1.00
C1620  C     0.36463   0.60387   0.79110   0.00000  Uiso   1.00
C1621  C     0.13536   0.89613   0.87557   0.00000  Uiso   1.00
C1622  C     0.36463   0.89613   0.87557   0.00000  Uiso   1.00
C1623  C     0.43779   0.69402   0.83333   0.00000  Uiso   1.00
C1624  C     0.13536   0.60387   0.79110   0.00000  Uiso   1.00
C1625  C     0.13536   0.60387   0.87557   0.00000  Uiso   1.00
C1626  C     0.36463   0.89613   0.79110   0.00000  Uiso   1.00
C1627  C     0.09928   0.83607   0.83333   0.00000  Uiso   1.00
C1628  C     0.40072   0.66393   0.83333   0.00000  Uiso   1.00
C1629  C     0.40072   0.83607   0.83333   0.00000  Uiso   1.00
C1630  C     0.09928   0.66393   0.83333   0.00000  Uiso   1.00
C1631  C     0.34928   0.58607   0.83333   0.00000  Uiso   1.00
C1632  C     0.15072   0.91393   0.83333   0.00000  Uiso   1.00
C1633  C     0.15072   0.58607   0.83333   0.00000  Uiso   1.00
C1634  C     0.06221   0.80598   0.83333   0.00000  Uiso   1.00
C1635  C     0.34928   0.91393   0.83333   0.00000  Uiso   1.00
C1636  C     0.00000   0.66272   0.71560   0.00000  Uiso   1.00
C1637  C    -0.00000   0.83728   0.95107   0.00000  Uiso   1.00
C1638  C    -0.00000   0.83728   0.71560   0.00000  Uiso   1.00
C1639  C     0.00000   0.66272   0.95107   0.00000  Uiso   1.00
C1640  C     0.25000   0.91272   0.71560   0.00000  Uiso   1.00
C1641  C     0.25000   0.58728   0.95107   0.00000  Uiso   1.00
C1642  C     0.25000   0.58728   0.71560   0.00000  Uiso   1.00
C1643  C     0.25000   0.91272   0.95107   0.00000  Uiso   1.00
C1644  C     0.38530   0.67399   0.74677   0.00000  Uiso   1.00
C1645  C     0.31221   0.94402   0.83333   0.00000  Uiso   1.00
C1646  C     0.11470   0.82601   0.91990   0.00000  Uiso   1.00
C1647  C     0.11470   0.82601   0.74677   0.00000  Uiso   1.00
C1648  C     0.38530   0.67399   0.91990   0.00000  Uiso   1.00
C1649  C     0.11470   0.67399   0.91990   0.00000  Uiso   1.00
C1650  C     0.38529   0.82601   0.74677   0.00000  Uiso   1.00
C1651  C     0.38529   0.82601   0.91990   0.00000  Uiso   1.00
C1652  C     0.11470   0.67399   0.74677   0.00000  Uiso   1.00
C1653  C     0.13530   0.92399   0.74677   0.00000  Uiso   1.00
C1654  C     0.36470   0.57601   0.91990   0.00000  Uiso   1.00
C1655  C     0.36470   0.57601   0.74677   0.00000  Uiso   1.00
C1656  C     0.18778   0.55598   0.83333   0.00000  Uiso   1.00
C1657  C     0.13530   0.92399   0.91990   0.00000  Uiso   1.00
C1658  C     0.36470   0.92399   0.91990   0.00000  Uiso   1.00
C1659  C     0.13529   0.57601   0.74677   0.00000  Uiso   1.00
C1660  C     0.13529   0.57601   0.91990   0.00000  Uiso   1.00
C1661  C     0.36470   0.92399   0.74677   0.00000  Uiso   1.00
C1662  C     0.18779   0.94402   0.83333   0.00000  Uiso   1.00
C1663  C     0.31221   0.55598   0.83333   0.00000  Uiso   1.00
C1664  C     0.00000   0.70922   0.69145   0.00000  Uiso   1.00
Cu1665 Cu    0.00000   0.75000   0.88022   0.00000  Uiso   1.00
Cu1666 Cu    0.00000   0.75000   0.78645   0.00000  Uiso   1.00
Cu1667 Cu    0.25000   0.50000   0.88022   0.00000  Uiso   1.00
Cu1668 Cu    0.25000   0.50000   0.78645   0.00000  Uiso   1.00
H1669  H     0.00000   0.66282   0.75313   0.00000  Uiso   1.00
H1670  H     0.00000   0.66282   0.91354   0.00000  Uiso   1.00
H1671  H     0.02756   0.64261   0.96121   0.00000  Uiso   1.00
H1672  H     0.47244   0.64260   0.96121   0.00000  Uiso   1.00
H1673  H     0.25000   0.91282   0.75313   0.00000  Uiso   1.00
H1674  H     0.22244   0.89260   0.70546   0.00000  Uiso   1.00
H1675  H     0.27756   0.89260   0.70546   0.00000  Uiso   1.00
H1676  H     0.25000   0.58718   0.91354   0.00000  Uiso   1.00
H1677  H     0.22244   0.60740   0.96121   0.00000  Uiso   1.00
H1678  H     0.27756   0.60740   0.96121   0.00000  Uiso   1.00
H1679  H     0.25000   0.58718   0.75313   0.00000  Uiso   1.00
H1680  H     0.47244   0.64260   0.70546   0.00000  Uiso   1.00
H1681  H     0.27756   0.60740   0.70546   0.00000  Uiso   1.00
H1682  H     0.22244   0.60740   0.70546   0.00000  Uiso   1.00
H1683  H     0.25000   0.91282   0.91354   0.00000  Uiso   1.00
H1684  H     0.27756   0.89261   0.96121   0.00000  Uiso   1.00
H1685  H     0.22244   0.89260   0.96121   0.00000  Uiso   1.00
H1686  H     0.39156   0.71077   0.75303   0.00000  Uiso   1.00
H1687  H     0.40762   0.66000   0.72150   0.00000  Uiso   1.00
H1688  H     0.35399   0.67291   0.73087   0.00000  Uiso   1.00
H1689  H     0.10844   0.78923   0.91364   0.00000  Uiso   1.00
H1690  H     0.14601   0.82709   0.93580   0.00000  Uiso   1.00
H1691  H     0.02756   0.64260   0.70546   0.00000  Uiso   1.00
H1692  H     0.09238   0.84000   0.94517   0.00000  Uiso   1.00
H1693  H     0.10844   0.78923   0.75303   0.00000  Uiso   1.00
H1694  H     0.09238   0.84000   0.72150   0.00000  Uiso   1.00
H1695  H     0.14601   0.82709   0.73087   0.00000  Uiso   1.00
H1696  H     0.39156   0.71077   0.91364   0.00000  Uiso   1.00
H1697  H     0.35399   0.67291   0.93580   0.00000  Uiso   1.00
H1698  H     0.40762   0.66000   0.94517   0.00000  Uiso   1.00
H1699  H     0.10844   0.71077   0.91364   0.00000  Uiso   1.00
H1700  H     0.09238   0.66000   0.94517   0.00000  Uiso   1.00
H1701  H     0.14601   0.67292   0.93580   0.00000  Uiso   1.00
H1702  H    -0.00000   0.83718   0.91354   0.00000  Uiso   1.00
H1703  H     0.39156   0.78923   0.75303   0.00000  Uiso   1.00
H1704  H     0.35399   0.82709   0.73087   0.00000  Uiso   1.00
H1705  H     0.40762   0.84000   0.72150   0.00000  Uiso   1.00
H1706  H     0.39156   0.78923   0.91364   0.00000  Uiso   1.00
H1707  H     0.40762   0.84000   0.94517   0.00000  Uiso   1.00
H1708  H     0.35399   0.82709   0.93580   0.00000  Uiso   1.00
H1709  H     0.10844   0.71077   0.75303   0.00000  Uiso   1.00
H1710  H     0.14601   0.67291   0.73087   0.00000  Uiso   1.00
H1711  H     0.09238   0.66000   0.72150   0.00000  Uiso   1.00
H1712  H     0.14156   0.96077   0.75303   0.00000  Uiso   1.00
H1713  H     0.47244   0.85740   0.96121   0.00000  Uiso   1.00
H1714  H     0.15762   0.91000   0.72150   0.00000  Uiso   1.00
H1715  H     0.10399   0.92291   0.73087   0.00000  Uiso   1.00
H1716  H     0.35844   0.53923   0.91364   0.00000  Uiso   1.00
H1717  H     0.39601   0.57709   0.93580   0.00000  Uiso   1.00
H1718  H     0.34238   0.59000   0.94517   0.00000  Uiso   1.00
H1719  H     0.35844   0.53923   0.75303   0.00000  Uiso   1.00
H1720  H     0.34238   0.59000   0.72150   0.00000  Uiso   1.00
H1721  H     0.39601   0.57709   0.73087   0.00000  Uiso   1.00
H1722  H     0.14156   0.96077   0.91364   0.00000  Uiso   1.00
H1723  H     0.10399   0.92291   0.93580   0.00000  Uiso   1.00
H1724  H     0.02756   0.85740   0.96121   0.00000  Uiso   1.00
H1725  H     0.15762   0.91000   0.94517   0.00000  Uiso   1.00
H1726  H     0.35844   0.96077   0.91364   0.00000  Uiso   1.00
H1727  H     0.34238   0.91000   0.94517   0.00000  Uiso   1.00
H1728  H     0.39601   0.92292   0.93580   0.00000  Uiso   1.00
H1729  H     0.14156   0.53923   0.75303   0.00000  Uiso   1.00
H1730  H     0.10399   0.57709   0.73087   0.00000  Uiso   1.00
H1731  H     0.15762   0.59000   0.72150   0.00000  Uiso   1.00
H1732  H     0.14156   0.53923   0.91364   0.00000  Uiso   1.00
H1733  H     0.15762   0.59000   0.94517   0.00000  Uiso   1.00
H1734  H     0.10399   0.57709   0.93580   0.00000  Uiso   1.00
H1735  H    -0.00000   0.83718   0.75313   0.00000  Uiso   1.00
H1736  H     0.35844   0.96077   0.75303   0.00000  Uiso   1.00
H1737  H     0.39601   0.92291   0.73087   0.00000  Uiso   1.00
H1738  H     0.34238   0.91000   0.72150   0.00000  Uiso   1.00
H1739  H     0.02756   0.85740   0.70546   0.00000  Uiso   1.00
H1740  H     0.47244   0.85740   0.70546   0.00000  Uiso   1.00
N1741  N     0.00000   0.75000   0.95069   0.00000  Uiso   1.00
N1742  N     0.00000   0.75000   0.71598   0.00000  Uiso   1.00
N1743  N     0.25000   0.50000   0.95069   0.00000  Uiso   1.00
N1744  N     0.25000   0.50000   0.71598   0.00000  Uiso   1.00
O1745  O     0.04508   0.70491   0.87291   0.00000  Uiso   1.00
O1746  O     0.20491   0.54509   0.79375   0.00000  Uiso   1.00
O1747  O     0.20491   0.54509   0.87291   0.00000  Uiso   1.00
O1748  O     0.29508   0.95491   0.79375   0.00000  Uiso   1.00
O1749  O     0.20491   0.95491   0.79375   0.00000  Uiso   1.00
O1750  O     0.29508   0.54509   0.87291   0.00000  Uiso   1.00
O1751  O     0.29508   0.54509   0.79375   0.00000  Uiso   1.00
O1752  O     0.20491   0.95491   0.87291   0.00000  Uiso   1.00
O1753  O     0.45491   0.79509   0.79375   0.00000  Uiso   1.00
O1754  O     0.45491   0.79509   0.87291   0.00000  Uiso   1.00
O1755  O     0.04508   0.70491   0.79375   0.00000  Uiso   1.00
O1756  O     0.45491   0.70491   0.79375   0.00000  Uiso   1.00
O1757  O     0.04508   0.79509   0.87291   0.00000  Uiso   1.00
O1758  O     0.04508   0.79509   0.79375   0.00000  Uiso   1.00
O1759  O     0.45491   0.70491   0.87291   0.00000  Uiso   1.00
O1760  O     0.29508   0.95491   0.87291   0.00000  Uiso   1.00
C1761  C     0.56221   0.69402   0.83333   0.00000  Uiso   1.00
C1762  C     0.50000   0.79078   0.97522   0.00000  Uiso   1.00
C1763  C     0.50000   0.79078   0.69145   0.00000  Uiso   1.00
C1764  C     0.50000   0.70922   0.97522   0.00000  Uiso   1.00
C1765  C     0.75000   0.95922   0.69145   0.00000  Uiso   1.00
C1766  C     0.75000   0.54078   0.97522   0.00000  Uiso   1.00
C1767  C     0.75000   0.54078   0.69145   0.00000  Uiso   1.00
C1768  C     0.75000   0.95922   0.97522   0.00000  Uiso   1.00
C1769  C     0.88536   0.64613   0.79110   0.00000  Uiso   1.00
C1770  C     0.61463   0.85387   0.87557   0.00000  Uiso   1.00
C1771  C     0.61463   0.85387   0.79110   0.00000  Uiso   1.00
C1772  C     0.93779   0.80598   0.83333   0.00000  Uiso   1.00
C1773  C     0.88536   0.64613   0.87557   0.00000  Uiso   1.00
C1774  C     0.61463   0.64613   0.87557   0.00000  Uiso   1.00
C1775  C     0.88536   0.85387   0.79110   0.00000  Uiso   1.00
C1776  C     0.88536   0.85387   0.87557   0.00000  Uiso   1.00
C1777  C     0.61463   0.64613   0.79110   0.00000  Uiso   1.00
C1778  C     0.63536   0.89613   0.79110   0.00000  Uiso   1.00
C1779  C     0.86463   0.60387   0.87557   0.00000  Uiso   1.00
C1780  C     0.86463   0.60387   0.79110   0.00000  Uiso   1.00
C1781  C     0.63536   0.89613   0.87557   0.00000  Uiso   1.00
C1782  C     0.86463   0.89613   0.87557   0.00000  Uiso   1.00
C1783  C     0.93779   0.69402   0.83333   0.00000  Uiso   1.00
C1784  C     0.63536   0.60387   0.79110   0.00000  Uiso   1.00
C1785  C     0.63536   0.60387   0.87557   0.00000  Uiso   1.00
C1786  C     0.86463   0.89613   0.79110   0.00000  Uiso   1.00
C1787  C     0.59928   0.83607   0.83333   0.00000  Uiso   1.00
C1788  C     0.90072   0.66393   0.83333   0.00000  Uiso   1.00
C1789  C     0.90072   0.83607   0.83333   0.00000  Uiso   1.00
C1790  C     0.59928   0.66393   0.83333   0.00000  Uiso   1.00
C1791  C     0.84928   0.58607   0.83333   0.00000  Uiso   1.00
C1792  C     0.65072   0.91393   0.83333   0.00000  Uiso   1.00
C1793  C     0.65072   0.58607   0.83333   0.00000  Uiso   1.00
C1794  C     0.56221   0.80598   0.83333   0.00000  Uiso   1.00
C1795  C     0.84928   0.91393   0.83333   0.00000  Uiso   1.00
C1796  C     0.50000   0.66272   0.71560   0.00000  Uiso   1.00
C1797  C     0.50000   0.83728   0.95107   0.00000  Uiso   1.00
C1798  C     0.50000   0.83728   0.71560   0.00000  Uiso   1.00
C1799  C     0.50000   0.66272   0.95107   0.00000  Uiso   1.00
C1800  C     0.75000   0.91272   0.71560   0.00000  Uiso   1.00
C1801  C     0.75000   0.58728   0.95107   0.00000  Uiso   1.00
C1802  C     0.75000   0.58728   0.71560   0.00000  Uiso   1.00
C1803  C     0.75000   0.91272   0.95107   0.00000  Uiso   1.00
C1804  C     0.88530   0.67399   0.74677   0.00000  Uiso   1.00
C1805  C     0.81221   0.94402   0.83333   0.00000  Uiso   1.00
C1806  C     0.61470   0.82601   0.91990   0.00000  Uiso   1.00
C1807  C     0.61470   0.82601   0.74677   0.00000  Uiso   1.00
C1808  C     0.88530   0.67399   0.91990   0.00000  Uiso   1.00
C1809  C     0.61470   0.67399   0.91990   0.00000  Uiso   1.00
C1810  C     0.88529   0.82601   0.74677   0.00000  Uiso   1.00
C1811  C     0.88529   0.82601   0.91990   0.00000  Uiso   1.00
C1812  C     0.61470   0.67399   0.74677   0.00000  Uiso   1.00
C1813  C     0.63530   0.92399   0.74677   0.00000  Uiso   1.00
C1814  C     0.86470   0.57601   0.91990   0.00000  Uiso   1.00
C1815  C     0.86470   0.57601   0.74677   0.00000  Uiso   1.00
C1816  C     0.68778   0.55598   0.83333   0.00000  Uiso   1.00
C1817  C     0.63530   0.92399   0.91990   0.00000  Uiso   1.00
C1818  C     0.86470   0.92399   0.91990   0.00000  Uiso   1.00
C1819  C     0.63529   0.57601   0.74677   0.00000  Uiso   1.00
C1820  C     0.63529   0.57601   0.91990   0.00000  Uiso   1.00
C1821  C     0.86470   0.92399   0.74677   0.00000  Uiso   1.00
C1822  C     0.68779   0.94402   0.83333   0.00000  Uiso   1.00
C1823  C     0.81221   0.55598   0.83333   0.00000  Uiso   1.00
C1824  C     0.50000   0.70922   0.69145   0.00000  Uiso   1.00
Cu1825 Cu    0.50000   0.75000   0.88022   0.00000  Uiso   1.00
Cu1826 Cu    0.50000   0.75000   0.78645   0.00000  Uiso   1.00
Cu1827 Cu    0.75000   0.50000   0.88022   0.00000  Uiso   1.00
Cu1828 Cu    0.75000   0.50000   0.78645   0.00000  Uiso   1.00
H1829  H     0.50000   0.66282   0.75313   0.00000  Uiso   1.00
H1830  H     0.50000   0.66282   0.91354   0.00000  Uiso   1.00
H1831  H     0.52756   0.64261   0.96121   0.00000  Uiso   1.00
H1832  H     0.97244   0.64260   0.96121   0.00000  Uiso   1.00
H1833  H     0.75000   0.91282   0.75313   0.00000  Uiso   1.00
H1834  H     0.72244   0.89260   0.70546   0.00000  Uiso   1.00
H1835  H     0.77756   0.89260   0.70546   0.00000  Uiso   1.00
H1836  H     0.75000   0.58718   0.91354   0.00000  Uiso   1.00
H1837  H     0.72244   0.60740   0.96121   0.00000  Uiso   1.00
H1838  H     0.77756   0.60740   0.96121   0.00000  Uiso   1.00
H1839  H     0.75000   0.58718   0.75313   0.00000  Uiso   1.00
H1840  H     0.97244   0.64260   0.70546   0.00000  Uiso   1.00
H1841  H     0.77756   0.60740   0.70546   0.00000  Uiso   1.00
H1842  H     0.72244   0.60740   0.70546   0.00000  Uiso   1.00
H1843  H     0.75000   0.91282   0.91354   0.00000  Uiso   1.00
H1844  H     0.77756   0.89261   0.96121   0.00000  Uiso   1.00
H1845  H     0.72244   0.89260   0.96121   0.00000  Uiso   1.00
H1846  H     0.89156   0.71077   0.75303   0.00000  Uiso   1.00
H1847  H     0.90762   0.66000   0.72150   0.00000  Uiso   1.00
H1848  H     0.85399   0.67291   0.73087   0.00000  Uiso   1.00
H1849  H     0.60844   0.78923   0.91364   0.00000  Uiso   1.00
H1850  H     0.64601   0.82709   0.93580   0.00000  Uiso   1.00
H1851  H     0.52756   0.64260   0.70546   0.00000  Uiso   1.00
H1852  H     0.59238   0.84000   0.94517   0.00000  Uiso   1.00
H1853  H     0.60844   0.78923   0.75303   0.00000  Uiso   1.00
H1854  H     0.59238   0.84000   0.72150   0.00000  Uiso   1.00
H1855  H     0.64601   0.82709   0.73087   0.00000  Uiso   1.00
H1856  H     0.89156   0.71077   0.91364   0.00000  Uiso   1.00
H1857  H     0.85399   0.67291   0.93580   0.00000  Uiso   1.00
H1858  H     0.90762   0.66000   0.94517   0.00000  Uiso   1.00
H1859  H     0.60844   0.71077   0.91364   0.00000  Uiso   1.00
H1860  H     0.59238   0.66000   0.94517   0.00000  Uiso   1.00
H1861  H     0.64601   0.67292   0.93580   0.00000  Uiso   1.00
H1862  H     0.50000   0.83718   0.91354   0.00000  Uiso   1.00
H1863  H     0.89156   0.78923   0.75303   0.00000  Uiso   1.00
H1864  H     0.85399   0.82709   0.73087   0.00000  Uiso   1.00
H1865  H     0.90762   0.84000   0.72150   0.00000  Uiso   1.00
H1866  H     0.89156   0.78923   0.91364   0.00000  Uiso   1.00
H1867  H     0.90762   0.84000   0.94517   0.00000  Uiso   1.00
H1868  H     0.85399   0.82709   0.93580   0.00000  Uiso   1.00
H1869  H     0.60844   0.71077   0.75303   0.00000  Uiso   1.00
H1870  H     0.64601   0.67291   0.73087   0.00000  Uiso   1.00
H1871  H     0.59238   0.66000   0.72150   0.00000  Uiso   1.00
H1872  H     0.64156   0.96077   0.75303   0.00000  Uiso   1.00
H1873  H     0.97244   0.85740   0.96121   0.00000  Uiso   1.00
H1874  H     0.65762   0.91000   0.72150   0.00000  Uiso   1.00
H1875  H     0.60399   0.92291   0.73087   0.00000  Uiso   1.00
H1876  H     0.85844   0.53923   0.91364   0.00000  Uiso   1.00
H1877  H     0.89601   0.57709   0.93580   0.00000  Uiso   1.00
H1878  H     0.84238   0.59000   0.94517   0.00000  Uiso   1.00
H1879  H     0.85844   0.53923   0.75303   0.00000  Uiso   1.00
H1880  H     0.84238   0.59000   0.72150   0.00000  Uiso   1.00
H1881  H     0.89601   0.57709   0.73087   0.00000  Uiso   1.00
H1882  H     0.64156   0.96077   0.91364   0.00000  Uiso   1.00
H1883  H     0.60399   0.92291   0.93580   0.00000  Uiso   1.00
H1884  H     0.52756   0.85740   0.96121   0.00000  Uiso   1.00
H1885  H     0.65762   0.91000   0.94517   0.00000  Uiso   1.00
H1886  H     0.85844   0.96077   0.91364   0.00000  Uiso   1.00
H1887  H     0.84238   0.91000   0.94517   0.00000  Uiso   1.00
H1888  H     0.89601   0.92292   0.93580   0.00000  Uiso   1.00
H1889  H     0.64156   0.53923   0.75303   0.00000  Uiso   1.00
H1890  H     0.60399   0.57709   0.73087   0.00000  Uiso   1.00
H1891  H     0.65762   0.59000   0.72150   0.00000  Uiso   1.00
H1892  H     0.64156   0.53923   0.91364   0.00000  Uiso   1.00
H1893  H     0.65762   0.59000   0.94517   0.00000  Uiso   1.00
H1894  H     0.60399   0.57709   0.93580   0.00000  Uiso   1.00
H1895  H     0.50000   0.83718   0.75313   0.00000  Uiso   1.00
H1896  H     0.85844   0.96077   0.75303   0.00000  Uiso   1.00
H1897  H     0.89601   0.92291   0.73087   0.00000  Uiso   1.00
H1898  H     0.84238   0.91000   0.72150   0.00000  Uiso   1.00
H1899  H     0.52756   0.85740   0.70546   0.00000  Uiso   1.00
H1900  H     0.97244   0.85740   0.70546   0.00000  Uiso   1.00
N1901  N     0.50000   0.75000   0.95069   0.00000  Uiso   1.00
N1902  N     0.50000   0.75000   0.71598   0.00000  Uiso   1.00
N1903  N     0.75000   0.50000   0.95069   0.00000  Uiso   1.00
N1904  N     0.75000   0.50000   0.71598   0.00000  Uiso   1.00
O1905  O     0.54508   0.70491   0.87291   0.00000  Uiso   1.00
O1906  O     0.70491   0.54509   0.79375   0.00000  Uiso   1.00
O1907  O     0.70491   0.54509   0.87291   0.00000  Uiso   1.00
O1908  O     0.79508   0.95491   0.79375   0.00000  Uiso   1.00
O1909  O     0.70491   0.95491   0.79375   0.00000  Uiso   1.00
O1910  O     0.79508   0.54509   0.87291   0.00000  Uiso   1.00
O1911  O     0.79508   0.54509   0.79375   0.00000  Uiso   1.00
O1912  O     0.70491   0.95491   0.87291   0.00000  Uiso   1.00
O1913  O     0.95491   0.79509   0.79375   0.00000  Uiso   1.00
O1914  O     0.95491   0.79509   0.87291   0.00000  Uiso   1.00
O1915  O     0.54508   0.70491   0.79375   0.00000  Uiso   1.00
O1916  O     0.95491   0.70491   0.79375   0.00000  Uiso   1.00
O1917  O     0.54508   0.79509   0.87291   0.00000  Uiso   1.00
O1918  O     0.54508   0.79509   0.79375   0.00000  Uiso   1.00
O1919  O     0.95491   0.70491   0.87291   0.00000  Uiso   1.00
O1920  O     0.79508   0.95491   0.87291   0.00000  Uiso   1.00
loop_
_geom_bond_atom_site_label_1
_geom_bond_atom_site_label_2
_geom_bond_distance
_geom_bond_site_symmetry_2
_ccdc_geom_bond_type
C1     O145    1.308   .     A
C1     O155    1.308   .     A
C1     C30     1.483   .     S
C2     C37     1.523   .     S
C2     C643    1.431   .     S
C2     N141    1.382   .     S
C3     C38     1.523   .     S
C3     C1282   1.431   1_554 S
C3     N142    1.382   .     S
C4     C39     1.523   .     S
C4     N141    1.382   .     A
C4     C704    1.431   .     S
C5     N464    1.382   .     A
C5     C40     1.523   .     S
C5     C1288   1.431   1_554 S
C6     C41     1.523   .     S
C6     C647    1.431   .     S
C6     N143    1.382   .     S
C7     C42     1.523   .     S
C7     C1286   1.431   1_554 S
C7     N144    1.382   .     S
C8     C43     1.523   .     S
C8     N463    1.382   .     A
C8     C645    1.431   .     S
C9     C20     1.400   .     A
C9     C44     1.515   .     S
C9     C28     1.414   .     A
C10    C27     1.414   .     A
C10    C46     1.515   .     S
C10    C21     1.400   .     A
C11    C18     1.400   .     A
C11    C47     1.515   .     S
C11    C27     1.414   .     A
C12    C29     1.483   .     S
C12    O153    1.308   .     A
C12    O154    1.308   .     A
C13    C28     1.414   .     A
C13    C19     1.400   .     A
C13    C48     1.515   .     S
C14    C49     1.515   .     S
C14    C30     1.414   .     A
C14    C25     1.400   .     A
C15    C50     1.515   .     S
C15    C29     1.414   .     A
C15    C26     1.400   .     A
C16    C51     1.515   .     S
C16    C29     1.414   .     A
C16    C22     1.400   .     A
C17    C30     1.414   .     A
C17    C52     1.515   .     S
C17    C24     1.400   .     A
C18    C53     1.515   .     S
C18    C32     1.414   .     A
C19    C31     1.414   .     A
C19    C54     1.515   .     S
C20    C55     1.515   .     S
C20    C31     1.414   .     A
C21    C32     1.414   .     A
C21    C57     1.515   .     S
C22    C35     1.414   .     A
C22    C58     1.515   .     S
C23    O156    1.308   .     A
C23    C28     1.483   .     S
C23    O159    1.308   .     A
C24    C59     1.515   .     S
C24    C33     1.414   .     A
C25    C60     1.515   .     S
C25    C33     1.414   .     A
C26    C61     1.515   .     S
C26    C35     1.414   .     A
C27    C34     1.483   .     S
C31    C63     1.483   .     S
C32    C62     1.483   .     S
C33    C56     1.483   .     S
C34    O158    1.308   .     A
C34    O157    1.308   .     A
C35    C45     1.483   .     S
C36    H69     1.083   .     S
C36    H91     1.105   .     S
C36    C64     1.523   .     S
C36    H240    1.105   1_455 S
C37    H102    1.083   .     S
C37    H273    1.105   1_455 S
C37    H124    1.105   .     S
C38    H300    1.105   1_455 S
C38    H135    1.083   .     S
C38    H139    1.105   .     S
C39    H70     1.083   .     S
C39    H71     1.105   .     S
C39    H232    1.105   1_455 S
C40    H73     1.083   .     S
C40    H75     1.105   .     S
C40    H74     1.105   .     S
C41    H78     1.105   .     S
C41    H77     1.105   .     S
C41    H76     1.083   .     S
C42    H82     1.105   .     S
C42    H79     1.083   .     S
C42    H81     1.105   .     S
C43    H84     1.105   .     S
C43    H83     1.083   .     S
C43    H85     1.105   .     S
C44    H86     1.105   .     S
C44    H87     1.104   .     S
C44    H88     1.111   .     S
C45    O148    1.308   .     A
C45    O160    1.308   .     A
C46    H89     1.105   .     S
C46    H90     1.111   .     S
C46    H92     1.104   .     S
C47    H93     1.105   .     S
C47    H94     1.104   .     S
C47    H95     1.111   .     S
C48    H97     1.111   .     S
C48    H96     1.105   .     S
C48    H98     1.104   .     S
C49    H99     1.105   .     S
C49    H100    1.104   .     S
C49    H101    1.111   .     S
C50    H104    1.111   .     S
C50    H105    1.104   .     S
C50    H103    1.105   .     S
C51    H108    1.111   .     S
C51    H106    1.105   .     S
C51    H107    1.104   .     S
C52    H111    1.104   .     S
C52    H110    1.111   .     S
C52    H109    1.105   .     S
C53    H114    1.104   .     S
C53    H112    1.105   .     S
C53    H115    1.111   .     S
C54    H116    1.105   .     S
C54    H118    1.104   .     S
C54    H117    1.111   .     S
C55    H121    1.111   .     S
C55    H119    1.105   .     S
C55    H120    1.104   .     S
C56    O147    1.308   .     A
C56    O146    1.308   .     A
C57    H125    1.104   .     S
C57    H122    1.105   .     S
C57    H123    1.111   .     S
C58    H128    1.111   .     S
C58    H126    1.105   .     S
C58    H127    1.104   .     S
C59    H130    1.111   .     S
C59    H131    1.104   .     S
C59    H129    1.105   .     S
C60    H132    1.105   .     S
C60    H134    1.111   .     S
C60    H133    1.104   .     S
C61    H138    1.104   .     S
C61    H136    1.105   .     S
C61    H137    1.111   .     S
C62    O149    1.308   .     A
C62    O152    1.308   .     A
C63    O150    1.308   .     A
C63    O151    1.308   .     A
C64    N142    1.382   .     A
C64    C1284   1.431   1_554 S
Cu65   O157    1.972   .     S
Cu65   N141    2.034   .     S
Cu65   O145    1.972   .     S
Cu65   Cu66    2.707   .     S
Cu65   O314    1.972   1_455 S
Cu65   O319    1.972   1_455 S
Cu66   N142    2.034   .     S
Cu66   O158    1.972   .     S
Cu66   O155    1.972   .     S
Cu66   O313    1.972   1_455 S
Cu66   O316    1.972   1_455 S
Cu67   O480    1.972   1_545 S
Cu67   N143    2.034   .     S
Cu67   O472    1.972   1_545 S
Cu67   Cu68    2.707   .     S
Cu67   O147    1.972   .     S
Cu67   O150    1.972   .     S
Cu68   O146    1.972   .     S
Cu68   O151    1.972   .     S
Cu68   N144    2.034   .     S
Cu68   O468    1.972   1_545 S
Cu68   O469    1.972   1_545 S
H72    C199    1.105   .     S
H80    C196    1.105   .     S
H113   C197    1.105   .     S
H140   C198    1.105   .     S
N143   C328    1.382   1_545 A
N144   C325    1.382   1_545 A
O148   Cu388   1.972   .     S
O149   Cu388   1.972   .     S
O152   Cu387   1.972   .     S
O153   Cu226   1.972   .     S
O154   Cu225   1.972   .     S
O156   Cu226   1.972   .     S
O159   Cu225   1.972   .     S
O160   Cu387   1.972   .     S
C161   O305    1.308   .     A
C161   O315    1.308   .     A
C161   C190    1.483   .     S
C162   C197    1.523   .     S
C162   C803    1.431   .     S
C162   N301    1.382   .     S
C163   C198    1.523   .     S
C163   C1442   1.431   1_554 S
C163   N302    1.382   .     S
C164   C199    1.523   .     S
C164   N301    1.382   .     A
C164   C864    1.431   .     S
C165   N624    1.382   .     A
C165   C200    1.523   .     S
C165   C1448   1.431   1_554 S
C166   C201    1.523   .     S
C166   C807    1.431   .     S
C166   N303    1.382   .     S
C167   C202    1.523   .     S
C167   C1446   1.431   1_554 S
C167   N304    1.382   .     S
C168   C203    1.523   .     S
C168   N623    1.382   .     A
C168   C805    1.431   .     S
C169   C180    1.400   .     A
C169   C204    1.515   .     S
C169   C188    1.414   .     A
C170   C187    1.414   .     A
C170   C206    1.515   .     S
C170   C181    1.400   .     A
C171   C178    1.400   .     A
C171   C207    1.515   .     S
C171   C187    1.414   .     A
C172   C189    1.483   .     S
C172   O313    1.308   .     A
C172   O314    1.308   .     A
C173   C188    1.414   .     A
C173   C179    1.400   .     A
C173   C208    1.515   .     S
C174   C209    1.515   .     S
C174   C190    1.414   .     A
C174   C185    1.400   .     A
C175   C210    1.515   .     S
C175   C189    1.414   .     A
C175   C186    1.400   .     A
C176   C211    1.515   .     S
C176   C189    1.414   .     A
C176   C182    1.400   .     A
C177   C190    1.414   .     A
C177   C212    1.515   .     S
C177   C184    1.400   .     A
C178   C213    1.515   .     S
C178   C192    1.414   .     A
C179   C191    1.414   .     A
C179   C214    1.515   .     S
C180   C215    1.515   .     S
C180   C191    1.414   .     A
C181   C192    1.414   .     A
C181   C217    1.515   .     S
C182   C195    1.414   .     A
C182   C218    1.515   .     S
C183   O316    1.308   .     A
C183   C188    1.483   .     S
C183   O319    1.308   .     A
C184   C219    1.515   .     S
C184   C193    1.414   .     A
C185   C220    1.515   .     S
C185   C193    1.414   .     A
C186   C221    1.515   .     S
C186   C195    1.414   .     A
C187   C194    1.483   .     S
C191   C223    1.483   .     S
C192   C222    1.483   .     S
C193   C216    1.483   .     S
C194   O318    1.308   .     A
C194   O317    1.308   .     A
C195   C205    1.483   .     S
C196   H229    1.083   .     S
C196   H251    1.105   .     S
C196   C224    1.523   .     S
C197   H262    1.083   .     S
C197   H284    1.105   .     S
C198   H295    1.083   .     S
C198   H299    1.105   .     S
C199   H230    1.083   .     S
C199   H231    1.105   .     S
C200   H233    1.083   .     S
C200   H235    1.105   .     S
C200   H234    1.105   .     S
C201   H238    1.105   .     S
C201   H237    1.105   .     S
C201   H236    1.083   .     S
C202   H242    1.105   .     S
C202   H239    1.083   .     S
C202   H241    1.105   .     S
C203   H244    1.105   .     S
C203   H243    1.083   .     S
C203   H245    1.105   .     S
C204   H246    1.105   .     S
C204   H247    1.104   .     S
C204   H248    1.111   .     S
C205   O308    1.308   .     A
C205   O320    1.308   .     A
C206   H249    1.105   .     S
C206   H250    1.111   .     S
C206   H252    1.104   .     S
C207   H253    1.105   .     S
C207   H254    1.104   .     S
C207   H255    1.111   .     S
C208   H257    1.111   .     S
C208   H256    1.105   .     S
C208   H258    1.104   .     S
C209   H259    1.105   .     S
C209   H260    1.104   .     S
C209   H261    1.111   .     S
C210   H264    1.111   .     S
C210   H265    1.104   .     S
C210   H263    1.105   .     S
C211   H268    1.111   .     S
C211   H266    1.105   .     S
C211   H267    1.104   .     S
C212   H271    1.104   .     S
C212   H270    1.111   .     S
C212   H269    1.105   .     S
C213   H274    1.104   .     S
C213   H272    1.105   .     S
C213   H275    1.111   .     S
C214   H276    1.105   .     S
C214   H278    1.104   .     S
C214   H277    1.111   .     S
C215   H281    1.111   .     S
C215   H279    1.105   .     S
C215   H280    1.104   .     S
C216   O307    1.308   .     A
C216   O306    1.308   .     A
C217   H285    1.104   .     S
C217   H282    1.105   .     S
C217   H283    1.111   .     S
C218   H288    1.111   .     S
C218   H286    1.105   .     S
C218   H287    1.104   .     S
C219   H290    1.111   .     S
C219   H291    1.104   .     S
C219   H289    1.105   .     S
C220   H292    1.105   .     S
C220   H294    1.111   .     S
C220   H293    1.104   .     S
C221   H298    1.104   .     S
C221   H296    1.105   .     S
C221   H297    1.111   .     S
C222   O309    1.308   .     A
C222   O312    1.308   .     A
C223   O310    1.308   .     A
C223   O311    1.308   .     A
C224   N302    1.382   .     A
C224   C1444   1.431   1_554 S
Cu225  O317    1.972   .     S
Cu225  N301    2.034   .     S
Cu225  O305    1.972   .     S
Cu225  Cu226   2.707   .     S
Cu226  N302    2.034   .     S
Cu226  O318    1.972   .     S
Cu226  O315    1.972   .     S
Cu227  O640    1.972   1_545 S
Cu227  N303    2.034   .     S
Cu227  O632    1.972   1_545 S
Cu227  Cu228   2.707   .     S
Cu227  O307    1.972   .     S
Cu227  O310    1.972   .     S
Cu228  O306    1.972   .     S
Cu228  O311    1.972   .     S
Cu228  N304    2.034   .     S
Cu228  O628    1.972   1_545 S
Cu228  O629    1.972   1_545 S
H232   C39     1.105   1_655 S
H240   C36     1.105   1_655 S
H273   C37     1.105   1_655 S
H300   C38     1.105   1_655 S
N303   C488    1.382   1_545 A
N304   C485    1.382   1_545 A
O308   Cu548   1.972   .     S
O309   Cu548   1.972   .     S
O312   Cu547   1.972   .     S
O313   Cu66    1.972   1_655 S
O314   Cu65    1.972   1_655 S
O316   Cu66    1.972   1_655 S
O319   Cu65    1.972   1_655 S
O320   Cu547   1.972   .     S
C321   O465    1.308   .     A
C321   O475    1.308   .     A
C321   C350    1.483   .     S
C322   C357    1.523   .     S
C322   C963    1.431   .     S
C322   N461    1.382   .     S
C323   C358    1.523   .     S
C323   C1602   1.431   1_554 S
C323   N462    1.382   .     S
C324   C359    1.523   .     S
C324   N461    1.382   .     A
C324   C1024   1.431   .     S
C325   N144    1.382   1_565 A
C325   C360    1.523   .     S
C325   C1608   1.431   1_554 S
C326   C361    1.523   .     S
C326   C967    1.431   .     S
C326   N463    1.382   .     S
C327   C362    1.523   .     S
C327   C1606   1.431   1_554 S
C327   N464    1.382   .     S
C328   C363    1.523   .     S
C328   N143    1.382   1_565 A
C328   C965    1.431   .     S
C329   C340    1.400   .     A
C329   C364    1.515   .     S
C329   C348    1.414   .     A
C330   C347    1.414   .     A
C330   C366    1.515   .     S
C330   C341    1.400   .     A
C331   C338    1.400   .     A
C331   C367    1.515   .     S
C331   C347    1.414   .     A
C332   C349    1.483   .     S
C332   O473    1.308   .     A
C332   O474    1.308   .     A
C333   C348    1.414   .     A
C333   C339    1.400   .     A
C333   C368    1.515   .     S
C334   C369    1.515   .     S
C334   C350    1.414   .     A
C334   C345    1.400   .     A
C335   C370    1.515   .     S
C335   C349    1.414   .     A
C335   C346    1.400   .     A
C336   C371    1.515   .     S
C336   C349    1.414   .     A
C336   C342    1.400   .     A
C337   C350    1.414   .     A
C337   C372    1.515   .     S
C337   C344    1.400   .     A
C338   C373    1.515   .     S
C338   C352    1.414   .     A
C339   C351    1.414   .     A
C339   C374    1.515   .     S
C340   C375    1.515   .     S
C340   C351    1.414   .     A
C341   C352    1.414   .     A
C341   C377    1.515   .     S
C342   C355    1.414   .     A
C342   C378    1.515   .     S
C343   O476    1.308   .     A
C343   C348    1.483   .     S
C343   O479    1.308   .     A
C344   C379    1.515   .     S
C344   C353    1.414   .     A
C345   C380    1.515   .     S
C345   C353    1.414   .     A
C346   C381    1.515   .     S
C346   C355    1.414   .     A
C347   C354    1.483   .     S
C351   C383    1.483   .     S
C352   C382    1.483   .     S
C353   C376    1.483   .     S
C354   O478    1.308   .     A
C354   O477    1.308   .     A
C355   C365    1.483   .     S
C356   H389    1.083   .     S
C356   H411    1.105   .     S
C356   C384    1.523   .     S
C356   H560    1.105   1_455 S
C357   H422    1.083   .     S
C357   H593    1.105   1_455 S
C357   H444    1.105   .     S
C358   H620    1.105   1_455 S
C358   H455    1.083   .     S
C358   H459    1.105   .     S
C359   H390    1.083   .     S
C359   H391    1.105   .     S
C359   H552    1.105   1_455 S
C360   H393    1.083   .     S
C360   H395    1.105   .     S
C360   H394    1.105   .     S
C361   H398    1.105   .     S
C361   H397    1.105   .     S
C361   H396    1.083   .     S
C362   H402    1.105   .     S
C362   H399    1.083   .     S
C362   H401    1.105   .     S
C363   H404    1.105   .     S
C363   H403    1.083   .     S
C363   H405    1.105   .     S
C364   H406    1.105   .     S
C364   H407    1.104   .     S
C364   H408    1.111   .     S
C365   O468    1.308   .     A
C365   O480    1.308   .     A
C366   H409    1.105   .     S
C366   H410    1.111   .     S
C366   H412    1.104   .     S
C367   H413    1.105   .     S
C367   H414    1.104   .     S
C367   H415    1.111   .     S
C368   H417    1.111   .     S
C368   H416    1.105   .     S
C368   H418    1.104   .     S
C369   H419    1.105   .     S
C369   H420    1.104   .     S
C369   H421    1.111   .     S
C370   H424    1.111   .     S
C370   H425    1.104   .     S
C370   H423    1.105   .     S
C371   H428    1.111   .     S
C371   H426    1.105   .     S
C371   H427    1.104   .     S
C372   H431    1.104   .     S
C372   H430    1.111   .     S
C372   H429    1.105   .     S
C373   H434    1.104   .     S
C373   H432    1.105   .     S
C373   H435    1.111   .     S
C374   H436    1.105   .     S
C374   H438    1.104   .     S
C374   H437    1.111   .     S
C375   H441    1.111   .     S
C375   H439    1.105   .     S
C375   H440    1.104   .     S
C376   O467    1.308   .     A
C376   O466    1.308   .     A
C377   H445    1.104   .     S
C377   H442    1.105   .     S
C377   H443    1.111   .     S
C378   H448    1.111   .     S
C378   H446    1.105   .     S
C378   H447    1.104   .     S
C379   H450    1.111   .     S
C379   H451    1.104   .     S
C379   H449    1.105   .     S
C380   H452    1.105   .     S
C380   H454    1.111   .     S
C380   H453    1.104   .     S
C381   H458    1.104   .     S
C381   H456    1.105   .     S
C381   H457    1.111   .     S
C382   O469    1.308   .     A
C382   O472    1.308   .     A
C383   O470    1.308   .     A
C383   O471    1.308   .     A
C384   N462    1.382   .     A
C384   C1604   1.431   1_554 S
Cu385  O477    1.972   .     S
Cu385  N461    2.034   .     S
Cu385  O465    1.972   .     S
Cu385  Cu386   2.707   .     S
Cu385  O634    1.972   1_455 S
Cu385  O639    1.972   1_455 S
Cu386  N462    2.034   .     S
Cu386  O478    1.972   .     S
Cu386  O475    1.972   .     S
Cu386  O633    1.972   1_455 S
Cu386  O636    1.972   1_455 S
Cu387  N463    2.034   .     S
Cu387  Cu388   2.707   .     S
Cu387  O467    1.972   .     S
Cu387  O470    1.972   .     S
Cu388  O466    1.972   .     S
Cu388  O471    1.972   .     S
Cu388  N464    2.034   .     S
H392   C519    1.105   .     S
H400   C516    1.105   .     S
H433   C517    1.105   .     S
H460   C518    1.105   .     S
O468   Cu68    1.972   1_565 S
O469   Cu68    1.972   1_565 S
O472   Cu67    1.972   1_565 S
O473   Cu546   1.972   .     S
O474   Cu545   1.972   .     S
O476   Cu546   1.972   .     S
O479   Cu545   1.972   .     S
O480   Cu67    1.972   1_565 S
C481   O625    1.308   .     A
C481   O635    1.308   .     A
C481   C510    1.483   .     S
C482   C517    1.523   .     S
C482   C1123   1.431   .     S
C482   N621    1.382   .     S
C483   C518    1.523   .     S
C483   C1762   1.431   1_554 S
C483   N622    1.382   .     S
C484   C519    1.523   .     S
C484   N621    1.382   .     A
C484   C1184   1.431   .     S
C485   N304    1.382   1_565 A
C485   C520    1.523   .     S
C485   C1768   1.431   1_554 S
C486   C521    1.523   .     S
C486   C1127   1.431   .     S
C486   N623    1.382   .     S
C487   C522    1.523   .     S
C487   C1766   1.431   1_554 S
C487   N624    1.382   .     S
C488   C523    1.523   .     S
C488   N303    1.382   1_565 A
C488   C1125   1.431   .     S
C489   C500    1.400   .     A
C489   C524    1.515   .     S
C489   C508    1.414   .     A
C490   C507    1.414   .     A
C490   C526    1.515   .     S
C490   C501    1.400   .     A
C491   C498    1.400   .     A
C491   C527    1.515   .     S
C491   C507    1.414   .     A
C492   C509    1.483   .     S
C492   O633    1.308   .     A
C492   O634    1.308   .     A
C493   C508    1.414   .     A
C493   C499    1.400   .     A
C493   C528    1.515   .     S
C494   C529    1.515   .     S
C494   C510    1.414   .     A
C494   C505    1.400   .     A
C495   C530    1.515   .     S
C495   C509    1.414   .     A
C495   C506    1.400   .     A
C496   C531    1.515   .     S
C496   C509    1.414   .     A
C496   C502    1.400   .     A
C497   C510    1.414   .     A
C497   C532    1.515   .     S
C497   C504    1.400   .     A
C498   C533    1.515   .     S
C498   C512    1.414   .     A
C499   C511    1.414   .     A
C499   C534    1.515   .     S
C500   C535    1.515   .     S
C500   C511    1.414   .     A
C501   C512    1.414   .     A
C501   C537    1.515   .     S
C502   C515    1.414   .     A
C502   C538    1.515   .     S
C503   O636    1.308   .     A
C503   C508    1.483   .     S
C503   O639    1.308   .     A
C504   C539    1.515   .     S
C504   C513    1.414   .     A
C505   C540    1.515   .     S
C505   C513    1.414   .     A
C506   C541    1.515   .     S
C506   C515    1.414   .     A
C507   C514    1.483   .     S
C511   C543    1.483   .     S
C512   C542    1.483   .     S
C513   C536    1.483   .     S
C514   O638    1.308   .     A
C514   O637    1.308   .     A
C515   C525    1.483   .     S
C516   H549    1.083   .     S
C516   H571    1.105   .     S
C516   C544    1.523   .     S
C517   H582    1.083   .     S
C517   H604    1.105   .     S
C518   H615    1.083   .     S
C518   H619    1.105   .     S
C519   H550    1.083   .     S
C519   H551    1.105   .     S
C520   H553    1.083   .     S
C520   H555    1.105   .     S
C520   H554    1.105   .     S
C521   H558    1.105   .     S
C521   H557    1.105   .     S
C521   H556    1.083   .     S
C522   H562    1.105   .     S
C522   H559    1.083   .     S
C522   H561    1.105   .     S
C523   H564    1.105   .     S
C523   H563    1.083   .     S
C523   H565    1.105   .     S
C524   H566    1.105   .     S
C524   H567    1.104   .     S
C524   H568    1.111   .     S
C525   O628    1.308   .     A
C525   O640    1.308   .     A
C526   H569    1.105   .     S
C526   H570    1.111   .     S
C526   H572    1.104   .     S
C527   H573    1.105   .     S
C527   H574    1.104   .     S
C527   H575    1.111   .     S
C528   H577    1.111   .     S
C528   H576    1.105   .     S
C528   H578    1.104   .     S
C529   H579    1.105   .     S
C529   H580    1.104   .     S
C529   H581    1.111   .     S
C530   H584    1.111   .     S
C530   H585    1.104   .     S
C530   H583    1.105   .     S
C531   H588    1.111   .     S
C531   H586    1.105   .     S
C531   H587    1.104   .     S
C532   H591    1.104   .     S
C532   H590    1.111   .     S
C532   H589    1.105   .     S
C533   H594    1.104   .     S
C533   H592    1.105   .     S
C533   H595    1.111   .     S
C534   H596    1.105   .     S
C534   H598    1.104   .     S
C534   H597    1.111   .     S
C535   H601    1.111   .     S
C535   H599    1.105   .     S
C535   H600    1.104   .     S
C536   O627    1.308   .     A
C536   O626    1.308   .     A
C537   H605    1.104   .     S
C537   H602    1.105   .     S
C537   H603    1.111   .     S
C538   H608    1.111   .     S
C538   H606    1.105   .     S
C538   H607    1.104   .     S
C539   H610    1.111   .     S
C539   H611    1.104   .     S
C539   H609    1.105   .     S
C540   H612    1.105   .     S
C540   H614    1.111   .     S
C540   H613    1.104   .     S
C541   H618    1.104   .     S
C541   H616    1.105   .     S
C541   H617    1.111   .     S
C542   O629    1.308   .     A
C542   O632    1.308   .     A
C543   O630    1.308   .     A
C543   O631    1.308   .     A
C544   N622    1.382   .     A
C544   C1764   1.431   1_554 S
Cu545  O637    1.972   .     S
Cu545  N621    2.034   .     S
Cu545  O625    1.972   .     S
Cu545  Cu546   2.707   .     S
Cu546  N622    2.034   .     S
Cu546  O638    1.972   .     S
Cu546  O635    1.972   .     S
Cu547  N623    2.034   .     S
Cu547  Cu548   2.707   .     S
Cu547  O627    1.972   .     S
Cu547  O630    1.972   .     S
Cu548  O626    1.972   .     S
Cu548  O631    1.972   .     S
Cu548  N624    2.034   .     S
H552   C359    1.105   1_655 S
H560   C356    1.105   1_655 S
H593   C357    1.105   1_655 S
H620   C358    1.105   1_655 S
O628   Cu228   1.972   1_565 S
O629   Cu228   1.972   1_565 S
O632   Cu227   1.972   1_565 S
O633   Cu386   1.972   1_655 S
O634   Cu385   1.972   1_655 S
O636   Cu386   1.972   1_655 S
O639   Cu385   1.972   1_655 S
O640   Cu227   1.972   1_565 S
C641   O785    1.308   .     A
C641   O795    1.308   .     A
C641   C670    1.483   .     S
C642   C677    1.523   .     S
C642   C1283   1.431   .     S
C642   N781    1.382   .     S
C643   C678    1.523   .     S
C643   N782    1.382   .     S
C644   C679    1.523   .     S
C644   N781    1.382   .     A
C644   C1344   1.431   .     S
C645   N1104   1.382   .     A
C645   C680    1.523   .     S
C646   C681    1.523   .     S
C646   C1287   1.431   .     S
C646   N783    1.382   .     S
C647   C682    1.523   .     S
C647   N784    1.382   .     S
C648   C683    1.523   .     S
C648   N1103   1.382   .     A
C648   C1285   1.431   .     S
C649   C660    1.400   .     A
C649   C684    1.515   .     S
C649   C668    1.414   .     A
C650   C667    1.414   .     A
C650   C686    1.515   .     S
C650   C661    1.400   .     A
C651   C658    1.400   .     A
C651   C687    1.515   .     S
C651   C667    1.414   .     A
C652   C669    1.483   .     S
C652   O793    1.308   .     A
C652   O794    1.308   .     A
C653   C668    1.414   .     A
C653   C659    1.400   .     A
C653   C688    1.515   .     S
C654   C689    1.515   .     S
C654   C670    1.414   .     A
C654   C665    1.400   .     A
C655   C690    1.515   .     S
C655   C669    1.414   .     A
C655   C666    1.400   .     A
C656   C691    1.515   .     S
C656   C669    1.414   .     A
C656   C662    1.400   .     A
C657   C670    1.414   .     A
C657   C692    1.515   .     S
C657   C664    1.400   .     A
C658   C693    1.515   .     S
C658   C672    1.414   .     A
C659   C671    1.414   .     A
C659   C694    1.515   .     S
C660   C695    1.515   .     S
C660   C671    1.414   .     A
C661   C672    1.414   .     A
C661   C697    1.515   .     S
C662   C675    1.414   .     A
C662   C698    1.515   .     S
C663   O796    1.308   .     A
C663   C668    1.483   .     S
C663   O799    1.308   .     A
C664   C699    1.515   .     S
C664   C673    1.414   .     A
C665   C700    1.515   .     S
C665   C673    1.414   .     A
C666   C701    1.515   .     S
C666   C675    1.414   .     A
C667   C674    1.483   .     S
C671   C703    1.483   .     S
C672   C702    1.483   .     S
C673   C696    1.483   .     S
C674   O798    1.308   .     A
C674   O797    1.308   .     A
C675   C685    1.483   .     S
C676   H709    1.083   .     S
C676   H731    1.105   .     S
C676   C704    1.523   .     S
C676   H880    1.105   1_455 S
C677   H742    1.083   .     S
C677   H913    1.105   1_455 S
C677   H764    1.105   .     S
C678   H940    1.105   1_455 S
C678   H775    1.083   .     S
C678   H779    1.105   .     S
C679   H710    1.083   .     S
C679   H711    1.105   .     S
C679   H872    1.105   1_455 S
C680   H713    1.083   .     S
C680   H715    1.105   .     S
C680   H714    1.105   .     S
C681   H718    1.105   .     S
C681   H717    1.105   .     S
C681   H716    1.083   .     S
C682   H722    1.105   .     S
C682   H719    1.083   .     S
C682   H721    1.105   .     S
C683   H724    1.105   .     S
C683   H723    1.083   .     S
C683   H725    1.105   .     S
C684   H726    1.105   .     S
C684   H727    1.104   .     S
C684   H728    1.111   .     S
C685   O788    1.308   .     A
C685   O800    1.308   .     A
C686   H729    1.105   .     S
C686   H730    1.111   .     S
C686   H732    1.104   .     S
C687   H733    1.105   .     S
C687   H734    1.104   .     S
C687   H735    1.111   .     S
C688   H737    1.111   .     S
C688   H736    1.105   .     S
C688   H738    1.104   .     S
C689   H739    1.105   .     S
C689   H740    1.104   .     S
C689   H741    1.111   .     S
C690   H744    1.111   .     S
C690   H745    1.104   .     S
C690   H743    1.105   .     S
C691   H748    1.111   .     S
C691   H746    1.105   .     S
C691   H747    1.104   .     S
C692   H751    1.104   .     S
C692   H750    1.111   .     S
C692   H749    1.105   .     S
C693   H754    1.104   .     S
C693   H752    1.105   .     S
C693   H755    1.111   .     S
C694   H756    1.105   .     S
C694   H758    1.104   .     S
C694   H757    1.111   .     S
C695   H761    1.111   .     S
C695   H759    1.105   .     S
C695   H760    1.104   .     S
C696   O787    1.308   .     A
C696   O786    1.308   .     A
C697   H765    1.104   .     S
C697   H762    1.105   .     S
C697   H763    1.111   .     S
C698   H768    1.111   .     S
C698   H766    1.105   .     S
C698   H767    1.104   .     S
C699   H770    1.111   .     S
C699   H771    1.104   .     S
C699   H769    1.105   .     S
C700   H772    1.105   .     S
C700   H774    1.111   .     S
C700   H773    1.104   .     S
C701   H778    1.104   .     S
C701   H776    1.105   .     S
C701   H777    1.111   .     S
C702   O789    1.308   .     A
C702   O792    1.308   .     A
C703   O790    1.308   .     A
C703   O791    1.308   .     A
C704   N782    1.382   .     A
Cu705  O797    1.972   .     S
Cu705  N781    2.034   .     S
Cu705  O785    1.972   .     S
Cu705  Cu706   2.707   .     S
Cu705  O954    1.972   1_455 S
Cu705  O959    1.972   1_455 S
Cu706  N782    2.034   .     S
Cu706  O798    1.972   .     S
Cu706  O795    1.972   .     S
Cu706  O953    1.972   1_455 S
Cu706  O956    1.972   1_455 S
Cu707  O1120   1.972   1_545 S
Cu707  N783    2.034   .     S
Cu707  O1112   1.972   1_545 S
Cu707  Cu708   2.707   .     S
Cu707  O787    1.972   .     S
Cu707  O790    1.972   .     S
Cu708  O786    1.972   .     S
Cu708  O791    1.972   .     S
Cu708  N784    2.034   .     S
Cu708  O1108   1.972   1_545 S
Cu708  O1109   1.972   1_545 S
H712   C839    1.105   .     S
H720   C836    1.105   .     S
H753   C837    1.105   .     S
H780   C838    1.105   .     S
N783   C968    1.382   1_545 A
N784   C965    1.382   1_545 A
O788   Cu1028  1.972   .     S
O789   Cu1028  1.972   .     S
O792   Cu1027  1.972   .     S
O793   Cu866   1.972   .     S
O794   Cu865   1.972   .     S
O796   Cu866   1.972   .     S
O799   Cu865   1.972   .     S
O800   Cu1027  1.972   .     S
C801   O945    1.308   .     A
C801   O955    1.308   .     A
C801   C830    1.483   .     S
C802   C837    1.523   .     S
C802   C1443   1.431   .     S
C802   N941    1.382   .     S
C803   C838    1.523   .     S
C803   N942    1.382   .     S
C804   C839    1.523   .     S
C804   N941    1.382   .     A
C804   C1504   1.431   .     S
C805   N1264   1.382   .     A
C805   C840    1.523   .     S
C806   C841    1.523   .     S
C806   C1447   1.431   .     S
C806   N943    1.382   .     S
C807   C842    1.523   .     S
C807   N944    1.382   .     S
C808   C843    1.523   .     S
C808   N1263   1.382   .     A
C808   C1445   1.431   .     S
C809   C820    1.400   .     A
C809   C844    1.515   .     S
C809   C828    1.414   .     A
C810   C827    1.414   .     A
C810   C846    1.515   .     S
C810   C821    1.400   .     A
C811   C818    1.400   .     A
C811   C847    1.515   .     S
C811   C827    1.414   .     A
C812   C829    1.483   .     S
C812   O953    1.308   .     A
C812   O954    1.308   .     A
C813   C828    1.414   .     A
C813   C819    1.400   .     A
C813   C848    1.515   .     S
C814   C849    1.515   .     S
C814   C830    1.414   .     A
C814   C825    1.400   .     A
C815   C850    1.515   .     S
C815   C829    1.414   .     A
C815   C826    1.400   .     A
C816   C851    1.515   .     S
C816   C829    1.414   .     A
C816   C822    1.400   .     A
C817   C830    1.414   .     A
C817   C852    1.515   .     S
C817   C824    1.400   .     A
C818   C853    1.515   .     S
C818   C832    1.414   .     A
C819   C831    1.414   .     A
C819   C854    1.515   .     S
C820   C855    1.515   .     S
C820   C831    1.414   .     A
C821   C832    1.414   .     A
C821   C857    1.515   .     S
C822   C835    1.414   .     A
C822   C858    1.515   .     S
C823   O956    1.308   .     A
C823   C828    1.483   .     S
C823   O959    1.308   .     A
C824   C859    1.515   .     S
C824   C833    1.414   .     A
C825   C860    1.515   .     S
C825   C833    1.414   .     A
C826   C861    1.515   .     S
C826   C835    1.414   .     A
C827   C834    1.483   .     S
C831   C863    1.483   .     S
C832   C862    1.483   .     S
C833   C856    1.483   .     S
C834   O958    1.308   .     A
C834   O957    1.308   .     A
C835   C845    1.483   .     S
C836   H869    1.083   .     S
C836   H891    1.105   .     S
C836   C864    1.523   .     S
C837   H902    1.083   .     S
C837   H924    1.105   .     S
C838   H935    1.083   .     S
C838   H939    1.105   .     S
C839   H870    1.083   .     S
C839   H871    1.105   .     S
C840   H873    1.083   .     S
C840   H875    1.105   .     S
C840   H874    1.105   .     S
C841   H878    1.105   .     S
C841   H877    1.105   .     S
C841   H876    1.083   .     S
C842   H882    1.105   .     S
C842   H879    1.083   .     S
C842   H881    1.105   .     S
C843   H884    1.105   .     S
C843   H883    1.083   .     S
C843   H885    1.105   .     S
C844   H886    1.105   .     S
C844   H887    1.104   .     S
C844   H888    1.111   .     S
C845   O948    1.308   .     A
C845   O960    1.308   .     A
C846   H889    1.105   .     S
C846   H890    1.111   .     S
C846   H892    1.104   .     S
C847   H893    1.105   .     S
C847   H894    1.104   .     S
C847   H895    1.111   .     S
C848   H897    1.111   .     S
C848   H896    1.105   .     S
C848   H898    1.104   .     S
C849   H899    1.105   .     S
C849   H900    1.104   .     S
C849   H901    1.111   .     S
C850   H904    1.111   .     S
C850   H905    1.104   .     S
C850   H903    1.105   .     S
C851   H908    1.111   .     S
C851   H906    1.105   .     S
C851   H907    1.104   .     S
C852   H911    1.104   .     S
C852   H910    1.111   .     S
C852   H909    1.105   .     S
C853   H914    1.104   .     S
C853   H912    1.105   .     S
C853   H915    1.111   .     S
C854   H916    1.105   .     S
C854   H918    1.104   .     S
C854   H917    1.111   .     S
C855   H921    1.111   .     S
C855   H919    1.105   .     S
C855   H920    1.104   .     S
C856   O947    1.308   .     A
C856   O946    1.308   .     A
C857   H925    1.104   .     S
C857   H922    1.105   .     S
C857   H923    1.111   .     S
C858   H928    1.111   .     S
C858   H926    1.105   .     S
C858   H927    1.104   .     S
C859   H930    1.111   .     S
C859   H931    1.104   .     S
C859   H929    1.105   .     S
C860   H932    1.105   .     S
C860   H934    1.111   .     S
C860   H933    1.104   .     S
C861   H938    1.104   .     S
C861   H936    1.105   .     S
C861   H937    1.111   .     S
C862   O949    1.308   .     A
C862   O952    1.308   .     A
C863   O950    1.308   .     A
C863   O951    1.308   .     A
C864   N942    1.382   .     A
Cu865  O957    1.972   .     S
Cu865  N941    2.034   .     S
Cu865  O945    1.972   .     S
Cu865  Cu866   2.707   .     S
Cu866  N942    2.034   .     S
Cu866  O958    1.972   .     S
Cu866  O955    1.972   .     S
Cu867  O1280   1.972   1_545 S
Cu867  N943    2.034   .     S
Cu867  O1272   1.972   1_545 S
Cu867  Cu868   2.707   .     S
Cu867  O947    1.972   .     S
Cu867  O950    1.972   .     S
Cu868  O946    1.972   .     S
Cu868  O951    1.972   .     S
Cu868  N944    2.034   .     S
Cu868  O1268   1.972   1_545 S
Cu868  O1269   1.972   1_545 S
H872   C679    1.105   1_655 S
H880   C676    1.105   1_655 S
H913   C677    1.105   1_655 S
H940   C678    1.105   1_655 S
N943   C1128   1.382   1_545 A
N944   C1125   1.382   1_545 A
O948   Cu1188  1.972   .     S
O949   Cu1188  1.972   .     S
O952   Cu1187  1.972   .     S
O953   Cu706   1.972   1_655 S
O954   Cu705   1.972   1_655 S
O956   Cu706   1.972   1_655 S
O959   Cu705   1.972   1_655 S
O960   Cu1187  1.972   .     S
C961   O1105   1.308   .     A
C961   O1115   1.308   .     A
C961   C990    1.483   .     S
C962   C997    1.523   .     S
C962   C1603   1.431   .     S
C962   N1101   1.382   .     S
C963   C998    1.523   .     S
C963   N1102   1.382   .     S
C964   C999    1.523   .     S
C964   N1101   1.382   .     A
C964   C1664   1.431   .     S
C965   N784    1.382   1_565 A
C965   C1000   1.523   .     S
C966   C1001   1.523   .     S
C966   C1607   1.431   .     S
C966   N1103   1.382   .     S
C967   C1002   1.523   .     S
C967   N1104   1.382   .     S
C968   C1003   1.523   .     S
C968   N783    1.382   1_565 A
C968   C1605   1.431   .     S
C969   C980    1.400   .     A
C969   C1004   1.515   .     S
C969   C988    1.414   .     A
C970   C987    1.414   .     A
C970   C1006   1.515   .     S
C970   C981    1.400   .     A
C971   C978    1.400   .     A
C971   C1007   1.515   .     S
C971   C987    1.414   .     A
C972   C989    1.483   .     S
C972   O1113   1.308   .     A
C972   O1114   1.308   .     A
C973   C988    1.414   .     A
C973   C979    1.400   .     A
C973   C1008   1.515   .     S
C974   C1009   1.515   .     S
C974   C990    1.414   .     A
C974   C985    1.400   .     A
C975   C1010   1.515   .     S
C975   C989    1.414   .     A
C975   C986    1.400   .     A
C976   C1011   1.515   .     S
C976   C989    1.414   .     A
C976   C982    1.400   .     A
C977   C990    1.414   .     A
C977   C1012   1.515   .     S
C977   C984    1.400   .     A
C978   C1013   1.515   .     S
C978   C992    1.414   .     A
C979   C991    1.414   .     A
C979   C1014   1.515   .     S
C980   C1015   1.515   .     S
C980   C991    1.414   .     A
C981   C992    1.414   .     A
C981   C1017   1.515   .     S
C982   C995    1.414   .     A
C982   C1018   1.515   .     S
C983   O1116   1.308   .     A
C983   C988    1.483   .     S
C983   O1119   1.308   .     A
C984   C1019   1.515   .     S
C984   C993    1.414   .     A
C985   C1020   1.515   .     S
C985   C993    1.414   .     A
C986   C1021   1.515   .     S
C986   C995    1.414   .     A
C987   C994    1.483   .     S
C991   C1023   1.483   .     S
C992   C1022   1.483   .     S
C993   C1016   1.483   .     S
C994   O1118   1.308   .     A
C994   O1117   1.308   .     A
C995   C1005   1.483   .     S
C996   H1029   1.083   .     S
C996   H1051   1.105   .     S
C996   C1024   1.523   .     S
C996   H1200   1.105   1_455 S
C997   H1062   1.083   .     S
C997   H1233   1.105   1_455 S
C997   H1084   1.105   .     S
C998   H1260   1.105   1_455 S
C998   H1095   1.083   .     S
C998   H1099   1.105   .     S
C999   H1030   1.083   .     S
C999   H1031   1.105   .     S
C999   H1192   1.105   1_455 S
C1000  H1033   1.083   .     S
C1000  H1035   1.105   .     S
C1000  H1034   1.105   .     S
C1001  H1038   1.105   .     S
C1001  H1037   1.105   .     S
C1001  H1036   1.083   .     S
C1002  H1042   1.105   .     S
C1002  H1039   1.083   .     S
C1002  H1041   1.105   .     S
C1003  H1044   1.105   .     S
C1003  H1043   1.083   .     S
C1003  H1045   1.105   .     S
C1004  H1046   1.105   .     S
C1004  H1047   1.104   .     S
C1004  H1048   1.111   .     S
C1005  O1108   1.308   .     A
C1005  O1120   1.308   .     A
C1006  H1049   1.105   .     S
C1006  H1050   1.111   .     S
C1006  H1052   1.104   .     S
C1007  H1053   1.105   .     S
C1007  H1054   1.104   .     S
C1007  H1055   1.111   .     S
C1008  H1057   1.111   .     S
C1008  H1056   1.105   .     S
C1008  H1058   1.104   .     S
C1009  H1059   1.105   .     S
C1009  H1060   1.104   .     S
C1009  H1061   1.111   .     S
C1010  H1064   1.111   .     S
C1010  H1065   1.104   .     S
C1010  H1063   1.105   .     S
C1011  H1068   1.111   .     S
C1011  H1066   1.105   .     S
C1011  H1067   1.104   .     S
C1012  H1071   1.104   .     S
C1012  H1070   1.111   .     S
C1012  H1069   1.105   .     S
C1013  H1074   1.104   .     S
C1013  H1072   1.105   .     S
C1013  H1075   1.111   .     S
C1014  H1076   1.105   .     S
C1014  H1078   1.104   .     S
C1014  H1077   1.111   .     S
C1015  H1081   1.111   .     S
C1015  H1079   1.105   .     S
C1015  H1080   1.104   .     S
C1016  O1107   1.308   .     A
C1016  O1106   1.308   .     A
C1017  H1085   1.104   .     S
C1017  H1082   1.105   .     S
C1017  H1083   1.111   .     S
C1018  H1088   1.111   .     S
C1018  H1086   1.105   .     S
C1018  H1087   1.104   .     S
C1019  H1090   1.111   .     S
C1019  H1091   1.104   .     S
C1019  H1089   1.105   .     S
C1020  H1092   1.105   .     S
C1020  H1094   1.111   .     S
C1020  H1093   1.104   .     S
C1021  H1098   1.104   .     S
C1021  H1096   1.105   .     S
C1021  H1097   1.111   .     S
C1022  O1109   1.308   .     A
C1022  O1112   1.308   .     A
C1023  O1110   1.308   .     A
C1023  O1111   1.308   .     A
C1024  N1102   1.382   .     A
Cu1025 O1117   1.972   .     S
Cu1025 N1101   2.034   .     S
Cu1025 O1105   1.972   .     S
Cu1025 Cu1026  2.707   .     S
Cu1025 O1274   1.972   1_455 S
Cu1025 O1279   1.972   1_455 S
Cu1026 N1102   2.034   .     S
Cu1026 O1118   1.972   .     S
Cu1026 O1115   1.972   .     S
Cu1026 O1273   1.972   1_455 S
Cu1026 O1276   1.972   1_455 S
Cu1027 N1103   2.034   .     S
Cu1027 Cu1028  2.707   .     S
Cu1027 O1107   1.972   .     S
Cu1027 O1110   1.972   .     S
Cu1028 O1106   1.972   .     S
Cu1028 O1111   1.972   .     S
Cu1028 N1104   2.034   .     S
H1032  C1159   1.105   .     S
H1040  C1156   1.105   .     S
H1073  C1157   1.105   .     S
H1100  C1158   1.105   .     S
O1108  Cu708   1.972   1_565 S
O1109  Cu708   1.972   1_565 S
O1112  Cu707   1.972   1_565 S
O1113  Cu1186  1.972   .     S
O1114  Cu1185  1.972   .     S
O1116  Cu1186  1.972   .     S
O1119  Cu1185  1.972   .     S
O1120  Cu707   1.972   1_565 S
C1121  O1265   1.308   .     A
C1121  O1275   1.308   .     A
C1121  C1150   1.483   .     S
C1122  C1157   1.523   .     S
C1122  C1763   1.431   .     S
C1122  N1261   1.382   .     S
C1123  C1158   1.523   .     S
C1123  N1262   1.382   .     S
C1124  C1159   1.523   .     S
C1124  N1261   1.382   .     A
C1124  C1824   1.431   .     S
C1125  N944    1.382   1_565 A
C1125  C1160   1.523   .     S
C1126  C1161   1.523   .     S
C1126  C1767   1.431   .     S
C1126  N1263   1.382   .     S
C1127  C1162   1.523   .     S
C1127  N1264   1.382   .     S
C1128  C1163   1.523   .     S
C1128  N943    1.382   1_565 A
C1128  C1765   1.431   .     S
C1129  C1140   1.400   .     A
C1129  C1164   1.515   .     S
C1129  C1148   1.414   .     A
C1130  C1147   1.414   .     A
C1130  C1166   1.515   .     S
C1130  C1141   1.400   .     A
C1131  C1138   1.400   .     A
C1131  C1167   1.515   .     S
C1131  C1147   1.414   .     A
C1132  C1149   1.483   .     S
C1132  O1273   1.308   .     A
C1132  O1274   1.308   .     A
C1133  C1148   1.414   .     A
C1133  C1139   1.400   .     A
C1133  C1168   1.515   .     S
C1134  C1169   1.515   .     S
C1134  C1150   1.414   .     A
C1134  C1145   1.400   .     A
C1135  C1170   1.515   .     S
C1135  C1149   1.414   .     A
C1135  C1146   1.400   .     A
C1136  C1171   1.515   .     S
C1136  C1149   1.414   .     A
C1136  C1142   1.400   .     A
C1137  C1150   1.414   .     A
C1137  C1172   1.515   .     S
C1137  C1144   1.400   .     A
C1138  C1173   1.515   .     S
C1138  C1152   1.414   .     A
C1139  C1151   1.414   .     A
C1139  C1174   1.515   .     S
C1140  C1175   1.515   .     S
C1140  C1151   1.414   .     A
C1141  C1152   1.414   .     A
C1141  C1177   1.515   .     S
C1142  C1155   1.414   .     A
C1142  C1178   1.515   .     S
C1143  O1276   1.308   .     A
C1143  C1148   1.483   .     S
C1143  O1279   1.308   .     A
C1144  C1179   1.515   .     S
C1144  C1153   1.414   .     A
C1145  C1180   1.515   .     S
C1145  C1153   1.414   .     A
C1146  C1181   1.515   .     S
C1146  C1155   1.414   .     A
C1147  C1154   1.483   .     S
C1151  C1183   1.483   .     S
C1152  C1182   1.483   .     S
C1153  C1176   1.483   .     S
C1154  O1278   1.308   .     A
C1154  O1277   1.308   .     A
C1155  C1165   1.483   .     S
C1156  H1189   1.083   .     S
C1156  H1211   1.105   .     S
C1156  C1184   1.523   .     S
C1157  H1222   1.083   .     S
C1157  H1244   1.105   .     S
C1158  H1255   1.083   .     S
C1158  H1259   1.105   .     S
C1159  H1190   1.083   .     S
C1159  H1191   1.105   .     S
C1160  H1193   1.083   .     S
C1160  H1195   1.105   .     S
C1160  H1194   1.105   .     S
C1161  H1198   1.105   .     S
C1161  H1197   1.105   .     S
C1161  H1196   1.083   .     S
C1162  H1202   1.105   .     S
C1162  H1199   1.083   .     S
C1162  H1201   1.105   .     S
C1163  H1204   1.105   .     S
C1163  H1203   1.083   .     S
C1163  H1205   1.105   .     S
C1164  H1206   1.105   .     S
C1164  H1207   1.104   .     S
C1164  H1208   1.111   .     S
C1165  O1268   1.308   .     A
C1165  O1280   1.308   .     A
C1166  H1209   1.105   .     S
C1166  H1210   1.111   .     S
C1166  H1212   1.104   .     S
C1167  H1213   1.105   .     S
C1167  H1214   1.104   .     S
C1167  H1215   1.111   .     S
C1168  H1217   1.111   .     S
C1168  H1216   1.105   .     S
C1168  H1218   1.104   .     S
C1169  H1219   1.105   .     S
C1169  H1220   1.104   .     S
C1169  H1221   1.111   .     S
C1170  H1224   1.111   .     S
C1170  H1225   1.104   .     S
C1170  H1223   1.105   .     S
C1171  H1228   1.111   .     S
C1171  H1226   1.105   .     S
C1171  H1227   1.104   .     S
C1172  H1231   1.104   .     S
C1172  H1230   1.111   .     S
C1172  H1229   1.105   .     S
C1173  H1234   1.104   .     S
C1173  H1232   1.105   .     S
C1173  H1235   1.111   .     S
C1174  H1236   1.105   .     S
C1174  H1238   1.104   .     S
C1174  H1237   1.111   .     S
C1175  H1241   1.111   .     S
C1175  H1239   1.105   .     S
C1175  H1240   1.104   .     S
C1176  O1267   1.308   .     A
C1176  O1266   1.308   .     A
C1177  H1245   1.104   .     S
C1177  H1242   1.105   .     S
C1177  H1243   1.111   .     S
C1178  H1248   1.111   .     S
C1178  H1246   1.105   .     S
C1178  H1247   1.104   .     S
C1179  H1250   1.111   .     S
C1179  H1251   1.104   .     S
C1179  H1249   1.105   .     S
C1180  H1252   1.105   .     S
C1180  H1254   1.111   .     S
C1180  H1253   1.104   .     S
C1181  H1258   1.104   .     S
C1181  H1256   1.105   .     S
C1181  H1257   1.111   .     S
C1182  O1269   1.308   .     A
C1182  O1272   1.308   .     A
C1183  O1270   1.308   .     A
C1183  O1271   1.308   .     A
C1184  N1262   1.382   .     A
Cu1185 O1277   1.972   .     S
Cu1185 N1261   2.034   .     S
Cu1185 O1265   1.972   .     S
Cu1185 Cu1186  2.707   .     S
Cu1186 N1262   2.034   .     S
Cu1186 O1278   1.972   .     S
Cu1186 O1275   1.972   .     S
Cu1187 N1263   2.034   .     S
Cu1187 Cu1188  2.707   .     S
Cu1187 O1267   1.972   .     S
Cu1187 O1270   1.972   .     S
Cu1188 O1266   1.972   .     S
Cu1188 O1271   1.972   .     S
Cu1188 N1264   2.034   .     S
H1192  C999    1.105   1_655 S
H1200  C996    1.105   1_655 S
H1233  C997    1.105   1_655 S
H1260  C998    1.105   1_655 S
O1268  Cu868   1.972   1_565 S
O1269  Cu868   1.972   1_565 S
O1272  Cu867   1.972   1_565 S
O1273  Cu1026  1.972   1_655 S
O1274  Cu1025  1.972   1_655 S
O1276  Cu1026  1.972   1_655 S
O1279  Cu1025  1.972   1_655 S
O1280  Cu867   1.972   1_565 S
C1281  O1425   1.308   .     A
C1281  O1435   1.308   .     A
C1281  C1310   1.483   .     S
C1282  C1317   1.523   .     S
C1282  C3      1.431   1_556 S
C1282  N1421   1.382   .     S
C1283  C1318   1.523   .     S
C1283  N1422   1.382   .     S
C1284  C1319   1.523   .     S
C1284  N1421   1.382   .     A
C1284  C64     1.431   1_556 S
C1285  N1744   1.382   .     A
C1285  C1320   1.523   .     S
C1286  C1321   1.523   .     S
C1286  C7      1.431   1_556 S
C1286  N1423   1.382   .     S
C1287  C1322   1.523   .     S
C1287  N1424   1.382   .     S
C1288  C1323   1.523   .     S
C1288  N1743   1.382   .     A
C1288  C5      1.431   1_556 S
C1289  C1300   1.400   .     A
C1289  C1324   1.515   .     S
C1289  C1308   1.414   .     A
C1290  C1307   1.414   .     A
C1290  C1326   1.515   .     S
C1290  C1301   1.400   .     A
C1291  C1298   1.400   .     A
C1291  C1327   1.515   .     S
C1291  C1307   1.414   .     A
C1292  C1309   1.483   .     S
C1292  O1433   1.308   .     A
C1292  O1434   1.308   .     A
C1293  C1308   1.414   .     A
C1293  C1299   1.400   .     A
C1293  C1328   1.515   .     S
C1294  C1329   1.515   .     S
C1294  C1310   1.414   .     A
C1294  C1305   1.400   .     A
C1295  C1330   1.515   .     S
C1295  C1309   1.414   .     A
C1295  C1306   1.400   .     A
C1296  C1331   1.515   .     S
C1296  C1309   1.414   .     A
C1296  C1302   1.400   .     A
C1297  C1310   1.414   .     A
C1297  C1332   1.515   .     S
C1297  C1304   1.400   .     A
C1298  C1333   1.515   .     S
C1298  C1312   1.414   .     A
C1299  C1311   1.414   .     A
C1299  C1334   1.515   .     S
C1300  C1335   1.515   .     S
C1300  C1311   1.414   .     A
C1301  C1312   1.414   .     A
C1301  C1337   1.515   .     S
C1302  C1315   1.414   .     A
C1302  C1338   1.515   .     S
C1303  O1436   1.308   .     A
C1303  C1308   1.483   .     S
C1303  O1439   1.308   .     A
C1304  C1339   1.515   .     S
C1304  C1313   1.414   .     A
C1305  C1340   1.515   .     S
C1305  C1313   1.414   .     A
C1306  C1341   1.515   .     S
C1306  C1315   1.414   .     A
C1307  C1314   1.483   .     S
C1311  C1343   1.483   .     S
C1312  C1342   1.483   .     S
C1313  C1336   1.483   .     S
C1314  O1438   1.308   .     A
C1314  O1437   1.308   .     A
C1315  C1325   1.483   .     S
C1316  H1349   1.083   .     S
C1316  H1371   1.105   .     S
C1316  C1344   1.523   .     S
C1316  H1520   1.105   1_455 S
C1317  H1382   1.083   .     S
C1317  H1553   1.105   1_455 S
C1317  H1404   1.105   .     S
C1318  H1580   1.105   1_455 S
C1318  H1415   1.083   .     S
C1318  H1419   1.105   .     S
C1319  H1350   1.083   .     S
C1319  H1351   1.105   .     S
C1319  H1512   1.105   1_455 S
C1320  H1353   1.083   .     S
C1320  H1355   1.105   .     S
C1320  H1354   1.105   .     S
C1321  H1358   1.105   .     S
C1321  H1357   1.105   .     S
C1321  H1356   1.083   .     S
C1322  H1362   1.105   .     S
C1322  H1359   1.083   .     S
C1322  H1361   1.105   .     S
C1323  H1364   1.105   .     S
C1323  H1363   1.083   .     S
C1323  H1365   1.105   .     S
C1324  H1366   1.105   .     S
C1324  H1367   1.104   .     S
C1324  H1368   1.111   .     S
C1325  O1428   1.308   .     A
C1325  O1440   1.308   .     A
C1326  H1369   1.105   .     S
C1326  H1370   1.111   .     S
C1326  H1372   1.104   .     S
C1327  H1373   1.105   .     S
C1327  H1374   1.104   .     S
C1327  H1375   1.111   .     S
C1328  H1377   1.111   .     S
C1328  H1376   1.105   .     S
C1328  H1378   1.104   .     S
C1329  H1379   1.105   .     S
C1329  H1380   1.104   .     S
C1329  H1381   1.111   .     S
C1330  H1384   1.111   .     S
C1330  H1385   1.104   .     S
C1330  H1383   1.105   .     S
C1331  H1388   1.111   .     S
C1331  H1386   1.105   .     S
C1331  H1387   1.104   .     S
C1332  H1391   1.104   .     S
C1332  H1390   1.111   .     S
C1332  H1389   1.105   .     S
C1333  H1394   1.104   .     S
C1333  H1392   1.105   .     S
C1333  H1395   1.111   .     S
C1334  H1396   1.105   .     S
C1334  H1398   1.104   .     S
C1334  H1397   1.111   .     S
C1335  H1401   1.111   .     S
C1335  H1399   1.105   .     S
C1335  H1400   1.104   .     S
C1336  O1427   1.308   .     A
C1336  O1426   1.308   .     A
C1337  H1405   1.104   .     S
C1337  H1402   1.105   .     S
C1337  H1403   1.111   .     S
C1338  H1408   1.111   .     S
C1338  H1406   1.105   .     S
C1338  H1407   1.104   .     S
C1339  H1410   1.111   .     S
C1339  H1411   1.104   .     S
C1339  H1409   1.105   .     S
C1340  H1412   1.105   .     S
C1340  H1414   1.111   .     S
C1340  H1413   1.104   .     S
C1341  H1418   1.104   .     S
C1341  H1416   1.105   .     S
C1341  H1417   1.111   .     S
C1342  O1429   1.308   .     A
C1342  O1432   1.308   .     A
C1343  O1430   1.308   .     A
C1343  O1431   1.308   .     A
C1344  N1422   1.382   .     A
Cu1345 O1437   1.972   .     S
Cu1345 N1421   2.034   .     S
Cu1345 O1425   1.972   .     S
Cu1345 Cu1346  2.707   .     S
Cu1345 O1594   1.972   1_455 S
Cu1345 O1599   1.972   1_455 S
Cu1346 N1422   2.034   .     S
Cu1346 O1438   1.972   .     S
Cu1346 O1435   1.972   .     S
Cu1346 O1593   1.972   1_455 S
Cu1346 O1596   1.972   1_455 S
Cu1347 O1760   1.972   1_545 S
Cu1347 N1423   2.034   .     S
Cu1347 O1752   1.972   1_545 S
Cu1347 Cu1348  2.707   .     S
Cu1347 O1427   1.972   .     S
Cu1347 O1430   1.972   .     S
Cu1348 O1426   1.972   .     S
Cu1348 O1431   1.972   .     S
Cu1348 N1424   2.034   .     S
Cu1348 O1748   1.972   1_545 S
Cu1348 O1749   1.972   1_545 S
H1352  C1479   1.105   .     S
H1360  C1476   1.105   .     S
H1393  C1477   1.105   .     S
H1420  C1478   1.105   .     S
N1423  C1608   1.382   1_545 A
N1424  C1605   1.382   1_545 A
O1428  Cu1668  1.972   .     S
O1429  Cu1668  1.972   .     S
O1432  Cu1667  1.972   .     S
O1433  Cu1506  1.972   .     S
O1434  Cu1505  1.972   .     S
O1436  Cu1506  1.972   .     S
O1439  Cu1505  1.972   .     S
O1440  Cu1667  1.972   .     S
C1441  O1585   1.308   .     A
C1441  O1595   1.308   .     A
C1441  C1470   1.483   .     S
C1442  C1477   1.523   .     S
C1442  C163    1.431   1_556 S
C1442  N1581   1.382   .     S
C1443  C1478   1.523   .     S
C1443  N1582   1.382   .     S
C1444  C1479   1.523   .     S
C1444  N1581   1.382   .     A
C1444  C224    1.431   1_556 S
C1445  N1904   1.382   .     A
C1445  C1480   1.523   .     S
C1446  C1481   1.523   .     S
C1446  C167    1.431   1_556 S
C1446  N1583   1.382   .     S
C1447  C1482   1.523   .     S
C1447  N1584   1.382   .     S
C1448  C1483   1.523   .     S
C1448  N1903   1.382   .     A
C1448  C165    1.431   1_556 S
C1449  C1460   1.400   .     A
C1449  C1484   1.515   .     S
C1449  C1468   1.414   .     A
C1450  C1467   1.414   .     A
C1450  C1486   1.515   .     S
C1450  C1461   1.400   .     A
C1451  C1458   1.400   .     A
C1451  C1487   1.515   .     S
C1451  C1467   1.414   .     A
C1452  C1469   1.483   .     S
C1452  O1593   1.308   .     A
C1452  O1594   1.308   .     A
C1453  C1468   1.414   .     A
C1453  C1459   1.400   .     A
C1453  C1488   1.515   .     S
C1454  C1489   1.515   .     S
C1454  C1470   1.414   .     A
C1454  C1465   1.400   .     A
C1455  C1490   1.515   .     S
C1455  C1469   1.414   .     A
C1455  C1466   1.400   .     A
C1456  C1491   1.515   .     S
C1456  C1469   1.414   .     A
C1456  C1462   1.400   .     A
C1457  C1470   1.414   .     A
C1457  C1492   1.515   .     S
C1457  C1464   1.400   .     A
C1458  C1493   1.515   .     S
C1458  C1472   1.414   .     A
C1459  C1471   1.414   .     A
C1459  C1494   1.515   .     S
C1460  C1495   1.515   .     S
C1460  C1471   1.414   .     A
C1461  C1472   1.414   .     A
C1461  C1497   1.515   .     S
C1462  C1475   1.414   .     A
C1462  C1498   1.515   .     S
C1463  O1596   1.308   .     A
C1463  C1468   1.483   .     S
C1463  O1599   1.308   .     A
C1464  C1499   1.515   .     S
C1464  C1473   1.414   .     A
C1465  C1500   1.515   .     S
C1465  C1473   1.414   .     A
C1466  C1501   1.515   .     S
C1466  C1475   1.414   .     A
C1467  C1474   1.483   .     S
C1471  C1503   1.483   .     S
C1472  C1502   1.483   .     S
C1473  C1496   1.483   .     S
C1474  O1598   1.308   .     A
C1474  O1597   1.308   .     A
C1475  C1485   1.483   .     S
C1476  H1509   1.083   .     S
C1476  H1531   1.105   .     S
C1476  C1504   1.523   .     S
C1477  H1542   1.083   .     S
C1477  H1564   1.105   .     S
C1478  H1575   1.083   .     S
C1478  H1579   1.105   .     S
C1479  H1510   1.083   .     S
C1479  H1511   1.105   .     S
C1480  H1513   1.083   .     S
C1480  H1515   1.105   .     S
C1480  H1514   1.105   .     S
C1481  H1518   1.105   .     S
C1481  H1517   1.105   .     S
C1481  H1516   1.083   .     S
C1482  H1522   1.105   .     S
C1482  H1519   1.083   .     S
C1482  H1521   1.105   .     S
C1483  H1524   1.105   .     S
C1483  H1523   1.083   .     S
C1483  H1525   1.105   .     S
C1484  H1526   1.105   .     S
C1484  H1527   1.104   .     S
C1484  H1528   1.111   .     S
C1485  O1588   1.308   .     A
C1485  O1600   1.308   .     A
C1486  H1529   1.105   .     S
C1486  H1530   1.111   .     S
C1486  H1532   1.104   .     S
C1487  H1533   1.105   .     S
C1487  H1534   1.104   .     S
C1487  H1535   1.111   .     S
C1488  H1537   1.111   .     S
C1488  H1536   1.105   .     S
C1488  H1538   1.104   .     S
C1489  H1539   1.105   .     S
C1489  H1540   1.104   .     S
C1489  H1541   1.111   .     S
C1490  H1544   1.111   .     S
C1490  H1545   1.104   .     S
C1490  H1543   1.105   .     S
C1491  H1548   1.111   .     S
C1491  H1546   1.105   .     S
C1491  H1547   1.104   .     S
C1492  H1551   1.104   .     S
C1492  H1550   1.111   .     S
C1492  H1549   1.105   .     S
C1493  H1554   1.104   .     S
C1493  H1552   1.105   .     S
C1493  H1555   1.111   .     S
C1494  H1556   1.105   .     S
C1494  H1558   1.104   .     S
C1494  H1557   1.111   .     S
C1495  H1561   1.111   .     S
C1495  H1559   1.105   .     S
C1495  H1560   1.104   .     S
C1496  O1587   1.308   .     A
C1496  O1586   1.308   .     A
C1497  H1565   1.104   .     S
C1497  H1562   1.105   .     S
C1497  H1563   1.111   .     S
C1498  H1568   1.111   .     S
C1498  H1566   1.105   .     S
C1498  H1567   1.104   .     S
C1499  H1570   1.111   .     S
C1499  H1571   1.104   .     S
C1499  H1569   1.105   .     S
C1500  H1572   1.105   .     S
C1500  H1574   1.111   .     S
C1500  H1573   1.104   .     S
C1501  H1578   1.104   .     S
C1501  H1576   1.105   .     S
C1501  H1577   1.111   .     S
C1502  O1589   1.308   .     A
C1502  O1592   1.308   .     A
C1503  O1590   1.308   .     A
C1503  O1591   1.308   .     A
C1504  N1582   1.382   .     A
Cu1505 O1597   1.972   .     S
Cu1505 N1581   2.034   .     S
Cu1505 O1585   1.972   .     S
Cu1505 Cu1506  2.707   .     S
Cu1506 N1582   2.034   .     S
Cu1506 O1598   1.972   .     S
Cu1506 O1595   1.972   .     S
Cu1507 O1920   1.972   1_545 S
Cu1507 N1583   2.034   .     S
Cu1507 O1912   1.972   1_545 S
Cu1507 Cu1508  2.707   .     S
Cu1507 O1587   1.972   .     S
Cu1507 O1590   1.972   .     S
Cu1508 O1586   1.972   .     S
Cu1508 O1591   1.972   .     S
Cu1508 N1584   2.034   .     S
Cu1508 O1908   1.972   1_545 S
Cu1508 O1909   1.972   1_545 S
H1512  C1319   1.105   1_655 S
H1520  C1316   1.105   1_655 S
H1553  C1317   1.105   1_655 S
H1580  C1318   1.105   1_655 S
N1583  C1768   1.382   1_545 A
N1584  C1765   1.382   1_545 A
O1588  Cu1828  1.972   .     S
O1589  Cu1828  1.972   .     S
O1592  Cu1827  1.972   .     S
O1593  Cu1346  1.972   1_655 S
O1594  Cu1345  1.972   1_655 S
O1596  Cu1346  1.972   1_655 S
O1599  Cu1345  1.972   1_655 S
O1600  Cu1827  1.972   .     S
C1601  O1745   1.308   .     A
C1601  O1755   1.308   .     A
C1601  C1630   1.483   .     S
C1602  C1637   1.523   .     S
C1602  C323    1.431   1_556 S
C1602  N1741   1.382   .     S
C1603  C1638   1.523   .     S
C1603  N1742   1.382   .     S
C1604  C1639   1.523   .     S
C1604  N1741   1.382   .     A
C1604  C384    1.431   1_556 S
C1605  N1424   1.382   1_565 A
C1605  C1640   1.523   .     S
C1606  C1641   1.523   .     S
C1606  C327    1.431   1_556 S
C1606  N1743   1.382   .     S
C1607  C1642   1.523   .     S
C1607  N1744   1.382   .     S
C1608  C1643   1.523   .     S
C1608  N1423   1.382   1_565 A
C1608  C325    1.431   1_556 S
C1609  C1620   1.400   .     A
C1609  C1644   1.515   .     S
C1609  C1628   1.414   .     A
C1610  C1627   1.414   .     A
C1610  C1646   1.515   .     S
C1610  C1621   1.400   .     A
C1611  C1618   1.400   .     A
C1611  C1647   1.515   .     S
C1611  C1627   1.414   .     A
C1612  C1629   1.483   .     S
C1612  O1753   1.308   .     A
C1612  O1754   1.308   .     A
C1613  C1628   1.414   .     A
C1613  C1619   1.400   .     A
C1613  C1648   1.515   .     S
C1614  C1649   1.515   .     S
C1614  C1630   1.414   .     A
C1614  C1625   1.400   .     A
C1615  C1650   1.515   .     S
C1615  C1629   1.414   .     A
C1615  C1626   1.400   .     A
C1616  C1651   1.515   .     S
C1616  C1629   1.414   .     A
C1616  C1622   1.400   .     A
C1617  C1630   1.414   .     A
C1617  C1652   1.515   .     S
C1617  C1624   1.400   .     A
C1618  C1653   1.515   .     S
C1618  C1632   1.414   .     A
C1619  C1631   1.414   .     A
C1619  C1654   1.515   .     S
C1620  C1655   1.515   .     S
C1620  C1631   1.414   .     A
C1621  C1632   1.414   .     A
C1621  C1657   1.515   .     S
C1622  C1635   1.414   .     A
C1622  C1658   1.515   .     S
C1623  O1756   1.308   .     A
C1623  C1628   1.483   .     S
C1623  O1759   1.308   .     A
C1624  C1659   1.515   .     S
C1624  C1633   1.414   .     A
C1625  C1660   1.515   .     S
C1625  C1633   1.414   .     A
C1626  C1661   1.515   .     S
C1626  C1635   1.414   .     A
C1627  C1634   1.483   .     S
C1631  C1663   1.483   .     S
C1632  C1662   1.483   .     S
C1633  C1656   1.483   .     S
C1634  O1758   1.308   .     A
C1634  O1757   1.308   .     A
C1635  C1645   1.483   .     S
C1636  H1669   1.083   .     S
C1636  H1691   1.105   .     S
C1636  C1664   1.523   .     S
C1636  H1840   1.105   1_455 S
C1637  H1702   1.083   .     S
C1637  H1873   1.105   1_455 S
C1637  H1724   1.105   .     S
C1638  H1900   1.105   1_455 S
C1638  H1735   1.083   .     S
C1638  H1739   1.105   .     S
C1639  H1670   1.083   .     S
C1639  H1671   1.105   .     S
C1639  H1832   1.105   1_455 S
C1640  H1673   1.083   .     S
C1640  H1675   1.105   .     S
C1640  H1674   1.105   .     S
C1641  H1678   1.105   .     S
C1641  H1677   1.105   .     S
C1641  H1676   1.083   .     S
C1642  H1682   1.105   .     S
C1642  H1679   1.083   .     S
C1642  H1681   1.105   .     S
C1643  H1684   1.105   .     S
C1643  H1683   1.083   .     S
C1643  H1685   1.105   .     S
C1644  H1686   1.105   .     S
C1644  H1687   1.104   .     S
C1644  H1688   1.111   .     S
C1645  O1748   1.308   .     A
C1645  O1760   1.308   .     A
C1646  H1689   1.105   .     S
C1646  H1690   1.111   .     S
C1646  H1692   1.104   .     S
C1647  H1693   1.105   .     S
C1647  H1694   1.104   .     S
C1647  H1695   1.111   .     S
C1648  H1697   1.111   .     S
C1648  H1696   1.105   .     S
C1648  H1698   1.104   .     S
C1649  H1699   1.105   .     S
C1649  H1700   1.104   .     S
C1649  H1701   1.111   .     S
C1650  H1704   1.111   .     S
C1650  H1705   1.104   .     S
C1650  H1703   1.105   .     S
C1651  H1708   1.111   .     S
C1651  H1706   1.105   .     S
C1651  H1707   1.104   .     S
C1652  H1711   1.104   .     S
C1652  H1710   1.111   .     S
C1652  H1709   1.105   .     S
C1653  H1714   1.104   .     S
C1653  H1712   1.105   .     S
C1653  H1715   1.111   .     S
C1654  H1716   1.105   .     S
C1654  H1718   1.104   .     S
C1654  H1717   1.111   .     S
C1655  H1721   1.111   .     S
C1655  H1719   1.105   .     S
C1655  H1720   1.104   .     S
C1656  O1747   1.308   .     A
C1656  O1746   1.308   .     A
C1657  H1725   1.104   .     S
C1657  H1722   1.105   .     S
C1657  H1723   1.111   .     S
C1658  H1728   1.111   .     S
C1658  H1726   1.105   .     S
C1658  H1727   1.104   .     S
C1659  H1730   1.111   .     S
C1659  H1731   1.104   .     S
C1659  H1729   1.105   .     S
C1660  H1732   1.105   .     S
C1660  H1734   1.111   .     S
C1660  H1733   1.104   .     S
C1661  H1738   1.104   .     S
C1661  H1736   1.105   .     S
C1661  H1737   1.111   .     S
C1662  O1749   1.308   .     A
C1662  O1752   1.308   .     A
C1663  O1750   1.308   .     A
C1663  O1751   1.308   .     A
C1664  N1742   1.382   .     A
Cu1665 O1757   1.972   .     S
Cu1665 N1741   2.034   .     S
Cu1665 O1745   1.972   .     S
Cu1665 Cu1666  2.707   .     S
Cu1665 O1914   1.972   1_455 S
Cu1665 O1919   1.972   1_455 S
Cu1666 N1742   2.034   .     S
Cu1666 O1758   1.972   .     S
Cu1666 O1755   1.972   .     S
Cu1666 O1913   1.972   1_455 S
Cu1666 O1916   1.972   1_455 S
Cu1667 N1743   2.034   .     S
Cu1667 Cu1668  2.707   .     S
Cu1667 O1747   1.972   .     S
Cu1667 O1750   1.972   .     S
Cu1668 O1746   1.972   .     S
Cu1668 O1751   1.972   .     S
Cu1668 N1744   2.034   .     S
H1672  C1799   1.105   .     S
H1680  C1796   1.105   .     S
H1713  C1797   1.105   .     S
H1740  C1798   1.105   .     S
O1748  Cu1348  1.972   1_565 S
O1749  Cu1348  1.972   1_565 S
O1752  Cu1347  1.972   1_565 S
O1753  Cu1826  1.972   .     S
O1754  Cu1825  1.972   .     S
O1756  Cu1826  1.972   .     S
O1759  Cu1825  1.972   .     S
O1760  Cu1347  1.972   1_565 S
C1761  O1905   1.308   .     A
C1761  O1915   1.308   .     A
C1761  C1790   1.483   .     S
C1762  C1797   1.523   .     S
C1762  C483    1.431   1_556 S
C1762  N1901   1.382   .     S
C1763  C1798   1.523   .     S
C1763  N1902   1.382   .     S
C1764  C1799   1.523   .     S
C1764  N1901   1.382   .     A
C1764  C544    1.431   1_556 S
C1765  N1584   1.382   1_565 A
C1765  C1800   1.523   .     S
C1766  C1801   1.523   .     S
C1766  C487    1.431   1_556 S
C1766  N1903   1.382   .     S
C1767  C1802   1.523   .     S
C1767  N1904   1.382   .     S
C1768  C1803   1.523   .     S
C1768  N1583   1.382   1_565 A
C1768  C485    1.431   1_556 S
C1769  C1780   1.400   .     A
C1769  C1804   1.515   .     S
C1769  C1788   1.414   .     A
C1770  C1787   1.414   .     A
C1770  C1806   1.515   .     S
C1770  C1781   1.400   .     A
C1771  C1778   1.400   .     A
C1771  C1807   1.515   .     S
C1771  C1787   1.414   .     A
C1772  C1789   1.483   .     S
C1772  O1913   1.308   .     A
C1772  O1914   1.308   .     A
C1773  C1788   1.414   .     A
C1773  C1779   1.400   .     A
C1773  C1808   1.515   .     S
C1774  C1809   1.515   .     S
C1774  C1790   1.414   .     A
C1774  C1785   1.400   .     A
C1775  C1810   1.515   .     S
C1775  C1789   1.414   .     A
C1775  C1786   1.400   .     A
C1776  C1811   1.515   .     S
C1776  C1789   1.414   .     A
C1776  C1782   1.400   .     A
C1777  C1790   1.414   .     A
C1777  C1812   1.515   .     S
C1777  C1784   1.400   .     A
C1778  C1813   1.515   .     S
C1778  C1792   1.414   .     A
C1779  C1791   1.414   .     A
C1779  C1814   1.515   .     S
C1780  C1815   1.515   .     S
C1780  C1791   1.414   .     A
C1781  C1792   1.414   .     A
C1781  C1817   1.515   .     S
C1782  C1795   1.414   .     A
C1782  C1818   1.515   .     S
C1783  O1916   1.308   .     A
C1783  C1788   1.483   .     S
C1783  O1919   1.308   .     A
C1784  C1819   1.515   .     S
C1784  C1793   1.414   .     A
C1785  C1820   1.515   .     S
C1785  C1793   1.414   .     A
C1786  C1821   1.515   .     S
C1786  C1795   1.414   .     A
C1787  C1794   1.483   .     S
C1791  C1823   1.483   .     S
C1792  C1822   1.483   .     S
C1793  C1816   1.483   .     S
C1794  O1918   1.308   .     A
C1794  O1917   1.308   .     A
C1795  C1805   1.483   .     S
C1796  H1829   1.083   .     S
C1796  H1851   1.105   .     S
C1796  C1824   1.523   .     S
C1797  H1862   1.083   .     S
C1797  H1884   1.105   .     S
C1798  H1895   1.083   .     S
C1798  H1899   1.105   .     S
C1799  H1830   1.083   .     S
C1799  H1831   1.105   .     S
C1800  H1833   1.083   .     S
C1800  H1835   1.105   .     S
C1800  H1834   1.105   .     S
C1801  H1838   1.105   .     S
C1801  H1837   1.105   .     S
C1801  H1836   1.083   .     S
C1802  H1842   1.105   .     S
C1802  H1839   1.083   .     S
C1802  H1841   1.105   .     S
C1803  H1844   1.105   .     S
C1803  H1843   1.083   .     S
C1803  H1845   1.105   .     S
C1804  H1846   1.105   .     S
C1804  H1847   1.104   .     S
C1804  H1848   1.111   .     S
C1805  O1908   1.308   .     A
C1805  O1920   1.308   .     A
C1806  H1849   1.105   .     S
C1806  H1850   1.111   .     S
C1806  H1852   1.104   .     S
C1807  H1853   1.105   .     S
C1807  H1854   1.104   .     S
C1807  H1855   1.111   .     S
C1808  H1857   1.111   .     S
C1808  H1856   1.105   .     S
C1808  H1858   1.104   .     S
C1809  H1859   1.105   .     S
C1809  H1860   1.104   .     S
C1809  H1861   1.111   .     S
C1810  H1864   1.111   .     S
C1810  H1865   1.104   .     S
C1810  H1863   1.105   .     S
C1811  H1868   1.111   .     S
C1811  H1866   1.105   .     S
C1811  H1867   1.104   .     S
C1812  H1871   1.104   .     S
C1812  H1870   1.111   .     S
C1812  H1869   1.105   .     S
C1813  H1874   1.104   .     S
C1813  H1872   1.105   .     S
C1813  H1875   1.111   .     S
C1814  H1876   1.105   .     S
C1814  H1878   1.104   .     S
C1814  H1877   1.111   .     S
C1815  H1881   1.111   .     S
C1815  H1879   1.105   .     S
C1815  H1880   1.104   .     S
C1816  O1907   1.308   .     A
C1816  O1906   1.308   .     A
C1817  H1885   1.104   .     S
C1817  H1882   1.105   .     S
C1817  H1883   1.111   .     S
C1818  H1888   1.111   .     S
C1818  H1886   1.105   .     S
C1818  H1887   1.104   .     S
C1819  H1890   1.111   .     S
C1819  H1891   1.104   .     S
C1819  H1889   1.105   .     S
C1820  H1892   1.105   .     S
C1820  H1894   1.111   .     S
C1820  H1893   1.104   .     S
C1821  H1898   1.104   .     S
C1821  H1896   1.105   .     S
C1821  H1897   1.111   .     S
C1822  O1909   1.308   .     A
C1822  O1912   1.308   .     A
C1823  O1910   1.308   .     A
C1823  O1911   1.308   .     A
C1824  N1902   1.382   .     A
Cu1825 O1917   1.972   .     S
Cu1825 N1901   2.034   .     S
Cu1825 O1905   1.972   .     S
Cu1825 Cu1826  2.707   .     S
Cu1826 N1902   2.034   .     S
Cu1826 O1918   1.972   .     S
Cu1826 O1915   1.972   .     S
Cu1827 N1903   2.034   .     S
Cu1827 Cu1828  2.707   .     S
Cu1827 O1907   1.972   .     S
Cu1827 O1910   1.972   .     S
Cu1828 O1906   1.972   .     S
Cu1828 O1911   1.972   .     S
Cu1828 N1904   2.034   .     S
H1832  C1639   1.105   1_655 S
H1840  C1636   1.105   1_655 S
H1873  C1637   1.105   1_655 S
H1900  C1638   1.105   1_655 S
O1908  Cu1508  1.972   1_565 S
O1909  Cu1508  1.972   1_565 S
O1912  Cu1507  1.972   1_565 S
O1913  Cu1666  1.972   1_655 S
O1914  Cu1665  1.972   1_655 S
O1916  Cu1666  1.972   1_655 S
O1919  Cu1665  1.972   1_655 S
O1920  Cu1507  1.972   1_565 S
