data_str_m3_o10_o18_pcu_sym.90
_audit_creation_date              2020-01-03
_audit_creation_method            'Materials Studio'
_symmetry_space_group_name_H-M    'P1'
_symmetry_Int_Tables_number       1
_symmetry_cell_setting            triclinic
loop_
_symmetry_equiv_pos_as_xyz
  x,y,z
_cell_length_a                    23.4980
_cell_length_b                    25.6479
_cell_length_c                    27.7173
_cell_angle_alpha                 93.1658
_cell_angle_beta                  93.3266
_cell_angle_gamma                 94.3046
loop_
_atom_site_label
_atom_site_type_symbol
_atom_site_fract_x
_atom_site_fract_y
_atom_site_fract_z
_atom_site_U_iso_or_equiv
_atom_site_adp_type
_atom_site_occupancy
C1     C     0.01507   0.26489   0.24870   0.00000  Uiso   1.00
C2     C     0.31207   0.16260   0.15914   0.00000  Uiso   1.00
C3     C     0.03196   0.17525   0.39305   0.00000  Uiso   1.00
C4     C     0.30073   0.15595   0.10714   0.00000  Uiso   1.00
C5     C     0.01502   0.21573   0.47083   0.00000  Uiso   1.00
C6     C     0.31385   0.10971   0.03128   0.00000  Uiso   1.00
C7     C     0.32919   0.20105   0.42320   0.00000  Uiso   1.00
C8     C     0.00130   0.12658   0.07799   0.00000  Uiso   1.00
C9     C     0.08305   0.15866   0.41206   0.00000  Uiso   1.00
C10    C     0.25009   0.17310   0.08792   0.00000  Uiso   1.00
C11    C     0.09951   0.16712   0.46082   0.00000  Uiso   1.00
C12    C     0.31823   0.06843   0.25113   0.00000  Uiso   1.00
C13    C     0.23113   0.16105   0.03998   0.00000  Uiso   1.00
C14    C     0.06852   0.20165   0.48868   0.00000  Uiso   1.00
C15    C     0.26081   0.12458   0.01311   0.00000  Uiso   1.00
C16    C     0.15122   0.14942   0.47977   0.00000  Uiso   1.00
C17    C     0.17896   0.17820   0.02109   0.00000  Uiso   1.00
C18    C     0.18539   0.26928   0.06962   0.00000  Uiso   1.00
C19    C     0.16493   0.28009   0.12052   0.00000  Uiso   1.00
C20    C     0.14464   0.05897   0.42849   0.00000  Uiso   1.00
C21    C     0.09138   0.03708   0.45195   0.00000  Uiso   1.00
C22    C     0.15251   0.22206   0.04237   0.00000  Uiso   1.00
C23    C     0.17696   0.10493   0.45872   0.00000  Uiso   1.00
C24    C     0.09496   0.22791   0.02997   0.00000  Uiso   1.00
C25    C     0.23411   0.09816   0.47200   0.00000  Uiso   1.00
C26    C     0.02288   0.31950   0.24788   0.00000  Uiso   1.00
C27    C     0.31037   0.01380   0.25165   0.00000  Uiso   1.00
C28    C     0.02122   0.17055   0.34089   0.00000  Uiso   1.00
H29    H     0.07362   0.25901   0.04775   0.00000  Uiso   1.00
H30    H     0.26720   0.32987   0.25519   0.00000  Uiso   1.00
H31    H     0.16239   0.12492   0.21389   0.00000  Uiso   1.00
H32    H     0.17094   0.20844   0.28609   0.00000  Uiso   1.00
H33    H     0.12355   0.29834   0.11840   0.00000  Uiso   1.00
H34    H     0.15905   0.24371   0.14013   0.00000  Uiso   1.00
H35    H     0.19674   0.30779   0.14176   0.00000  Uiso   1.00
H36    H     0.23227   0.26651   0.07126   0.00000  Uiso   1.00
H37    H     0.17892   0.30440   0.04872   0.00000  Uiso   1.00
H38    H     0.10063   0.03322   0.49132   0.00000  Uiso   1.00
H39    H     0.05599   0.06263   0.44626   0.00000  Uiso   1.00
H40    H     0.25559   0.06726   0.45398   0.00000  Uiso   1.00
H41    H     0.07704   0.33105   0.43486   0.00000  Uiso   1.00
H42    H     0.13406   0.06773   0.39060   0.00000  Uiso   1.00
H43    H     0.17238   0.02585   0.42479   0.00000  Uiso   1.00
H44    H     0.22285   0.19195   0.11207   0.00000  Uiso   1.00
H45    H     0.11310   0.14448   0.38763   0.00000  Uiso   1.00
H46    H     0.04071   0.11258   0.09260   0.00000  Uiso   1.00
H47    H     0.28919   0.21418   0.40889   0.00000  Uiso   1.00
H48    H     0.32328   0.24072   0.49253   0.00000  Uiso   1.00
H49    H     0.00383   0.08225   0.01088   0.00000  Uiso   1.00
H50    H     0.06604   0.00342   0.24428   0.00000  Uiso   1.00
N51    N     0.14695   0.15216   0.23739   0.00000  Uiso   1.00
N52    N     0.18638   0.18117   0.26260   0.00000  Uiso   1.00
O53    O     0.29719   0.24631   0.25309   0.00000  Uiso   1.00
O54    O     0.03614   0.08702   0.24690   0.00000  Uiso   1.00
O55    O     0.05822   0.23702   0.24501   0.00000  Uiso   1.00
O56    O     0.27512   0.09632   0.25498   0.00000  Uiso   1.00
O57    O     0.30328   0.17397   0.32247   0.00000  Uiso   1.00
O58    O     0.03005   0.15937   0.17753   0.00000  Uiso   1.00
O59    O     0.06431   0.16467   0.31439   0.00000  Uiso   1.00
O60    O     0.26902   0.16866   0.18561   0.00000  Uiso   1.00
Zn61   Zn    0.27033   0.17287   0.25539   0.00000  Uiso   1.00
Zn62   Zn    0.06300   0.16046   0.24460   0.00000  Uiso   1.00
C63    C     0.34840   0.26489   0.24870   0.00000  Uiso   1.00
C64    C     0.64540   0.16260   0.15914   0.00000  Uiso   1.00
C65    C     0.36530   0.17525   0.39305   0.00000  Uiso   1.00
C66    C     0.63406   0.15595   0.10714   0.00000  Uiso   1.00
C67    C     0.34835   0.21573   0.47083   0.00000  Uiso   1.00
C68    C     0.64719   0.10971   0.03128   0.00000  Uiso   1.00
C69    C     0.66253   0.20105   0.42320   0.00000  Uiso   1.00
C70    C     0.33463   0.12658   0.07799   0.00000  Uiso   1.00
C71    C     0.41638   0.15866   0.41206   0.00000  Uiso   1.00
C72    C     0.58343   0.17310   0.08792   0.00000  Uiso   1.00
C73    C     0.43285   0.16712   0.46082   0.00000  Uiso   1.00
C74    C     0.65157   0.06843   0.25113   0.00000  Uiso   1.00
C75    C     0.56447   0.16105   0.03998   0.00000  Uiso   1.00
C76    C     0.40185   0.20165   0.48868   0.00000  Uiso   1.00
C77    C     0.59414   0.12458   0.01311   0.00000  Uiso   1.00
C78    C     0.48455   0.14942   0.47977   0.00000  Uiso   1.00
C79    C     0.51230   0.17820   0.02109   0.00000  Uiso   1.00
C80    C     0.51872   0.26928   0.06962   0.00000  Uiso   1.00
C81    C     0.49826   0.28009   0.12052   0.00000  Uiso   1.00
C82    C     0.47797   0.05897   0.42849   0.00000  Uiso   1.00
C83    C     0.42471   0.03708   0.45195   0.00000  Uiso   1.00
C84    C     0.48584   0.22206   0.04237   0.00000  Uiso   1.00
C85    C     0.51030   0.10493   0.45872   0.00000  Uiso   1.00
C86    C     0.42829   0.22791   0.02997   0.00000  Uiso   1.00
C87    C     0.56744   0.09816   0.47200   0.00000  Uiso   1.00
C88    C     0.35621   0.31950   0.24788   0.00000  Uiso   1.00
C89    C     0.64370   0.01380   0.25165   0.00000  Uiso   1.00
C90    C     0.35455   0.17055   0.34089   0.00000  Uiso   1.00
H91    H     0.40696   0.25901   0.04775   0.00000  Uiso   1.00
H92    H     0.60053   0.32987   0.25519   0.00000  Uiso   1.00
H93    H     0.49572   0.12492   0.21389   0.00000  Uiso   1.00
H94    H     0.50428   0.20844   0.28609   0.00000  Uiso   1.00
H95    H     0.45689   0.29834   0.11840   0.00000  Uiso   1.00
H96    H     0.49238   0.24371   0.14013   0.00000  Uiso   1.00
H97    H     0.53008   0.30779   0.14176   0.00000  Uiso   1.00
H98    H     0.56561   0.26651   0.07126   0.00000  Uiso   1.00
H99    H     0.51226   0.30440   0.04872   0.00000  Uiso   1.00
H100   H     0.43396   0.03322   0.49132   0.00000  Uiso   1.00
H101   H     0.38932   0.06263   0.44626   0.00000  Uiso   1.00
H102   H     0.58892   0.06726   0.45398   0.00000  Uiso   1.00
H103   H     0.41037   0.33105   0.43486   0.00000  Uiso   1.00
H104   H     0.46740   0.06773   0.39060   0.00000  Uiso   1.00
H105   H     0.50571   0.02585   0.42479   0.00000  Uiso   1.00
H106   H     0.55618   0.19195   0.11207   0.00000  Uiso   1.00
H107   H     0.44644   0.14448   0.38763   0.00000  Uiso   1.00
H108   H     0.37405   0.11258   0.09260   0.00000  Uiso   1.00
H109   H     0.62253   0.21418   0.40889   0.00000  Uiso   1.00
H110   H     0.65661   0.24072   0.49253   0.00000  Uiso   1.00
H111   H     0.33717   0.08225   0.01088   0.00000  Uiso   1.00
H112   H     0.39937   0.00342   0.24428   0.00000  Uiso   1.00
N113   N     0.48029   0.15216   0.23739   0.00000  Uiso   1.00
N114   N     0.51971   0.18117   0.26260   0.00000  Uiso   1.00
O115   O     0.63052   0.24631   0.25309   0.00000  Uiso   1.00
O116   O     0.36948   0.08702   0.24690   0.00000  Uiso   1.00
O117   O     0.39155   0.23702   0.24501   0.00000  Uiso   1.00
O118   O     0.60845   0.09632   0.25498   0.00000  Uiso   1.00
O119   O     0.63662   0.17397   0.32247   0.00000  Uiso   1.00
O120   O     0.36338   0.15937   0.17753   0.00000  Uiso   1.00
O121   O     0.39764   0.16467   0.31439   0.00000  Uiso   1.00
O122   O     0.60236   0.16866   0.18561   0.00000  Uiso   1.00
Zn123  Zn    0.60366   0.17287   0.25539   0.00000  Uiso   1.00
Zn124  Zn    0.39634   0.16046   0.24460   0.00000  Uiso   1.00
C125   C     0.68174   0.26489   0.24870   0.00000  Uiso   1.00
C126   C     0.97874   0.16260   0.15914   0.00000  Uiso   1.00
C127   C     0.69863   0.17525   0.39305   0.00000  Uiso   1.00
C128   C     0.96739   0.15595   0.10714   0.00000  Uiso   1.00
C129   C     0.68169   0.21573   0.47083   0.00000  Uiso   1.00
C130   C     0.98052   0.10971   0.03128   0.00000  Uiso   1.00
C131   C     0.99586   0.20105   0.42320   0.00000  Uiso   1.00
C132   C     0.66796   0.12658   0.07799   0.00000  Uiso   1.00
C133   C     0.74972   0.15866   0.41206   0.00000  Uiso   1.00
C134   C     0.91676   0.17310   0.08792   0.00000  Uiso   1.00
C135   C     0.76618   0.16712   0.46082   0.00000  Uiso   1.00
C136   C     0.98490   0.06843   0.25113   0.00000  Uiso   1.00
C137   C     0.89780   0.16105   0.03998   0.00000  Uiso   1.00
C138   C     0.73519   0.20165   0.48868   0.00000  Uiso   1.00
C139   C     0.92748   0.12458   0.01311   0.00000  Uiso   1.00
C140   C     0.81789   0.14942   0.47977   0.00000  Uiso   1.00
C141   C     0.84563   0.17820   0.02109   0.00000  Uiso   1.00
C142   C     0.85205   0.26928   0.06962   0.00000  Uiso   1.00
C143   C     0.83159   0.28009   0.12052   0.00000  Uiso   1.00
C144   C     0.81131   0.05897   0.42849   0.00000  Uiso   1.00
C145   C     0.75805   0.03708   0.45195   0.00000  Uiso   1.00
C146   C     0.81918   0.22206   0.04237   0.00000  Uiso   1.00
C147   C     0.84363   0.10493   0.45872   0.00000  Uiso   1.00
C148   C     0.76163   0.22791   0.02997   0.00000  Uiso   1.00
C149   C     0.90077   0.09816   0.47200   0.00000  Uiso   1.00
C150   C     0.68955   0.31950   0.24788   0.00000  Uiso   1.00
C151   C     0.97703   0.01380   0.25165   0.00000  Uiso   1.00
C152   C     0.68789   0.17055   0.34089   0.00000  Uiso   1.00
H153   H     0.74029   0.25901   0.04775   0.00000  Uiso   1.00
H154   H     0.93387   0.32987   0.25519   0.00000  Uiso   1.00
H155   H     0.82906   0.12492   0.21389   0.00000  Uiso   1.00
H156   H     0.83761   0.20844   0.28609   0.00000  Uiso   1.00
H157   H     0.79022   0.29834   0.11840   0.00000  Uiso   1.00
H158   H     0.82571   0.24371   0.14013   0.00000  Uiso   1.00
H159   H     0.86341   0.30779   0.14176   0.00000  Uiso   1.00
H160   H     0.89894   0.26651   0.07126   0.00000  Uiso   1.00
H161   H     0.84559   0.30440   0.04872   0.00000  Uiso   1.00
H162   H     0.76730   0.03322   0.49132   0.00000  Uiso   1.00
H163   H     0.72266   0.06263   0.44626   0.00000  Uiso   1.00
H164   H     0.92226   0.06726   0.45398   0.00000  Uiso   1.00
H165   H     0.74371   0.33105   0.43486   0.00000  Uiso   1.00
H166   H     0.80073   0.06773   0.39060   0.00000  Uiso   1.00
H167   H     0.83905   0.02585   0.42479   0.00000  Uiso   1.00
H168   H     0.88951   0.19195   0.11207   0.00000  Uiso   1.00
H169   H     0.77977   0.14448   0.38763   0.00000  Uiso   1.00
H170   H     0.70738   0.11258   0.09260   0.00000  Uiso   1.00
H171   H     0.95586   0.21418   0.40889   0.00000  Uiso   1.00
H172   H     0.98994   0.24072   0.49253   0.00000  Uiso   1.00
H173   H     0.67050   0.08225   0.01088   0.00000  Uiso   1.00
H174   H     0.73270   0.00342   0.24428   0.00000  Uiso   1.00
N175   N     0.81362   0.15216   0.23739   0.00000  Uiso   1.00
N176   N     0.85305   0.18117   0.26260   0.00000  Uiso   1.00
O177   O     0.96386   0.24631   0.25309   0.00000  Uiso   1.00
O178   O     0.70281   0.08702   0.24690   0.00000  Uiso   1.00
O179   O     0.72488   0.23702   0.24501   0.00000  Uiso   1.00
O180   O     0.94178   0.09632   0.25498   0.00000  Uiso   1.00
O181   O     0.96995   0.17397   0.32247   0.00000  Uiso   1.00
O182   O     0.69672   0.15937   0.17753   0.00000  Uiso   1.00
O183   O     0.73098   0.16467   0.31439   0.00000  Uiso   1.00
O184   O     0.93569   0.16866   0.18561   0.00000  Uiso   1.00
Zn185  Zn    0.93700   0.17287   0.25539   0.00000  Uiso   1.00
Zn186  Zn    0.72967   0.16046   0.24460   0.00000  Uiso   1.00
C187   C     0.01507   0.59823   0.24870   0.00000  Uiso   1.00
C188   C     0.31207   0.49593   0.15914   0.00000  Uiso   1.00
C189   C     0.03196   0.50858   0.39305   0.00000  Uiso   1.00
C190   C     0.30073   0.48929   0.10714   0.00000  Uiso   1.00
C191   C     0.01502   0.54907   0.47083   0.00000  Uiso   1.00
C192   C     0.31385   0.44304   0.03128   0.00000  Uiso   1.00
C193   C     0.32919   0.53438   0.42320   0.00000  Uiso   1.00
C194   C     0.00130   0.45991   0.07799   0.00000  Uiso   1.00
C195   C     0.08305   0.49199   0.41206   0.00000  Uiso   1.00
C196   C     0.25009   0.50643   0.08792   0.00000  Uiso   1.00
C197   C     0.09951   0.50046   0.46082   0.00000  Uiso   1.00
C198   C     0.31823   0.40176   0.25113   0.00000  Uiso   1.00
C199   C     0.23113   0.49438   0.03998   0.00000  Uiso   1.00
C200   C     0.06852   0.53498   0.48868   0.00000  Uiso   1.00
C201   C     0.26081   0.45791   0.01311   0.00000  Uiso   1.00
C202   C     0.15122   0.48275   0.47977   0.00000  Uiso   1.00
C203   C     0.17896   0.51153   0.02109   0.00000  Uiso   1.00
C204   C     0.18539   0.60261   0.06962   0.00000  Uiso   1.00
C205   C     0.16493   0.61342   0.12052   0.00000  Uiso   1.00
C206   C     0.14464   0.39230   0.42849   0.00000  Uiso   1.00
C207   C     0.09138   0.37041   0.45195   0.00000  Uiso   1.00
C208   C     0.15251   0.55540   0.04237   0.00000  Uiso   1.00
C209   C     0.17696   0.43826   0.45872   0.00000  Uiso   1.00
C210   C     0.09496   0.56124   0.02997   0.00000  Uiso   1.00
C211   C     0.23411   0.43149   0.47200   0.00000  Uiso   1.00
C212   C     0.02288   0.65283   0.24788   0.00000  Uiso   1.00
C213   C     0.31037   0.34713   0.25165   0.00000  Uiso   1.00
C214   C     0.02122   0.50388   0.34089   0.00000  Uiso   1.00
H215   H     0.07362   0.59234   0.04775   0.00000  Uiso   1.00
H216   H     0.26720   0.66321   0.25519   0.00000  Uiso   1.00
H217   H     0.16239   0.45825   0.21389   0.00000  Uiso   1.00
H218   H     0.17094   0.54177   0.28609   0.00000  Uiso   1.00
H219   H     0.12355   0.63167   0.11840   0.00000  Uiso   1.00
H220   H     0.15905   0.57705   0.14013   0.00000  Uiso   1.00
H221   H     0.19674   0.64112   0.14176   0.00000  Uiso   1.00
H222   H     0.23227   0.59984   0.07126   0.00000  Uiso   1.00
H223   H     0.17892   0.63773   0.04872   0.00000  Uiso   1.00
H224   H     0.10063   0.36656   0.49132   0.00000  Uiso   1.00
H225   H     0.05599   0.39596   0.44626   0.00000  Uiso   1.00
H226   H     0.25559   0.40060   0.45398   0.00000  Uiso   1.00
H227   H     0.07704   0.66439   0.43486   0.00000  Uiso   1.00
H228   H     0.13406   0.40107   0.39060   0.00000  Uiso   1.00
H229   H     0.17238   0.35919   0.42479   0.00000  Uiso   1.00
H230   H     0.22285   0.52528   0.11207   0.00000  Uiso   1.00
H231   H     0.11310   0.47781   0.38763   0.00000  Uiso   1.00
H232   H     0.04071   0.44591   0.09260   0.00000  Uiso   1.00
H233   H     0.28919   0.54751   0.40889   0.00000  Uiso   1.00
H234   H     0.32328   0.57405   0.49253   0.00000  Uiso   1.00
H235   H     0.00383   0.41559   0.01088   0.00000  Uiso   1.00
H236   H     0.06604   0.33675   0.24428   0.00000  Uiso   1.00
N237   N     0.14695   0.48550   0.23739   0.00000  Uiso   1.00
N238   N     0.18638   0.51450   0.26260   0.00000  Uiso   1.00
O239   O     0.29719   0.57964   0.25309   0.00000  Uiso   1.00
O240   O     0.03614   0.42036   0.24690   0.00000  Uiso   1.00
O241   O     0.05822   0.57035   0.24501   0.00000  Uiso   1.00
O242   O     0.27512   0.42965   0.25498   0.00000  Uiso   1.00
O243   O     0.30328   0.50730   0.32247   0.00000  Uiso   1.00
O244   O     0.03005   0.49270   0.17753   0.00000  Uiso   1.00
O245   O     0.06431   0.49801   0.31439   0.00000  Uiso   1.00
O246   O     0.26902   0.50199   0.18561   0.00000  Uiso   1.00
Zn247  Zn    0.27033   0.50621   0.25539   0.00000  Uiso   1.00
Zn248  Zn    0.06300   0.49379   0.24460   0.00000  Uiso   1.00
C249   C     0.34840   0.59823   0.24870   0.00000  Uiso   1.00
C250   C     0.64540   0.49593   0.15914   0.00000  Uiso   1.00
C251   C     0.36530   0.50858   0.39305   0.00000  Uiso   1.00
C252   C     0.63406   0.48929   0.10714   0.00000  Uiso   1.00
C253   C     0.34835   0.54907   0.47083   0.00000  Uiso   1.00
C254   C     0.64719   0.44304   0.03128   0.00000  Uiso   1.00
C255   C     0.66253   0.53438   0.42320   0.00000  Uiso   1.00
C256   C     0.33463   0.45991   0.07799   0.00000  Uiso   1.00
C257   C     0.41638   0.49199   0.41206   0.00000  Uiso   1.00
C258   C     0.58343   0.50643   0.08792   0.00000  Uiso   1.00
C259   C     0.43285   0.50046   0.46082   0.00000  Uiso   1.00
C260   C     0.65157   0.40176   0.25113   0.00000  Uiso   1.00
C261   C     0.56447   0.49438   0.03998   0.00000  Uiso   1.00
C262   C     0.40185   0.53498   0.48868   0.00000  Uiso   1.00
C263   C     0.59414   0.45791   0.01311   0.00000  Uiso   1.00
C264   C     0.48455   0.48275   0.47977   0.00000  Uiso   1.00
C265   C     0.51230   0.51153   0.02109   0.00000  Uiso   1.00
C266   C     0.51872   0.60261   0.06962   0.00000  Uiso   1.00
C267   C     0.49826   0.61342   0.12052   0.00000  Uiso   1.00
C268   C     0.47797   0.39230   0.42849   0.00000  Uiso   1.00
C269   C     0.42471   0.37041   0.45195   0.00000  Uiso   1.00
C270   C     0.48584   0.55540   0.04237   0.00000  Uiso   1.00
C271   C     0.51030   0.43826   0.45872   0.00000  Uiso   1.00
C272   C     0.42829   0.56124   0.02997   0.00000  Uiso   1.00
C273   C     0.56744   0.43149   0.47200   0.00000  Uiso   1.00
C274   C     0.35621   0.65283   0.24788   0.00000  Uiso   1.00
C275   C     0.64370   0.34713   0.25165   0.00000  Uiso   1.00
C276   C     0.35455   0.50388   0.34089   0.00000  Uiso   1.00
H277   H     0.40696   0.59234   0.04775   0.00000  Uiso   1.00
H278   H     0.60053   0.66321   0.25519   0.00000  Uiso   1.00
H279   H     0.49572   0.45825   0.21389   0.00000  Uiso   1.00
H280   H     0.50428   0.54177   0.28609   0.00000  Uiso   1.00
H281   H     0.45689   0.63167   0.11840   0.00000  Uiso   1.00
H282   H     0.49238   0.57705   0.14013   0.00000  Uiso   1.00
H283   H     0.53008   0.64112   0.14176   0.00000  Uiso   1.00
H284   H     0.56561   0.59984   0.07126   0.00000  Uiso   1.00
H285   H     0.51226   0.63773   0.04872   0.00000  Uiso   1.00
H286   H     0.43396   0.36656   0.49132   0.00000  Uiso   1.00
H287   H     0.38932   0.39596   0.44626   0.00000  Uiso   1.00
H288   H     0.58892   0.40060   0.45398   0.00000  Uiso   1.00
H289   H     0.41037   0.66439   0.43486   0.00000  Uiso   1.00
H290   H     0.46740   0.40107   0.39060   0.00000  Uiso   1.00
H291   H     0.50571   0.35919   0.42479   0.00000  Uiso   1.00
H292   H     0.55618   0.52528   0.11207   0.00000  Uiso   1.00
H293   H     0.44644   0.47781   0.38763   0.00000  Uiso   1.00
H294   H     0.37405   0.44591   0.09260   0.00000  Uiso   1.00
H295   H     0.62253   0.54751   0.40889   0.00000  Uiso   1.00
H296   H     0.65661   0.57405   0.49253   0.00000  Uiso   1.00
H297   H     0.33717   0.41559   0.01088   0.00000  Uiso   1.00
H298   H     0.39937   0.33675   0.24428   0.00000  Uiso   1.00
N299   N     0.48029   0.48550   0.23739   0.00000  Uiso   1.00
N300   N     0.51971   0.51450   0.26260   0.00000  Uiso   1.00
O301   O     0.63052   0.57964   0.25309   0.00000  Uiso   1.00
O302   O     0.36948   0.42036   0.24690   0.00000  Uiso   1.00
O303   O     0.39155   0.57035   0.24501   0.00000  Uiso   1.00
O304   O     0.60845   0.42965   0.25498   0.00000  Uiso   1.00
O305   O     0.63662   0.50730   0.32247   0.00000  Uiso   1.00
O306   O     0.36338   0.49270   0.17753   0.00000  Uiso   1.00
O307   O     0.39764   0.49801   0.31439   0.00000  Uiso   1.00
O308   O     0.60236   0.50199   0.18561   0.00000  Uiso   1.00
Zn309  Zn    0.60366   0.50621   0.25539   0.00000  Uiso   1.00
Zn310  Zn    0.39634   0.49379   0.24460   0.00000  Uiso   1.00
C311   C     0.68174   0.59823   0.24870   0.00000  Uiso   1.00
C312   C     0.97874   0.49593   0.15914   0.00000  Uiso   1.00
C313   C     0.69863   0.50858   0.39305   0.00000  Uiso   1.00
C314   C     0.96739   0.48929   0.10714   0.00000  Uiso   1.00
C315   C     0.68169   0.54907   0.47083   0.00000  Uiso   1.00
C316   C     0.98052   0.44304   0.03128   0.00000  Uiso   1.00
C317   C     0.99586   0.53438   0.42320   0.00000  Uiso   1.00
C318   C     0.66796   0.45991   0.07799   0.00000  Uiso   1.00
C319   C     0.74972   0.49199   0.41206   0.00000  Uiso   1.00
C320   C     0.91676   0.50643   0.08792   0.00000  Uiso   1.00
C321   C     0.76618   0.50046   0.46082   0.00000  Uiso   1.00
C322   C     0.98490   0.40176   0.25113   0.00000  Uiso   1.00
C323   C     0.89780   0.49438   0.03998   0.00000  Uiso   1.00
C324   C     0.73519   0.53498   0.48868   0.00000  Uiso   1.00
C325   C     0.92748   0.45791   0.01311   0.00000  Uiso   1.00
C326   C     0.81789   0.48275   0.47977   0.00000  Uiso   1.00
C327   C     0.84563   0.51153   0.02109   0.00000  Uiso   1.00
C328   C     0.85205   0.60261   0.06962   0.00000  Uiso   1.00
C329   C     0.83159   0.61342   0.12052   0.00000  Uiso   1.00
C330   C     0.81131   0.39230   0.42849   0.00000  Uiso   1.00
C331   C     0.75805   0.37041   0.45195   0.00000  Uiso   1.00
C332   C     0.81918   0.55540   0.04237   0.00000  Uiso   1.00
C333   C     0.84363   0.43826   0.45872   0.00000  Uiso   1.00
C334   C     0.76163   0.56124   0.02997   0.00000  Uiso   1.00
C335   C     0.90077   0.43149   0.47200   0.00000  Uiso   1.00
C336   C     0.68955   0.65283   0.24788   0.00000  Uiso   1.00
C337   C     0.97703   0.34713   0.25165   0.00000  Uiso   1.00
C338   C     0.68789   0.50388   0.34089   0.00000  Uiso   1.00
H339   H     0.74029   0.59234   0.04775   0.00000  Uiso   1.00
H340   H     0.93387   0.66321   0.25519   0.00000  Uiso   1.00
H341   H     0.82906   0.45825   0.21389   0.00000  Uiso   1.00
H342   H     0.83761   0.54177   0.28609   0.00000  Uiso   1.00
H343   H     0.79022   0.63167   0.11840   0.00000  Uiso   1.00
H344   H     0.82571   0.57705   0.14013   0.00000  Uiso   1.00
H345   H     0.86341   0.64112   0.14176   0.00000  Uiso   1.00
H346   H     0.89894   0.59984   0.07126   0.00000  Uiso   1.00
H347   H     0.84559   0.63773   0.04872   0.00000  Uiso   1.00
H348   H     0.76730   0.36656   0.49132   0.00000  Uiso   1.00
H349   H     0.72266   0.39596   0.44626   0.00000  Uiso   1.00
H350   H     0.92226   0.40060   0.45398   0.00000  Uiso   1.00
H351   H     0.74371   0.66439   0.43486   0.00000  Uiso   1.00
H352   H     0.80073   0.40107   0.39060   0.00000  Uiso   1.00
H353   H     0.83905   0.35919   0.42479   0.00000  Uiso   1.00
H354   H     0.88951   0.52528   0.11207   0.00000  Uiso   1.00
H355   H     0.77977   0.47781   0.38763   0.00000  Uiso   1.00
H356   H     0.70738   0.44591   0.09260   0.00000  Uiso   1.00
H357   H     0.95586   0.54751   0.40889   0.00000  Uiso   1.00
H358   H     0.98994   0.57405   0.49253   0.00000  Uiso   1.00
H359   H     0.67050   0.41559   0.01088   0.00000  Uiso   1.00
H360   H     0.73270   0.33675   0.24428   0.00000  Uiso   1.00
N361   N     0.81362   0.48550   0.23739   0.00000  Uiso   1.00
N362   N     0.85305   0.51450   0.26260   0.00000  Uiso   1.00
O363   O     0.96386   0.57964   0.25309   0.00000  Uiso   1.00
O364   O     0.70281   0.42036   0.24690   0.00000  Uiso   1.00
O365   O     0.72488   0.57035   0.24501   0.00000  Uiso   1.00
O366   O     0.94178   0.42965   0.25498   0.00000  Uiso   1.00
O367   O     0.96995   0.50730   0.32247   0.00000  Uiso   1.00
O368   O     0.69672   0.49270   0.17753   0.00000  Uiso   1.00
O369   O     0.73098   0.49801   0.31439   0.00000  Uiso   1.00
O370   O     0.93569   0.50199   0.18561   0.00000  Uiso   1.00
Zn371  Zn    0.93700   0.50621   0.25539   0.00000  Uiso   1.00
Zn372  Zn    0.72967   0.49379   0.24460   0.00000  Uiso   1.00
C373   C     0.01507   0.93156   0.24870   0.00000  Uiso   1.00
C374   C     0.31207   0.82927   0.15914   0.00000  Uiso   1.00
C375   C     0.03196   0.84192   0.39305   0.00000  Uiso   1.00
C376   C     0.30073   0.82262   0.10714   0.00000  Uiso   1.00
C377   C     0.01502   0.88240   0.47083   0.00000  Uiso   1.00
C378   C     0.31385   0.77638   0.03128   0.00000  Uiso   1.00
C379   C     0.32919   0.86771   0.42320   0.00000  Uiso   1.00
C380   C     0.00130   0.79324   0.07799   0.00000  Uiso   1.00
C381   C     0.08305   0.82532   0.41206   0.00000  Uiso   1.00
C382   C     0.25009   0.83976   0.08792   0.00000  Uiso   1.00
C383   C     0.09951   0.83379   0.46082   0.00000  Uiso   1.00
C384   C     0.31823   0.73509   0.25113   0.00000  Uiso   1.00
C385   C     0.23113   0.82772   0.03998   0.00000  Uiso   1.00
C386   C     0.06852   0.86832   0.48868   0.00000  Uiso   1.00
C387   C     0.26081   0.79124   0.01311   0.00000  Uiso   1.00
C388   C     0.15122   0.81609   0.47977   0.00000  Uiso   1.00
C389   C     0.17896   0.84486   0.02109   0.00000  Uiso   1.00
C390   C     0.18539   0.93594   0.06962   0.00000  Uiso   1.00
C391   C     0.16493   0.94676   0.12052   0.00000  Uiso   1.00
C392   C     0.14464   0.72564   0.42849   0.00000  Uiso   1.00
C393   C     0.09138   0.70374   0.45195   0.00000  Uiso   1.00
C394   C     0.15251   0.88873   0.04237   0.00000  Uiso   1.00
C395   C     0.17696   0.77160   0.45872   0.00000  Uiso   1.00
C396   C     0.09496   0.89458   0.02997   0.00000  Uiso   1.00
C397   C     0.23411   0.76483   0.47200   0.00000  Uiso   1.00
C398   C     0.02288   0.98616   0.24788   0.00000  Uiso   1.00
C399   C     0.31037   0.68046   0.25165   0.00000  Uiso   1.00
C400   C     0.02122   0.83722   0.34089   0.00000  Uiso   1.00
H401   H     0.07362   0.92568   0.04775   0.00000  Uiso   1.00
H402   H     0.26720   0.99654   0.25519   0.00000  Uiso   1.00
H403   H     0.16239   0.79159   0.21389   0.00000  Uiso   1.00
H404   H     0.17094   0.87510   0.28609   0.00000  Uiso   1.00
H405   H     0.12355   0.96501   0.11840   0.00000  Uiso   1.00
H406   H     0.15905   0.91038   0.14013   0.00000  Uiso   1.00
H407   H     0.19674   0.97446   0.14176   0.00000  Uiso   1.00
H408   H     0.23227   0.93317   0.07126   0.00000  Uiso   1.00
H409   H     0.17892   0.97106   0.04872   0.00000  Uiso   1.00
H410   H     0.10063   0.69989   0.49132   0.00000  Uiso   1.00
H411   H     0.05599   0.72930   0.44626   0.00000  Uiso   1.00
H412   H     0.25559   0.73393   0.45398   0.00000  Uiso   1.00
H413   H     0.07704   0.99772   0.43486   0.00000  Uiso   1.00
H414   H     0.13406   0.73440   0.39060   0.00000  Uiso   1.00
H415   H     0.17238   0.69252   0.42479   0.00000  Uiso   1.00
H416   H     0.22285   0.85861   0.11207   0.00000  Uiso   1.00
H417   H     0.11310   0.81115   0.38763   0.00000  Uiso   1.00
H418   H     0.04071   0.77924   0.09260   0.00000  Uiso   1.00
H419   H     0.28919   0.88084   0.40889   0.00000  Uiso   1.00
H420   H     0.32328   0.90739   0.49253   0.00000  Uiso   1.00
H421   H     0.00383   0.74892   0.01088   0.00000  Uiso   1.00
H422   H     0.06604   0.67008   0.24428   0.00000  Uiso   1.00
N423   N     0.14695   0.81883   0.23739   0.00000  Uiso   1.00
N424   N     0.18638   0.84784   0.26260   0.00000  Uiso   1.00
O425   O     0.29719   0.91298   0.25309   0.00000  Uiso   1.00
O426   O     0.03614   0.75369   0.24690   0.00000  Uiso   1.00
O427   O     0.05822   0.90368   0.24501   0.00000  Uiso   1.00
O428   O     0.27512   0.76298   0.25498   0.00000  Uiso   1.00
O429   O     0.30328   0.84063   0.32247   0.00000  Uiso   1.00
O430   O     0.03005   0.82603   0.17753   0.00000  Uiso   1.00
O431   O     0.06431   0.83134   0.31439   0.00000  Uiso   1.00
O432   O     0.26902   0.83533   0.18561   0.00000  Uiso   1.00
Zn433  Zn    0.27033   0.83954   0.25539   0.00000  Uiso   1.00
Zn434  Zn    0.06300   0.82713   0.24460   0.00000  Uiso   1.00
C435   C     0.34840   0.93156   0.24870   0.00000  Uiso   1.00
C436   C     0.64540   0.82927   0.15914   0.00000  Uiso   1.00
C437   C     0.36530   0.84192   0.39305   0.00000  Uiso   1.00
C438   C     0.63406   0.82262   0.10714   0.00000  Uiso   1.00
C439   C     0.34835   0.88240   0.47083   0.00000  Uiso   1.00
C440   C     0.64719   0.77638   0.03128   0.00000  Uiso   1.00
C441   C     0.66253   0.86771   0.42320   0.00000  Uiso   1.00
C442   C     0.33463   0.79324   0.07799   0.00000  Uiso   1.00
C443   C     0.41638   0.82532   0.41206   0.00000  Uiso   1.00
C444   C     0.58343   0.83976   0.08792   0.00000  Uiso   1.00
C445   C     0.43285   0.83379   0.46082   0.00000  Uiso   1.00
C446   C     0.65157   0.73509   0.25113   0.00000  Uiso   1.00
C447   C     0.56447   0.82772   0.03998   0.00000  Uiso   1.00
C448   C     0.40185   0.86832   0.48868   0.00000  Uiso   1.00
C449   C     0.59414   0.79124   0.01311   0.00000  Uiso   1.00
C450   C     0.48455   0.81609   0.47977   0.00000  Uiso   1.00
C451   C     0.51230   0.84486   0.02109   0.00000  Uiso   1.00
C452   C     0.51872   0.93594   0.06962   0.00000  Uiso   1.00
C453   C     0.49826   0.94676   0.12052   0.00000  Uiso   1.00
C454   C     0.47797   0.72564   0.42849   0.00000  Uiso   1.00
C455   C     0.42471   0.70374   0.45195   0.00000  Uiso   1.00
C456   C     0.48584   0.88873   0.04237   0.00000  Uiso   1.00
C457   C     0.51030   0.77160   0.45872   0.00000  Uiso   1.00
C458   C     0.42829   0.89458   0.02997   0.00000  Uiso   1.00
C459   C     0.56744   0.76483   0.47200   0.00000  Uiso   1.00
C460   C     0.35621   0.98616   0.24788   0.00000  Uiso   1.00
C461   C     0.64370   0.68046   0.25165   0.00000  Uiso   1.00
C462   C     0.35455   0.83722   0.34089   0.00000  Uiso   1.00
H463   H     0.40696   0.92568   0.04775   0.00000  Uiso   1.00
H464   H     0.60053   0.99654   0.25519   0.00000  Uiso   1.00
H465   H     0.49572   0.79159   0.21389   0.00000  Uiso   1.00
H466   H     0.50428   0.87510   0.28609   0.00000  Uiso   1.00
H467   H     0.45689   0.96501   0.11840   0.00000  Uiso   1.00
H468   H     0.49238   0.91038   0.14013   0.00000  Uiso   1.00
H469   H     0.53008   0.97446   0.14176   0.00000  Uiso   1.00
H470   H     0.56561   0.93317   0.07126   0.00000  Uiso   1.00
H471   H     0.51226   0.97106   0.04872   0.00000  Uiso   1.00
H472   H     0.43396   0.69989   0.49132   0.00000  Uiso   1.00
H473   H     0.38932   0.72930   0.44626   0.00000  Uiso   1.00
H474   H     0.58892   0.73393   0.45398   0.00000  Uiso   1.00
H475   H     0.41037   0.99772   0.43486   0.00000  Uiso   1.00
H476   H     0.46740   0.73440   0.39060   0.00000  Uiso   1.00
H477   H     0.50571   0.69252   0.42479   0.00000  Uiso   1.00
H478   H     0.55618   0.85861   0.11207   0.00000  Uiso   1.00
H479   H     0.44644   0.81115   0.38763   0.00000  Uiso   1.00
H480   H     0.37405   0.77924   0.09260   0.00000  Uiso   1.00
H481   H     0.62253   0.88084   0.40889   0.00000  Uiso   1.00
H482   H     0.65661   0.90739   0.49253   0.00000  Uiso   1.00
H483   H     0.33717   0.74892   0.01088   0.00000  Uiso   1.00
H484   H     0.39937   0.67008   0.24428   0.00000  Uiso   1.00
N485   N     0.48029   0.81883   0.23739   0.00000  Uiso   1.00
N486   N     0.51971   0.84784   0.26260   0.00000  Uiso   1.00
O487   O     0.63052   0.91298   0.25309   0.00000  Uiso   1.00
O488   O     0.36948   0.75369   0.24690   0.00000  Uiso   1.00
O489   O     0.39155   0.90368   0.24501   0.00000  Uiso   1.00
O490   O     0.60845   0.76298   0.25498   0.00000  Uiso   1.00
O491   O     0.63662   0.84063   0.32247   0.00000  Uiso   1.00
O492   O     0.36338   0.82603   0.17753   0.00000  Uiso   1.00
O493   O     0.39764   0.83134   0.31439   0.00000  Uiso   1.00
O494   O     0.60236   0.83533   0.18561   0.00000  Uiso   1.00
Zn495  Zn    0.60366   0.83954   0.25539   0.00000  Uiso   1.00
Zn496  Zn    0.39634   0.82713   0.24460   0.00000  Uiso   1.00
C497   C     0.68174   0.93156   0.24870   0.00000  Uiso   1.00
C498   C     0.97874   0.82927   0.15914   0.00000  Uiso   1.00
C499   C     0.69863   0.84192   0.39305   0.00000  Uiso   1.00
C500   C     0.96739   0.82262   0.10714   0.00000  Uiso   1.00
C501   C     0.68169   0.88240   0.47083   0.00000  Uiso   1.00
C502   C     0.98052   0.77638   0.03128   0.00000  Uiso   1.00
C503   C     0.99586   0.86771   0.42320   0.00000  Uiso   1.00
C504   C     0.66796   0.79324   0.07799   0.00000  Uiso   1.00
C505   C     0.74972   0.82532   0.41206   0.00000  Uiso   1.00
C506   C     0.91676   0.83976   0.08792   0.00000  Uiso   1.00
C507   C     0.76618   0.83379   0.46082   0.00000  Uiso   1.00
C508   C     0.98490   0.73509   0.25113   0.00000  Uiso   1.00
C509   C     0.89780   0.82772   0.03998   0.00000  Uiso   1.00
C510   C     0.73519   0.86832   0.48868   0.00000  Uiso   1.00
C511   C     0.92748   0.79124   0.01311   0.00000  Uiso   1.00
C512   C     0.81789   0.81609   0.47977   0.00000  Uiso   1.00
C513   C     0.84563   0.84486   0.02109   0.00000  Uiso   1.00
C514   C     0.85205   0.93594   0.06962   0.00000  Uiso   1.00
C515   C     0.83159   0.94676   0.12052   0.00000  Uiso   1.00
C516   C     0.81131   0.72564   0.42849   0.00000  Uiso   1.00
C517   C     0.75805   0.70374   0.45195   0.00000  Uiso   1.00
C518   C     0.81918   0.88873   0.04237   0.00000  Uiso   1.00
C519   C     0.84363   0.77160   0.45872   0.00000  Uiso   1.00
C520   C     0.76163   0.89458   0.02997   0.00000  Uiso   1.00
C521   C     0.90077   0.76483   0.47200   0.00000  Uiso   1.00
C522   C     0.68955   0.98616   0.24788   0.00000  Uiso   1.00
C523   C     0.97703   0.68046   0.25165   0.00000  Uiso   1.00
C524   C     0.68789   0.83722   0.34089   0.00000  Uiso   1.00
H525   H     0.74029   0.92568   0.04775   0.00000  Uiso   1.00
H526   H     0.93387   0.99654   0.25519   0.00000  Uiso   1.00
H527   H     0.82906   0.79159   0.21389   0.00000  Uiso   1.00
H528   H     0.83761   0.87510   0.28609   0.00000  Uiso   1.00
H529   H     0.79022   0.96501   0.11840   0.00000  Uiso   1.00
H530   H     0.82571   0.91038   0.14013   0.00000  Uiso   1.00
H531   H     0.86341   0.97446   0.14176   0.00000  Uiso   1.00
H532   H     0.89894   0.93317   0.07126   0.00000  Uiso   1.00
H533   H     0.84559   0.97106   0.04872   0.00000  Uiso   1.00
H534   H     0.76730   0.69989   0.49132   0.00000  Uiso   1.00
H535   H     0.72266   0.72930   0.44626   0.00000  Uiso   1.00
H536   H     0.92226   0.73393   0.45398   0.00000  Uiso   1.00
H537   H     0.74371   0.99772   0.43486   0.00000  Uiso   1.00
H538   H     0.80073   0.73440   0.39060   0.00000  Uiso   1.00
H539   H     0.83905   0.69252   0.42479   0.00000  Uiso   1.00
H540   H     0.88951   0.85861   0.11207   0.00000  Uiso   1.00
H541   H     0.77977   0.81115   0.38763   0.00000  Uiso   1.00
H542   H     0.70738   0.77924   0.09260   0.00000  Uiso   1.00
H543   H     0.95586   0.88084   0.40889   0.00000  Uiso   1.00
H544   H     0.98994   0.90739   0.49253   0.00000  Uiso   1.00
H545   H     0.67050   0.74892   0.01088   0.00000  Uiso   1.00
H546   H     0.73270   0.67008   0.24428   0.00000  Uiso   1.00
N547   N     0.81362   0.81883   0.23739   0.00000  Uiso   1.00
N548   N     0.85305   0.84784   0.26260   0.00000  Uiso   1.00
O549   O     0.96386   0.91298   0.25309   0.00000  Uiso   1.00
O550   O     0.70281   0.75369   0.24690   0.00000  Uiso   1.00
O551   O     0.72488   0.90368   0.24501   0.00000  Uiso   1.00
O552   O     0.94178   0.76298   0.25498   0.00000  Uiso   1.00
O553   O     0.96995   0.84063   0.32247   0.00000  Uiso   1.00
O554   O     0.69672   0.82603   0.17753   0.00000  Uiso   1.00
O555   O     0.73098   0.83134   0.31439   0.00000  Uiso   1.00
O556   O     0.93569   0.83533   0.18561   0.00000  Uiso   1.00
Zn557  Zn    0.93700   0.83954   0.25539   0.00000  Uiso   1.00
Zn558  Zn    0.72967   0.82713   0.24460   0.00000  Uiso   1.00
C559   C     0.01507   0.26489   0.74870   0.00000  Uiso   1.00
C560   C     0.31207   0.16260   0.65914   0.00000  Uiso   1.00
C561   C     0.03196   0.17525   0.89305   0.00000  Uiso   1.00
C562   C     0.30073   0.15595   0.60714   0.00000  Uiso   1.00
C563   C     0.01502   0.21573   0.97083   0.00000  Uiso   1.00
C564   C     0.31385   0.10971   0.53128   0.00000  Uiso   1.00
C565   C     0.32919   0.20105   0.92320   0.00000  Uiso   1.00
C566   C     0.00130   0.12658   0.57799   0.00000  Uiso   1.00
C567   C     0.08305   0.15866   0.91206   0.00000  Uiso   1.00
C568   C     0.25009   0.17310   0.58792   0.00000  Uiso   1.00
C569   C     0.09951   0.16712   0.96082   0.00000  Uiso   1.00
C570   C     0.31823   0.06843   0.75113   0.00000  Uiso   1.00
C571   C     0.23113   0.16105   0.53998   0.00000  Uiso   1.00
C572   C     0.06852   0.20165   0.98868   0.00000  Uiso   1.00
C573   C     0.26081   0.12458   0.51311   0.00000  Uiso   1.00
C574   C     0.15122   0.14942   0.97977   0.00000  Uiso   1.00
C575   C     0.17896   0.17820   0.52109   0.00000  Uiso   1.00
C576   C     0.18539   0.26928   0.56962   0.00000  Uiso   1.00
C577   C     0.16493   0.28009   0.62052   0.00000  Uiso   1.00
C578   C     0.14464   0.05897   0.92849   0.00000  Uiso   1.00
C579   C     0.09138   0.03708   0.95195   0.00000  Uiso   1.00
C580   C     0.15251   0.22206   0.54237   0.00000  Uiso   1.00
C581   C     0.17696   0.10493   0.95872   0.00000  Uiso   1.00
C582   C     0.09496   0.22791   0.52997   0.00000  Uiso   1.00
C583   C     0.23411   0.09816   0.97200   0.00000  Uiso   1.00
C584   C     0.02288   0.31950   0.74788   0.00000  Uiso   1.00
C585   C     0.31037   0.01380   0.75165   0.00000  Uiso   1.00
C586   C     0.02122   0.17055   0.84089   0.00000  Uiso   1.00
H587   H     0.07362   0.25901   0.54775   0.00000  Uiso   1.00
H588   H     0.26720   0.32987   0.75519   0.00000  Uiso   1.00
H589   H     0.16239   0.12492   0.71389   0.00000  Uiso   1.00
H590   H     0.17094   0.20844   0.78609   0.00000  Uiso   1.00
H591   H     0.12355   0.29834   0.61840   0.00000  Uiso   1.00
H592   H     0.15905   0.24371   0.64013   0.00000  Uiso   1.00
H593   H     0.19674   0.30779   0.64176   0.00000  Uiso   1.00
H594   H     0.23227   0.26651   0.57126   0.00000  Uiso   1.00
H595   H     0.17892   0.30440   0.54872   0.00000  Uiso   1.00
H596   H     0.10063   0.03322   0.99132   0.00000  Uiso   1.00
H597   H     0.05599   0.06263   0.94626   0.00000  Uiso   1.00
H598   H     0.25559   0.06726   0.95398   0.00000  Uiso   1.00
H599   H     0.07704   0.33105   0.93486   0.00000  Uiso   1.00
H600   H     0.13406   0.06773   0.89060   0.00000  Uiso   1.00
H601   H     0.17238   0.02585   0.92479   0.00000  Uiso   1.00
H602   H     0.22285   0.19195   0.61207   0.00000  Uiso   1.00
H603   H     0.11310   0.14448   0.88763   0.00000  Uiso   1.00
H604   H     0.04071   0.11258   0.59260   0.00000  Uiso   1.00
H605   H     0.28919   0.21418   0.90889   0.00000  Uiso   1.00
H606   H     0.32328   0.24072   0.99253   0.00000  Uiso   1.00
H607   H     0.00383   0.08225   0.51088   0.00000  Uiso   1.00
H608   H     0.06604   0.00342   0.74428   0.00000  Uiso   1.00
N609   N     0.14695   0.15216   0.73739   0.00000  Uiso   1.00
N610   N     0.18638   0.18117   0.76260   0.00000  Uiso   1.00
O611   O     0.29719   0.24631   0.75309   0.00000  Uiso   1.00
O612   O     0.03614   0.08702   0.74690   0.00000  Uiso   1.00
O613   O     0.05822   0.23702   0.74501   0.00000  Uiso   1.00
O614   O     0.27512   0.09632   0.75498   0.00000  Uiso   1.00
O615   O     0.30328   0.17397   0.82247   0.00000  Uiso   1.00
O616   O     0.03005   0.15937   0.67753   0.00000  Uiso   1.00
O617   O     0.06431   0.16467   0.81439   0.00000  Uiso   1.00
O618   O     0.26902   0.16866   0.68561   0.00000  Uiso   1.00
Zn619  Zn    0.27033   0.17287   0.75539   0.00000  Uiso   1.00
Zn620  Zn    0.06300   0.16046   0.74460   0.00000  Uiso   1.00
C621   C     0.34840   0.26489   0.74870   0.00000  Uiso   1.00
C622   C     0.64540   0.16260   0.65914   0.00000  Uiso   1.00
C623   C     0.36530   0.17525   0.89305   0.00000  Uiso   1.00
C624   C     0.63406   0.15595   0.60714   0.00000  Uiso   1.00
C625   C     0.34835   0.21573   0.97083   0.00000  Uiso   1.00
C626   C     0.64719   0.10971   0.53128   0.00000  Uiso   1.00
C627   C     0.66253   0.20105   0.92320   0.00000  Uiso   1.00
C628   C     0.33463   0.12658   0.57799   0.00000  Uiso   1.00
C629   C     0.41638   0.15866   0.91206   0.00000  Uiso   1.00
C630   C     0.58343   0.17310   0.58792   0.00000  Uiso   1.00
C631   C     0.43285   0.16712   0.96082   0.00000  Uiso   1.00
C632   C     0.65157   0.06843   0.75113   0.00000  Uiso   1.00
C633   C     0.56447   0.16105   0.53998   0.00000  Uiso   1.00
C634   C     0.40185   0.20165   0.98868   0.00000  Uiso   1.00
C635   C     0.59414   0.12458   0.51311   0.00000  Uiso   1.00
C636   C     0.48455   0.14942   0.97977   0.00000  Uiso   1.00
C637   C     0.51230   0.17820   0.52109   0.00000  Uiso   1.00
C638   C     0.51872   0.26928   0.56962   0.00000  Uiso   1.00
C639   C     0.49826   0.28009   0.62052   0.00000  Uiso   1.00
C640   C     0.47797   0.05897   0.92849   0.00000  Uiso   1.00
C641   C     0.42471   0.03708   0.95195   0.00000  Uiso   1.00
C642   C     0.48584   0.22206   0.54237   0.00000  Uiso   1.00
C643   C     0.51030   0.10493   0.95872   0.00000  Uiso   1.00
C644   C     0.42829   0.22791   0.52997   0.00000  Uiso   1.00
C645   C     0.56744   0.09816   0.97200   0.00000  Uiso   1.00
C646   C     0.35621   0.31950   0.74788   0.00000  Uiso   1.00
C647   C     0.64370   0.01380   0.75165   0.00000  Uiso   1.00
C648   C     0.35455   0.17055   0.84089   0.00000  Uiso   1.00
H649   H     0.40696   0.25901   0.54775   0.00000  Uiso   1.00
H650   H     0.60053   0.32987   0.75519   0.00000  Uiso   1.00
H651   H     0.49572   0.12492   0.71389   0.00000  Uiso   1.00
H652   H     0.50428   0.20844   0.78609   0.00000  Uiso   1.00
H653   H     0.45689   0.29834   0.61840   0.00000  Uiso   1.00
H654   H     0.49238   0.24371   0.64013   0.00000  Uiso   1.00
H655   H     0.53008   0.30779   0.64176   0.00000  Uiso   1.00
H656   H     0.56561   0.26651   0.57126   0.00000  Uiso   1.00
H657   H     0.51226   0.30440   0.54872   0.00000  Uiso   1.00
H658   H     0.43396   0.03322   0.99132   0.00000  Uiso   1.00
H659   H     0.38932   0.06263   0.94626   0.00000  Uiso   1.00
H660   H     0.58892   0.06726   0.95398   0.00000  Uiso   1.00
H661   H     0.41037   0.33105   0.93486   0.00000  Uiso   1.00
H662   H     0.46740   0.06773   0.89060   0.00000  Uiso   1.00
H663   H     0.50571   0.02585   0.92479   0.00000  Uiso   1.00
H664   H     0.55618   0.19195   0.61207   0.00000  Uiso   1.00
H665   H     0.44644   0.14448   0.88763   0.00000  Uiso   1.00
H666   H     0.37405   0.11258   0.59260   0.00000  Uiso   1.00
H667   H     0.62253   0.21418   0.90889   0.00000  Uiso   1.00
H668   H     0.65661   0.24072   0.99253   0.00000  Uiso   1.00
H669   H     0.33717   0.08225   0.51088   0.00000  Uiso   1.00
H670   H     0.39937   0.00342   0.74428   0.00000  Uiso   1.00
N671   N     0.48029   0.15216   0.73739   0.00000  Uiso   1.00
N672   N     0.51971   0.18117   0.76260   0.00000  Uiso   1.00
O673   O     0.63052   0.24631   0.75309   0.00000  Uiso   1.00
O674   O     0.36948   0.08702   0.74690   0.00000  Uiso   1.00
O675   O     0.39155   0.23702   0.74501   0.00000  Uiso   1.00
O676   O     0.60845   0.09632   0.75498   0.00000  Uiso   1.00
O677   O     0.63662   0.17397   0.82247   0.00000  Uiso   1.00
O678   O     0.36338   0.15937   0.67753   0.00000  Uiso   1.00
O679   O     0.39764   0.16467   0.81439   0.00000  Uiso   1.00
O680   O     0.60236   0.16866   0.68561   0.00000  Uiso   1.00
Zn681  Zn    0.60366   0.17287   0.75539   0.00000  Uiso   1.00
Zn682  Zn    0.39634   0.16046   0.74460   0.00000  Uiso   1.00
C683   C     0.68174   0.26489   0.74870   0.00000  Uiso   1.00
C684   C     0.97874   0.16260   0.65914   0.00000  Uiso   1.00
C685   C     0.69863   0.17525   0.89305   0.00000  Uiso   1.00
C686   C     0.96739   0.15595   0.60714   0.00000  Uiso   1.00
C687   C     0.68169   0.21573   0.97083   0.00000  Uiso   1.00
C688   C     0.98052   0.10971   0.53128   0.00000  Uiso   1.00
C689   C     0.99586   0.20105   0.92320   0.00000  Uiso   1.00
C690   C     0.66796   0.12658   0.57799   0.00000  Uiso   1.00
C691   C     0.74972   0.15866   0.91206   0.00000  Uiso   1.00
C692   C     0.91676   0.17310   0.58792   0.00000  Uiso   1.00
C693   C     0.76618   0.16712   0.96082   0.00000  Uiso   1.00
C694   C     0.98490   0.06843   0.75113   0.00000  Uiso   1.00
C695   C     0.89780   0.16105   0.53998   0.00000  Uiso   1.00
C696   C     0.73519   0.20165   0.98868   0.00000  Uiso   1.00
C697   C     0.92748   0.12458   0.51311   0.00000  Uiso   1.00
C698   C     0.81789   0.14942   0.97977   0.00000  Uiso   1.00
C699   C     0.84563   0.17820   0.52109   0.00000  Uiso   1.00
C700   C     0.85205   0.26928   0.56962   0.00000  Uiso   1.00
C701   C     0.83159   0.28009   0.62052   0.00000  Uiso   1.00
C702   C     0.81131   0.05897   0.92849   0.00000  Uiso   1.00
C703   C     0.75805   0.03708   0.95195   0.00000  Uiso   1.00
C704   C     0.81918   0.22206   0.54237   0.00000  Uiso   1.00
C705   C     0.84363   0.10493   0.95872   0.00000  Uiso   1.00
C706   C     0.76163   0.22791   0.52997   0.00000  Uiso   1.00
C707   C     0.90077   0.09816   0.97200   0.00000  Uiso   1.00
C708   C     0.68955   0.31950   0.74788   0.00000  Uiso   1.00
C709   C     0.97703   0.01380   0.75165   0.00000  Uiso   1.00
C710   C     0.68789   0.17055   0.84089   0.00000  Uiso   1.00
H711   H     0.74029   0.25901   0.54775   0.00000  Uiso   1.00
H712   H     0.93387   0.32987   0.75519   0.00000  Uiso   1.00
H713   H     0.82906   0.12492   0.71389   0.00000  Uiso   1.00
H714   H     0.83761   0.20844   0.78609   0.00000  Uiso   1.00
H715   H     0.79022   0.29834   0.61840   0.00000  Uiso   1.00
H716   H     0.82571   0.24371   0.64013   0.00000  Uiso   1.00
H717   H     0.86341   0.30779   0.64176   0.00000  Uiso   1.00
H718   H     0.89894   0.26651   0.57126   0.00000  Uiso   1.00
H719   H     0.84559   0.30440   0.54872   0.00000  Uiso   1.00
H720   H     0.76730   0.03322   0.99132   0.00000  Uiso   1.00
H721   H     0.72266   0.06263   0.94626   0.00000  Uiso   1.00
H722   H     0.92226   0.06726   0.95398   0.00000  Uiso   1.00
H723   H     0.74371   0.33105   0.93486   0.00000  Uiso   1.00
H724   H     0.80073   0.06773   0.89060   0.00000  Uiso   1.00
H725   H     0.83905   0.02585   0.92479   0.00000  Uiso   1.00
H726   H     0.88951   0.19195   0.61207   0.00000  Uiso   1.00
H727   H     0.77977   0.14448   0.88763   0.00000  Uiso   1.00
H728   H     0.70738   0.11258   0.59260   0.00000  Uiso   1.00
H729   H     0.95586   0.21418   0.90889   0.00000  Uiso   1.00
H730   H     0.98994   0.24072   0.99253   0.00000  Uiso   1.00
H731   H     0.67050   0.08225   0.51088   0.00000  Uiso   1.00
H732   H     0.73270   0.00342   0.74428   0.00000  Uiso   1.00
N733   N     0.81362   0.15216   0.73739   0.00000  Uiso   1.00
N734   N     0.85305   0.18117   0.76260   0.00000  Uiso   1.00
O735   O     0.96386   0.24631   0.75309   0.00000  Uiso   1.00
O736   O     0.70281   0.08702   0.74690   0.00000  Uiso   1.00
O737   O     0.72488   0.23702   0.74501   0.00000  Uiso   1.00
O738   O     0.94178   0.09632   0.75498   0.00000  Uiso   1.00
O739   O     0.96995   0.17397   0.82247   0.00000  Uiso   1.00
O740   O     0.69672   0.15937   0.67753   0.00000  Uiso   1.00
O741   O     0.73098   0.16467   0.81439   0.00000  Uiso   1.00
O742   O     0.93569   0.16866   0.68561   0.00000  Uiso   1.00
Zn743  Zn    0.93700   0.17287   0.75539   0.00000  Uiso   1.00
Zn744  Zn    0.72967   0.16046   0.74460   0.00000  Uiso   1.00
C745   C     0.01507   0.59823   0.74870   0.00000  Uiso   1.00
C746   C     0.31207   0.49593   0.65914   0.00000  Uiso   1.00
C747   C     0.03196   0.50858   0.89305   0.00000  Uiso   1.00
C748   C     0.30073   0.48929   0.60714   0.00000  Uiso   1.00
C749   C     0.01502   0.54907   0.97083   0.00000  Uiso   1.00
C750   C     0.31385   0.44304   0.53128   0.00000  Uiso   1.00
C751   C     0.32919   0.53438   0.92320   0.00000  Uiso   1.00
C752   C     0.00130   0.45991   0.57799   0.00000  Uiso   1.00
C753   C     0.08305   0.49199   0.91206   0.00000  Uiso   1.00
C754   C     0.25009   0.50643   0.58792   0.00000  Uiso   1.00
C755   C     0.09951   0.50046   0.96082   0.00000  Uiso   1.00
C756   C     0.31823   0.40176   0.75113   0.00000  Uiso   1.00
C757   C     0.23113   0.49438   0.53998   0.00000  Uiso   1.00
C758   C     0.06852   0.53498   0.98868   0.00000  Uiso   1.00
C759   C     0.26081   0.45791   0.51311   0.00000  Uiso   1.00
C760   C     0.15122   0.48275   0.97977   0.00000  Uiso   1.00
C761   C     0.17896   0.51153   0.52109   0.00000  Uiso   1.00
C762   C     0.18539   0.60261   0.56962   0.00000  Uiso   1.00
C763   C     0.16493   0.61342   0.62052   0.00000  Uiso   1.00
C764   C     0.14464   0.39230   0.92849   0.00000  Uiso   1.00
C765   C     0.09138   0.37041   0.95195   0.00000  Uiso   1.00
C766   C     0.15251   0.55540   0.54237   0.00000  Uiso   1.00
C767   C     0.17696   0.43826   0.95872   0.00000  Uiso   1.00
C768   C     0.09496   0.56124   0.52997   0.00000  Uiso   1.00
C769   C     0.23411   0.43149   0.97200   0.00000  Uiso   1.00
C770   C     0.02288   0.65283   0.74788   0.00000  Uiso   1.00
C771   C     0.31037   0.34713   0.75165   0.00000  Uiso   1.00
C772   C     0.02122   0.50388   0.84089   0.00000  Uiso   1.00
H773   H     0.07362   0.59234   0.54775   0.00000  Uiso   1.00
H774   H     0.26720   0.66321   0.75519   0.00000  Uiso   1.00
H775   H     0.16239   0.45825   0.71389   0.00000  Uiso   1.00
H776   H     0.17094   0.54177   0.78609   0.00000  Uiso   1.00
H777   H     0.12355   0.63167   0.61840   0.00000  Uiso   1.00
H778   H     0.15905   0.57705   0.64013   0.00000  Uiso   1.00
H779   H     0.19674   0.64112   0.64176   0.00000  Uiso   1.00
H780   H     0.23227   0.59984   0.57126   0.00000  Uiso   1.00
H781   H     0.17892   0.63773   0.54872   0.00000  Uiso   1.00
H782   H     0.10063   0.36656   0.99132   0.00000  Uiso   1.00
H783   H     0.05599   0.39596   0.94626   0.00000  Uiso   1.00
H784   H     0.25559   0.40060   0.95398   0.00000  Uiso   1.00
H785   H     0.07704   0.66439   0.93486   0.00000  Uiso   1.00
H786   H     0.13406   0.40107   0.89060   0.00000  Uiso   1.00
H787   H     0.17238   0.35919   0.92479   0.00000  Uiso   1.00
H788   H     0.22285   0.52528   0.61207   0.00000  Uiso   1.00
H789   H     0.11310   0.47781   0.88763   0.00000  Uiso   1.00
H790   H     0.04071   0.44591   0.59260   0.00000  Uiso   1.00
H791   H     0.28919   0.54751   0.90889   0.00000  Uiso   1.00
H792   H     0.32328   0.57405   0.99253   0.00000  Uiso   1.00
H793   H     0.00383   0.41559   0.51088   0.00000  Uiso   1.00
H794   H     0.06604   0.33675   0.74428   0.00000  Uiso   1.00
N795   N     0.14695   0.48550   0.73739   0.00000  Uiso   1.00
N796   N     0.18638   0.51450   0.76260   0.00000  Uiso   1.00
O797   O     0.29719   0.57964   0.75309   0.00000  Uiso   1.00
O798   O     0.03614   0.42036   0.74690   0.00000  Uiso   1.00
O799   O     0.05822   0.57035   0.74501   0.00000  Uiso   1.00
O800   O     0.27512   0.42965   0.75498   0.00000  Uiso   1.00
O801   O     0.30328   0.50730   0.82247   0.00000  Uiso   1.00
O802   O     0.03005   0.49270   0.67753   0.00000  Uiso   1.00
O803   O     0.06431   0.49801   0.81439   0.00000  Uiso   1.00
O804   O     0.26902   0.50199   0.68561   0.00000  Uiso   1.00
Zn805  Zn    0.27033   0.50621   0.75539   0.00000  Uiso   1.00
Zn806  Zn    0.06300   0.49379   0.74460   0.00000  Uiso   1.00
C807   C     0.34840   0.59823   0.74870   0.00000  Uiso   1.00
C808   C     0.64540   0.49593   0.65914   0.00000  Uiso   1.00
C809   C     0.36530   0.50858   0.89305   0.00000  Uiso   1.00
C810   C     0.63406   0.48929   0.60714   0.00000  Uiso   1.00
C811   C     0.34835   0.54907   0.97083   0.00000  Uiso   1.00
C812   C     0.64719   0.44304   0.53128   0.00000  Uiso   1.00
C813   C     0.66253   0.53438   0.92320   0.00000  Uiso   1.00
C814   C     0.33463   0.45991   0.57799   0.00000  Uiso   1.00
C815   C     0.41638   0.49199   0.91206   0.00000  Uiso   1.00
C816   C     0.58343   0.50643   0.58792   0.00000  Uiso   1.00
C817   C     0.43285   0.50046   0.96082   0.00000  Uiso   1.00
C818   C     0.65157   0.40176   0.75113   0.00000  Uiso   1.00
C819   C     0.56447   0.49438   0.53998   0.00000  Uiso   1.00
C820   C     0.40185   0.53498   0.98868   0.00000  Uiso   1.00
C821   C     0.59414   0.45791   0.51311   0.00000  Uiso   1.00
C822   C     0.48455   0.48275   0.97977   0.00000  Uiso   1.00
C823   C     0.51230   0.51153   0.52109   0.00000  Uiso   1.00
C824   C     0.51872   0.60261   0.56962   0.00000  Uiso   1.00
C825   C     0.49826   0.61342   0.62052   0.00000  Uiso   1.00
C826   C     0.47797   0.39230   0.92849   0.00000  Uiso   1.00
C827   C     0.42471   0.37041   0.95195   0.00000  Uiso   1.00
C828   C     0.48584   0.55540   0.54237   0.00000  Uiso   1.00
C829   C     0.51030   0.43826   0.95872   0.00000  Uiso   1.00
C830   C     0.42829   0.56124   0.52997   0.00000  Uiso   1.00
C831   C     0.56744   0.43149   0.97200   0.00000  Uiso   1.00
C832   C     0.35621   0.65283   0.74788   0.00000  Uiso   1.00
C833   C     0.64370   0.34713   0.75165   0.00000  Uiso   1.00
C834   C     0.35455   0.50388   0.84089   0.00000  Uiso   1.00
H835   H     0.40696   0.59234   0.54775   0.00000  Uiso   1.00
H836   H     0.60053   0.66321   0.75519   0.00000  Uiso   1.00
H837   H     0.49572   0.45825   0.71389   0.00000  Uiso   1.00
H838   H     0.50428   0.54177   0.78609   0.00000  Uiso   1.00
H839   H     0.45689   0.63167   0.61840   0.00000  Uiso   1.00
H840   H     0.49238   0.57705   0.64013   0.00000  Uiso   1.00
H841   H     0.53008   0.64112   0.64176   0.00000  Uiso   1.00
H842   H     0.56561   0.59984   0.57126   0.00000  Uiso   1.00
H843   H     0.51226   0.63773   0.54872   0.00000  Uiso   1.00
H844   H     0.43396   0.36656   0.99132   0.00000  Uiso   1.00
H845   H     0.38932   0.39596   0.94626   0.00000  Uiso   1.00
H846   H     0.58892   0.40060   0.95398   0.00000  Uiso   1.00
H847   H     0.41037   0.66439   0.93486   0.00000  Uiso   1.00
H848   H     0.46740   0.40107   0.89060   0.00000  Uiso   1.00
H849   H     0.50571   0.35919   0.92479   0.00000  Uiso   1.00
H850   H     0.55618   0.52528   0.61207   0.00000  Uiso   1.00
H851   H     0.44644   0.47781   0.88763   0.00000  Uiso   1.00
H852   H     0.37405   0.44591   0.59260   0.00000  Uiso   1.00
H853   H     0.62253   0.54751   0.90889   0.00000  Uiso   1.00
H854   H     0.65661   0.57405   0.99253   0.00000  Uiso   1.00
H855   H     0.33717   0.41559   0.51088   0.00000  Uiso   1.00
H856   H     0.39937   0.33675   0.74428   0.00000  Uiso   1.00
N857   N     0.48029   0.48550   0.73739   0.00000  Uiso   1.00
N858   N     0.51971   0.51450   0.76260   0.00000  Uiso   1.00
O859   O     0.63052   0.57964   0.75309   0.00000  Uiso   1.00
O860   O     0.36948   0.42036   0.74690   0.00000  Uiso   1.00
O861   O     0.39155   0.57035   0.74501   0.00000  Uiso   1.00
O862   O     0.60845   0.42965   0.75498   0.00000  Uiso   1.00
O863   O     0.63662   0.50730   0.82247   0.00000  Uiso   1.00
O864   O     0.36338   0.49270   0.67753   0.00000  Uiso   1.00
O865   O     0.39764   0.49801   0.81439   0.00000  Uiso   1.00
O866   O     0.60236   0.50199   0.68561   0.00000  Uiso   1.00
Zn867  Zn    0.60366   0.50621   0.75539   0.00000  Uiso   1.00
Zn868  Zn    0.39634   0.49379   0.74460   0.00000  Uiso   1.00
C869   C     0.68174   0.59823   0.74870   0.00000  Uiso   1.00
C870   C     0.97874   0.49593   0.65914   0.00000  Uiso   1.00
C871   C     0.69863   0.50858   0.89305   0.00000  Uiso   1.00
C872   C     0.96739   0.48929   0.60714   0.00000  Uiso   1.00
C873   C     0.68169   0.54907   0.97083   0.00000  Uiso   1.00
C874   C     0.98052   0.44304   0.53128   0.00000  Uiso   1.00
C875   C     0.99586   0.53438   0.92320   0.00000  Uiso   1.00
C876   C     0.66796   0.45991   0.57799   0.00000  Uiso   1.00
C877   C     0.74972   0.49199   0.91206   0.00000  Uiso   1.00
C878   C     0.91676   0.50643   0.58792   0.00000  Uiso   1.00
C879   C     0.76618   0.50046   0.96082   0.00000  Uiso   1.00
C880   C     0.98490   0.40176   0.75113   0.00000  Uiso   1.00
C881   C     0.89780   0.49438   0.53998   0.00000  Uiso   1.00
C882   C     0.73519   0.53498   0.98868   0.00000  Uiso   1.00
C883   C     0.92748   0.45791   0.51311   0.00000  Uiso   1.00
C884   C     0.81789   0.48275   0.97977   0.00000  Uiso   1.00
C885   C     0.84563   0.51153   0.52109   0.00000  Uiso   1.00
C886   C     0.85205   0.60261   0.56962   0.00000  Uiso   1.00
C887   C     0.83159   0.61342   0.62052   0.00000  Uiso   1.00
C888   C     0.81131   0.39230   0.92849   0.00000  Uiso   1.00
C889   C     0.75805   0.37041   0.95195   0.00000  Uiso   1.00
C890   C     0.81918   0.55540   0.54237   0.00000  Uiso   1.00
C891   C     0.84363   0.43826   0.95872   0.00000  Uiso   1.00
C892   C     0.76163   0.56124   0.52997   0.00000  Uiso   1.00
C893   C     0.90077   0.43149   0.97200   0.00000  Uiso   1.00
C894   C     0.68955   0.65283   0.74788   0.00000  Uiso   1.00
C895   C     0.97703   0.34713   0.75165   0.00000  Uiso   1.00
C896   C     0.68789   0.50388   0.84089   0.00000  Uiso   1.00
H897   H     0.74029   0.59234   0.54775   0.00000  Uiso   1.00
H898   H     0.93387   0.66321   0.75519   0.00000  Uiso   1.00
H899   H     0.82906   0.45825   0.71389   0.00000  Uiso   1.00
H900   H     0.83761   0.54177   0.78609   0.00000  Uiso   1.00
H901   H     0.79022   0.63167   0.61840   0.00000  Uiso   1.00
H902   H     0.82571   0.57705   0.64013   0.00000  Uiso   1.00
H903   H     0.86341   0.64112   0.64176   0.00000  Uiso   1.00
H904   H     0.89894   0.59984   0.57126   0.00000  Uiso   1.00
H905   H     0.84559   0.63773   0.54872   0.00000  Uiso   1.00
H906   H     0.76730   0.36656   0.99132   0.00000  Uiso   1.00
H907   H     0.72266   0.39596   0.94626   0.00000  Uiso   1.00
H908   H     0.92226   0.40060   0.95398   0.00000  Uiso   1.00
H909   H     0.74371   0.66439   0.93486   0.00000  Uiso   1.00
H910   H     0.80073   0.40107   0.89060   0.00000  Uiso   1.00
H911   H     0.83905   0.35919   0.92479   0.00000  Uiso   1.00
H912   H     0.88951   0.52528   0.61207   0.00000  Uiso   1.00
H913   H     0.77977   0.47781   0.88763   0.00000  Uiso   1.00
H914   H     0.70738   0.44591   0.59260   0.00000  Uiso   1.00
H915   H     0.95586   0.54751   0.90889   0.00000  Uiso   1.00
H916   H     0.98994   0.57405   0.99253   0.00000  Uiso   1.00
H917   H     0.67050   0.41559   0.51088   0.00000  Uiso   1.00
H918   H     0.73270   0.33675   0.74428   0.00000  Uiso   1.00
N919   N     0.81362   0.48550   0.73739   0.00000  Uiso   1.00
N920   N     0.85305   0.51450   0.76260   0.00000  Uiso   1.00
O921   O     0.96386   0.57964   0.75309   0.00000  Uiso   1.00
O922   O     0.70281   0.42036   0.74690   0.00000  Uiso   1.00
O923   O     0.72488   0.57035   0.74501   0.00000  Uiso   1.00
O924   O     0.94178   0.42965   0.75498   0.00000  Uiso   1.00
O925   O     0.96995   0.50730   0.82247   0.00000  Uiso   1.00
O926   O     0.69672   0.49270   0.67753   0.00000  Uiso   1.00
O927   O     0.73098   0.49801   0.81439   0.00000  Uiso   1.00
O928   O     0.93569   0.50199   0.68561   0.00000  Uiso   1.00
Zn929  Zn    0.93700   0.50621   0.75539   0.00000  Uiso   1.00
Zn930  Zn    0.72967   0.49379   0.74460   0.00000  Uiso   1.00
C931   C     0.01507   0.93156   0.74870   0.00000  Uiso   1.00
C932   C     0.31207   0.82927   0.65914   0.00000  Uiso   1.00
C933   C     0.03196   0.84192   0.89305   0.00000  Uiso   1.00
C934   C     0.30073   0.82262   0.60714   0.00000  Uiso   1.00
C935   C     0.01502   0.88240   0.97083   0.00000  Uiso   1.00
C936   C     0.31385   0.77638   0.53128   0.00000  Uiso   1.00
C937   C     0.32919   0.86771   0.92320   0.00000  Uiso   1.00
C938   C     0.00130   0.79324   0.57799   0.00000  Uiso   1.00
C939   C     0.08305   0.82532   0.91206   0.00000  Uiso   1.00
C940   C     0.25009   0.83976   0.58792   0.00000  Uiso   1.00
C941   C     0.09951   0.83379   0.96082   0.00000  Uiso   1.00
C942   C     0.31823   0.73509   0.75113   0.00000  Uiso   1.00
C943   C     0.23113   0.82772   0.53998   0.00000  Uiso   1.00
C944   C     0.06852   0.86832   0.98868   0.00000  Uiso   1.00
C945   C     0.26081   0.79124   0.51311   0.00000  Uiso   1.00
C946   C     0.15122   0.81609   0.97977   0.00000  Uiso   1.00
C947   C     0.17896   0.84486   0.52109   0.00000  Uiso   1.00
C948   C     0.18539   0.93594   0.56962   0.00000  Uiso   1.00
C949   C     0.16493   0.94676   0.62052   0.00000  Uiso   1.00
C950   C     0.14464   0.72564   0.92849   0.00000  Uiso   1.00
C951   C     0.09138   0.70374   0.95195   0.00000  Uiso   1.00
C952   C     0.15251   0.88873   0.54237   0.00000  Uiso   1.00
C953   C     0.17696   0.77160   0.95872   0.00000  Uiso   1.00
C954   C     0.09496   0.89458   0.52997   0.00000  Uiso   1.00
C955   C     0.23411   0.76483   0.97200   0.00000  Uiso   1.00
C956   C     0.02288   0.98616   0.74788   0.00000  Uiso   1.00
C957   C     0.31037   0.68046   0.75165   0.00000  Uiso   1.00
C958   C     0.02122   0.83722   0.84089   0.00000  Uiso   1.00
H959   H     0.07362   0.92568   0.54775   0.00000  Uiso   1.00
H960   H     0.26720   0.99654   0.75519   0.00000  Uiso   1.00
H961   H     0.16239   0.79159   0.71389   0.00000  Uiso   1.00
H962   H     0.17094   0.87510   0.78609   0.00000  Uiso   1.00
H963   H     0.12355   0.96501   0.61840   0.00000  Uiso   1.00
H964   H     0.15905   0.91038   0.64013   0.00000  Uiso   1.00
H965   H     0.19674   0.97446   0.64176   0.00000  Uiso   1.00
H966   H     0.23227   0.93317   0.57126   0.00000  Uiso   1.00
H967   H     0.17892   0.97106   0.54872   0.00000  Uiso   1.00
H968   H     0.10063   0.69989   0.99132   0.00000  Uiso   1.00
H969   H     0.05599   0.72930   0.94626   0.00000  Uiso   1.00
H970   H     0.25559   0.73393   0.95398   0.00000  Uiso   1.00
H971   H     0.07704   0.99772   0.93486   0.00000  Uiso   1.00
H972   H     0.13406   0.73440   0.89060   0.00000  Uiso   1.00
H973   H     0.17238   0.69252   0.92479   0.00000  Uiso   1.00
H974   H     0.22285   0.85861   0.61207   0.00000  Uiso   1.00
H975   H     0.11310   0.81115   0.88763   0.00000  Uiso   1.00
H976   H     0.04071   0.77924   0.59260   0.00000  Uiso   1.00
H977   H     0.28919   0.88084   0.90889   0.00000  Uiso   1.00
H978   H     0.32328   0.90739   0.99253   0.00000  Uiso   1.00
H979   H     0.00383   0.74892   0.51088   0.00000  Uiso   1.00
H980   H     0.06604   0.67008   0.74428   0.00000  Uiso   1.00
N981   N     0.14695   0.81883   0.73739   0.00000  Uiso   1.00
N982   N     0.18638   0.84784   0.76260   0.00000  Uiso   1.00
O983   O     0.29719   0.91298   0.75309   0.00000  Uiso   1.00
O984   O     0.03614   0.75369   0.74690   0.00000  Uiso   1.00
O985   O     0.05822   0.90368   0.74501   0.00000  Uiso   1.00
O986   O     0.27512   0.76298   0.75498   0.00000  Uiso   1.00
O987   O     0.30328   0.84063   0.82247   0.00000  Uiso   1.00
O988   O     0.03005   0.82603   0.67753   0.00000  Uiso   1.00
O989   O     0.06431   0.83134   0.81439   0.00000  Uiso   1.00
O990   O     0.26902   0.83533   0.68561   0.00000  Uiso   1.00
Zn991  Zn    0.27033   0.83954   0.75539   0.00000  Uiso   1.00
Zn992  Zn    0.06300   0.82713   0.74460   0.00000  Uiso   1.00
C993   C     0.34840   0.93156   0.74870   0.00000  Uiso   1.00
C994   C     0.64540   0.82927   0.65914   0.00000  Uiso   1.00
C995   C     0.36530   0.84192   0.89305   0.00000  Uiso   1.00
C996   C     0.63406   0.82262   0.60714   0.00000  Uiso   1.00
C997   C     0.34835   0.88240   0.97083   0.00000  Uiso   1.00
C998   C     0.64719   0.77638   0.53128   0.00000  Uiso   1.00
C999   C     0.66253   0.86771   0.92320   0.00000  Uiso   1.00
C1000  C     0.33463   0.79324   0.57799   0.00000  Uiso   1.00
C1001  C     0.41638   0.82532   0.91206   0.00000  Uiso   1.00
C1002  C     0.58343   0.83976   0.58792   0.00000  Uiso   1.00
C1003  C     0.43285   0.83379   0.96082   0.00000  Uiso   1.00
C1004  C     0.65157   0.73509   0.75113   0.00000  Uiso   1.00
C1005  C     0.56447   0.82772   0.53998   0.00000  Uiso   1.00
C1006  C     0.40185   0.86832   0.98868   0.00000  Uiso   1.00
C1007  C     0.59414   0.79124   0.51311   0.00000  Uiso   1.00
C1008  C     0.48455   0.81609   0.97977   0.00000  Uiso   1.00
C1009  C     0.51230   0.84486   0.52109   0.00000  Uiso   1.00
C1010  C     0.51872   0.93594   0.56962   0.00000  Uiso   1.00
C1011  C     0.49826   0.94676   0.62052   0.00000  Uiso   1.00
C1012  C     0.47797   0.72564   0.92849   0.00000  Uiso   1.00
C1013  C     0.42471   0.70374   0.95195   0.00000  Uiso   1.00
C1014  C     0.48584   0.88873   0.54237   0.00000  Uiso   1.00
C1015  C     0.51030   0.77160   0.95872   0.00000  Uiso   1.00
C1016  C     0.42829   0.89458   0.52997   0.00000  Uiso   1.00
C1017  C     0.56744   0.76483   0.97200   0.00000  Uiso   1.00
C1018  C     0.35621   0.98616   0.74788   0.00000  Uiso   1.00
C1019  C     0.64370   0.68046   0.75165   0.00000  Uiso   1.00
C1020  C     0.35455   0.83722   0.84089   0.00000  Uiso   1.00
H1021  H     0.40696   0.92568   0.54775   0.00000  Uiso   1.00
H1022  H     0.60053   0.99654   0.75519   0.00000  Uiso   1.00
H1023  H     0.49572   0.79159   0.71389   0.00000  Uiso   1.00
H1024  H     0.50428   0.87510   0.78609   0.00000  Uiso   1.00
H1025  H     0.45689   0.96501   0.61840   0.00000  Uiso   1.00
H1026  H     0.49238   0.91038   0.64013   0.00000  Uiso   1.00
H1027  H     0.53008   0.97446   0.64176   0.00000  Uiso   1.00
H1028  H     0.56561   0.93317   0.57126   0.00000  Uiso   1.00
H1029  H     0.51226   0.97106   0.54872   0.00000  Uiso   1.00
H1030  H     0.43396   0.69989   0.99132   0.00000  Uiso   1.00
H1031  H     0.38932   0.72930   0.94626   0.00000  Uiso   1.00
H1032  H     0.58892   0.73393   0.95398   0.00000  Uiso   1.00
H1033  H     0.41037   0.99772   0.93486   0.00000  Uiso   1.00
H1034  H     0.46740   0.73440   0.89060   0.00000  Uiso   1.00
H1035  H     0.50571   0.69252   0.92479   0.00000  Uiso   1.00
H1036  H     0.55618   0.85861   0.61207   0.00000  Uiso   1.00
H1037  H     0.44644   0.81115   0.88763   0.00000  Uiso   1.00
H1038  H     0.37405   0.77924   0.59260   0.00000  Uiso   1.00
H1039  H     0.62253   0.88084   0.90889   0.00000  Uiso   1.00
H1040  H     0.65661   0.90739   0.99253   0.00000  Uiso   1.00
H1041  H     0.33717   0.74892   0.51088   0.00000  Uiso   1.00
H1042  H     0.39937   0.67008   0.74428   0.00000  Uiso   1.00
N1043  N     0.48029   0.81883   0.73739   0.00000  Uiso   1.00
N1044  N     0.51971   0.84784   0.76260   0.00000  Uiso   1.00
O1045  O     0.63052   0.91298   0.75309   0.00000  Uiso   1.00
O1046  O     0.36948   0.75369   0.74690   0.00000  Uiso   1.00
O1047  O     0.39155   0.90368   0.74501   0.00000  Uiso   1.00
O1048  O     0.60845   0.76298   0.75498   0.00000  Uiso   1.00
O1049  O     0.63662   0.84063   0.82247   0.00000  Uiso   1.00
O1050  O     0.36338   0.82603   0.67753   0.00000  Uiso   1.00
O1051  O     0.39764   0.83134   0.81439   0.00000  Uiso   1.00
O1052  O     0.60236   0.83533   0.68561   0.00000  Uiso   1.00
Zn1053 Zn    0.60366   0.83954   0.75539   0.00000  Uiso   1.00
Zn1054 Zn    0.39634   0.82713   0.74460   0.00000  Uiso   1.00
C1055  C     0.68174   0.93156   0.74870   0.00000  Uiso   1.00
C1056  C     0.97874   0.82927   0.65914   0.00000  Uiso   1.00
C1057  C     0.69863   0.84192   0.89305   0.00000  Uiso   1.00
C1058  C     0.96739   0.82262   0.60714   0.00000  Uiso   1.00
C1059  C     0.68169   0.88240   0.97083   0.00000  Uiso   1.00
C1060  C     0.98052   0.77638   0.53128   0.00000  Uiso   1.00
C1061  C     0.99586   0.86771   0.92320   0.00000  Uiso   1.00
C1062  C     0.66796   0.79324   0.57799   0.00000  Uiso   1.00
C1063  C     0.74972   0.82532   0.91206   0.00000  Uiso   1.00
C1064  C     0.91676   0.83976   0.58792   0.00000  Uiso   1.00
C1065  C     0.76618   0.83379   0.96082   0.00000  Uiso   1.00
C1066  C     0.98490   0.73509   0.75113   0.00000  Uiso   1.00
C1067  C     0.89780   0.82772   0.53998   0.00000  Uiso   1.00
C1068  C     0.73519   0.86832   0.98868   0.00000  Uiso   1.00
C1069  C     0.92748   0.79124   0.51311   0.00000  Uiso   1.00
C1070  C     0.81789   0.81609   0.97977   0.00000  Uiso   1.00
C1071  C     0.84563   0.84486   0.52109   0.00000  Uiso   1.00
C1072  C     0.85205   0.93594   0.56962   0.00000  Uiso   1.00
C1073  C     0.83159   0.94676   0.62052   0.00000  Uiso   1.00
C1074  C     0.81131   0.72564   0.92849   0.00000  Uiso   1.00
C1075  C     0.75805   0.70374   0.95195   0.00000  Uiso   1.00
C1076  C     0.81918   0.88873   0.54237   0.00000  Uiso   1.00
C1077  C     0.84363   0.77160   0.95872   0.00000  Uiso   1.00
C1078  C     0.76163   0.89458   0.52997   0.00000  Uiso   1.00
C1079  C     0.90077   0.76483   0.97200   0.00000  Uiso   1.00
C1080  C     0.68955   0.98616   0.74788   0.00000  Uiso   1.00
C1081  C     0.97703   0.68046   0.75165   0.00000  Uiso   1.00
C1082  C     0.68789   0.83722   0.84089   0.00000  Uiso   1.00
H1083  H     0.74029   0.92568   0.54775   0.00000  Uiso   1.00
H1084  H     0.93387   0.99654   0.75519   0.00000  Uiso   1.00
H1085  H     0.82906   0.79159   0.71389   0.00000  Uiso   1.00
H1086  H     0.83761   0.87510   0.78609   0.00000  Uiso   1.00
H1087  H     0.79022   0.96501   0.61840   0.00000  Uiso   1.00
H1088  H     0.82571   0.91038   0.64013   0.00000  Uiso   1.00
H1089  H     0.86341   0.97446   0.64176   0.00000  Uiso   1.00
H1090  H     0.89894   0.93317   0.57126   0.00000  Uiso   1.00
H1091  H     0.84559   0.97106   0.54872   0.00000  Uiso   1.00
H1092  H     0.76730   0.69989   0.99132   0.00000  Uiso   1.00
H1093  H     0.72266   0.72930   0.94626   0.00000  Uiso   1.00
H1094  H     0.92226   0.73393   0.95398   0.00000  Uiso   1.00
H1095  H     0.74371   0.99772   0.93486   0.00000  Uiso   1.00
H1096  H     0.80073   0.73440   0.89060   0.00000  Uiso   1.00
H1097  H     0.83905   0.69252   0.92479   0.00000  Uiso   1.00
H1098  H     0.88951   0.85861   0.61207   0.00000  Uiso   1.00
H1099  H     0.77977   0.81115   0.88763   0.00000  Uiso   1.00
H1100  H     0.70738   0.77924   0.59260   0.00000  Uiso   1.00
H1101  H     0.95586   0.88084   0.90889   0.00000  Uiso   1.00
H1102  H     0.98994   0.90739   0.99253   0.00000  Uiso   1.00
H1103  H     0.67050   0.74892   0.51088   0.00000  Uiso   1.00
H1104  H     0.73270   0.67008   0.74428   0.00000  Uiso   1.00
N1105  N     0.81362   0.81883   0.73739   0.00000  Uiso   1.00
N1106  N     0.85305   0.84784   0.76260   0.00000  Uiso   1.00
O1107  O     0.96386   0.91298   0.75309   0.00000  Uiso   1.00
O1108  O     0.70281   0.75369   0.74690   0.00000  Uiso   1.00
O1109  O     0.72488   0.90368   0.74501   0.00000  Uiso   1.00
O1110  O     0.94178   0.76298   0.75498   0.00000  Uiso   1.00
O1111  O     0.96995   0.84063   0.82247   0.00000  Uiso   1.00
O1112  O     0.69672   0.82603   0.67753   0.00000  Uiso   1.00
O1113  O     0.73098   0.83134   0.81439   0.00000  Uiso   1.00
O1114  O     0.93569   0.83533   0.68561   0.00000  Uiso   1.00
Zn1115 Zn    0.93700   0.83954   0.75539   0.00000  Uiso   1.00
Zn1116 Zn    0.72967   0.82713   0.74460   0.00000  Uiso   1.00
loop_
_geom_bond_atom_site_label_1
_geom_bond_atom_site_label_2
_geom_bond_distance
_geom_bond_site_symmetry_2
_ccdc_geom_bond_type
C1     O55     1.289   .     A
C1     C26     1.400   .     S
C1     O177    1.276   1_455 S
C2     C4      1.449   .     S
C2     O60     1.297   .     A
C2     O120    1.292   .     S
C3     C9      1.388   .     A
C3     C28     1.450   .     S
C3     C131    1.400   1_455 S
C4     C10     1.387   .     A
C4     C70     1.397   .     S
C5     C14     1.404   .     A
C5     C131    1.392   1_455 S
C5     H172    1.084   1_455 S
C6     C15     1.404   .     A
C6     C70     1.391   .     S
C6     H111    1.080   .     S
C7     H47     1.083   .     S
C7     C65     1.400   .     S
C7     C67     1.392   .     S
C8     H46     1.083   .     S
C8     C130    1.391   1_455 S
C8     C128    1.397   1_455 S
C9     H45     1.075   .     S
C9     C11     1.385   .     A
C10    H44     1.073   .     S
C10    C13     1.388   .     A
C11    C16     1.412   .     A
C11    C14     1.413   .     A
C12    O56     1.289   .     A
C12    C27     1.400   .     S
C12    O116    1.276   .     S
C13    C17     1.415   .     A
C13    C15     1.413   .     A
C14    C582    1.385   .     S
C15    C583    1.385   1_554 S
C16    C23     1.442   .     A
C16    C575    1.424   .     S
C17    C22     1.440   .     A
C17    C574    1.424   1_554 S
C18    C22     1.525   .     S
C18    H37     1.113   .     S
C18    C19     1.534   .     S
C18    H36     1.108   .     S
C19    H35     1.111   .     S
C19    H33     1.110   .     S
C19    H34     1.109   .     S
C20    H42     1.104   .     S
C20    C23     1.533   .     S
C20    H43     1.113   .     S
C20    C21     1.528   .     S
C21    H39     1.106   .     S
C21    H38     1.111   .     S
C21    H413    1.111   1_545 S
C22    C24     1.397   .     A
C23    C25     1.398   .     A
C24    H29     1.084   .     S
C24    C572    1.385   1_554 S
C25    H40     1.085   .     S
C25    C573    1.385   .     S
C26    C337    1.339   1_455 S
C26    H236    1.088   .     S
C27    C460    1.339   1_545 S
C27    H402    1.088   1_545 S
C28    O59     1.298   .     A
C28    O181    1.292   1_455 S
H30    C213    1.088   .     S
H31    N51     1.029   .     S
H32    N52     1.029   .     S
H41    C207    1.111   .     S
H48    C67     1.084   .     S
H49    C130    1.080   1_455 S
H50    C398    1.088   1_545 S
N51    Zn62    2.020   .     S
N51    N52     1.290   .     D
N52    Zn61    2.020   .     S
O53    Zn61    1.947   .     S
O53    C63     1.276   .     S
O54    Zn62    1.947   .     S
O54    C136    1.276   1_455 S
O55    Zn62    1.975   .     S
O56    Zn61    1.975   .     S
O57    Zn61    1.970   .     S
O57    C90     1.292   .     S
O58    Zn62    1.970   .     S
O58    C126    1.292   1_455 S
O59    Zn62    1.930   .     S
O60    Zn61    1.930   .     S
C63    O117    1.289   .     A
C63    C88     1.400   .     S
C64    C66     1.449   .     S
C64    O122    1.297   .     A
C64    O182    1.292   .     S
C65    C71     1.388   .     A
C65    C90     1.450   .     S
C66    C72     1.387   .     A
C66    C132    1.397   .     S
C67    C76     1.404   .     A
C68    C77     1.404   .     A
C68    C132    1.391   .     S
C68    H173    1.080   .     S
C69    H109    1.083   .     S
C69    C127    1.400   .     S
C69    C129    1.392   .     S
C70    H108    1.083   .     S
C71    H107    1.075   .     S
C71    C73     1.385   .     A
C72    H106    1.073   .     S
C72    C75     1.388   .     A
C73    C78     1.412   .     A
C73    C76     1.413   .     A
C74    O118    1.289   .     A
C74    C89     1.400   .     S
C74    O178    1.276   .     S
C75    C79     1.415   .     A
C75    C77     1.413   .     A
C76    C644    1.385   .     S
C77    C645    1.385   1_554 S
C78    C85     1.442   .     A
C78    C637    1.424   .     S
C79    C84     1.440   .     A
C79    C636    1.424   1_554 S
C80    C84     1.525   .     S
C80    H99     1.113   .     S
C80    C81     1.534   .     S
C80    H98     1.108   .     S
C81    H97     1.111   .     S
C81    H95     1.110   .     S
C81    H96     1.109   .     S
C82    H104    1.104   .     S
C82    C85     1.533   .     S
C82    H105    1.113   .     S
C82    C83     1.528   .     S
C83    H101    1.106   .     S
C83    H100    1.111   .     S
C83    H475    1.111   1_545 S
C84    C86     1.397   .     A
C85    C87     1.398   .     A
C86    H91     1.084   .     S
C86    C634    1.385   1_554 S
C87    H102    1.085   .     S
C87    C635    1.385   .     S
C88    C213    1.339   .     S
C88    H298    1.088   .     S
C89    C522    1.339   1_545 S
C89    H464    1.088   1_545 S
C90    O121    1.298   .     A
H92    C275    1.088   .     S
H93    N113    1.029   .     S
H94    N114    1.029   .     S
H103   C269    1.111   .     S
H110   C129    1.084   .     S
H112   C460    1.088   1_545 S
N113   Zn124   2.020   .     S
N113   N114    1.290   .     D
N114   Zn123   2.020   .     S
O115   Zn123   1.947   .     S
O115   C125    1.276   .     S
O116   Zn124   1.947   .     S
O117   Zn124   1.975   .     S
O118   Zn123   1.975   .     S
O119   Zn123   1.970   .     S
O119   C152    1.292   .     S
O120   Zn124   1.970   .     S
O121   Zn124   1.930   .     S
O122   Zn123   1.930   .     S
C125   O179    1.289   .     A
C125   C150    1.400   .     S
C126   C128    1.449   .     S
C126   O184    1.297   .     A
C126   O58     1.292   1_655 S
C127   C133    1.388   .     A
C127   C152    1.450   .     S
C128   C134    1.387   .     A
C128   C8      1.397   1_655 S
C129   C138    1.404   .     A
C130   C139    1.404   .     A
C130   C8      1.391   1_655 S
C130   H49     1.080   1_655 S
C131   H171    1.083   .     S
C131   C3      1.400   1_655 S
C131   C5      1.392   1_655 S
C132   H170    1.083   .     S
C133   H169    1.075   .     S
C133   C135    1.385   .     A
C134   H168    1.073   .     S
C134   C137    1.388   .     A
C135   C140    1.412   .     A
C135   C138    1.413   .     A
C136   O180    1.289   .     A
C136   C151    1.400   .     S
C136   O54     1.276   1_655 S
C137   C141    1.415   .     A
C137   C139    1.413   .     A
C138   C706    1.385   .     S
C139   C707    1.385   1_554 S
C140   C147    1.442   .     A
C140   C699    1.424   .     S
C141   C146    1.440   .     A
C141   C698    1.424   1_554 S
C142   C146    1.525   .     S
C142   H161    1.113   .     S
C142   C143    1.534   .     S
C142   H160    1.108   .     S
C143   H159    1.111   .     S
C143   H157    1.110   .     S
C143   H158    1.109   .     S
C144   H166    1.104   .     S
C144   C147    1.533   .     S
C144   H167    1.113   .     S
C144   C145    1.528   .     S
C145   H163    1.106   .     S
C145   H162    1.111   .     S
C145   H537    1.111   1_545 S
C146   C148    1.397   .     A
C147   C149    1.398   .     A
C148   H153    1.084   .     S
C148   C696    1.385   1_554 S
C149   H164    1.085   .     S
C149   C697    1.385   .     S
C150   C275    1.339   .     S
C150   H360    1.088   .     S
C151   C398    1.339   1_645 S
C151   H526    1.088   1_545 S
C152   O183    1.298   .     A
H154   C337    1.088   .     S
H155   N175    1.029   .     S
H156   N176    1.029   .     S
H165   C331    1.111   .     S
H172   C5      1.084   1_655 S
H174   C522    1.088   1_545 S
N175   Zn186   2.020   .     S
N175   N176    1.290   .     D
N176   Zn185   2.020   .     S
O177   Zn185   1.947   .     S
O177   C1      1.276   1_655 S
O178   Zn186   1.947   .     S
O179   Zn186   1.975   .     S
O180   Zn185   1.975   .     S
O181   Zn185   1.970   .     S
O181   C28     1.292   1_655 S
O182   Zn186   1.970   .     S
O183   Zn186   1.930   .     S
O184   Zn185   1.930   .     S
C187   O241    1.289   .     A
C187   C212    1.400   .     S
C187   O363    1.276   1_455 S
C188   C190    1.449   .     S
C188   O246    1.297   .     A
C188   O306    1.292   .     S
C189   C195    1.388   .     A
C189   C214    1.450   .     S
C189   C317    1.400   1_455 S
C190   C196    1.387   .     A
C190   C256    1.397   .     S
C191   C200    1.404   .     A
C191   C317    1.392   1_455 S
C191   H358    1.084   1_455 S
C192   C201    1.404   .     A
C192   C256    1.391   .     S
C192   H297    1.080   .     S
C193   H233    1.083   .     S
C193   C251    1.400   .     S
C193   C253    1.392   .     S
C194   H232    1.083   .     S
C194   C316    1.391   1_455 S
C194   C314    1.397   1_455 S
C195   H231    1.075   .     S
C195   C197    1.385   .     A
C196   H230    1.073   .     S
C196   C199    1.388   .     A
C197   C202    1.412   .     A
C197   C200    1.413   .     A
C198   O242    1.289   .     A
C198   C213    1.400   .     S
C198   O302    1.276   .     S
C199   C203    1.415   .     A
C199   C201    1.413   .     A
C200   C768    1.385   .     S
C201   C769    1.385   1_554 S
C202   C209    1.442   .     A
C202   C761    1.424   .     S
C203   C208    1.440   .     A
C203   C760    1.424   1_554 S
C204   C208    1.525   .     S
C204   H223    1.113   .     S
C204   C205    1.534   .     S
C204   H222    1.108   .     S
C205   H221    1.111   .     S
C205   H219    1.110   .     S
C205   H220    1.109   .     S
C206   H228    1.104   .     S
C206   C209    1.533   .     S
C206   H229    1.113   .     S
C206   C207    1.528   .     S
C207   H225    1.106   .     S
C207   H224    1.111   .     S
C208   C210    1.397   .     A
C209   C211    1.398   .     A
C210   H215    1.084   .     S
C210   C758    1.385   1_554 S
C211   H226    1.085   .     S
C211   C759    1.385   .     S
C212   C523    1.339   1_455 S
C212   H422    1.088   .     S
C214   O245    1.298   .     A
C214   O367    1.292   1_455 S
H216   C399    1.088   .     S
H217   N237    1.029   .     S
H218   N238    1.029   .     S
H227   C393    1.111   .     S
H234   C253    1.084   .     S
H235   C316    1.080   1_455 S
N237   Zn248   2.020   .     S
N237   N238    1.290   .     D
N238   Zn247   2.020   .     S
O239   Zn247   1.947   .     S
O239   C249    1.276   .     S
O240   Zn248   1.947   .     S
O240   C322    1.276   1_455 S
O241   Zn248   1.975   .     S
O242   Zn247   1.975   .     S
O243   Zn247   1.970   .     S
O243   C276    1.292   .     S
O244   Zn248   1.970   .     S
O244   C312    1.292   1_455 S
O245   Zn248   1.930   .     S
O246   Zn247   1.930   .     S
C249   O303    1.289   .     A
C249   C274    1.400   .     S
C250   C252    1.449   .     S
C250   O308    1.297   .     A
C250   O368    1.292   .     S
C251   C257    1.388   .     A
C251   C276    1.450   .     S
C252   C258    1.387   .     A
C252   C318    1.397   .     S
C253   C262    1.404   .     A
C254   C263    1.404   .     A
C254   C318    1.391   .     S
C254   H359    1.080   .     S
C255   H295    1.083   .     S
C255   C313    1.400   .     S
C255   C315    1.392   .     S
C256   H294    1.083   .     S
C257   H293    1.075   .     S
C257   C259    1.385   .     A
C258   H292    1.073   .     S
C258   C261    1.388   .     A
C259   C264    1.412   .     A
C259   C262    1.413   .     A
C260   O304    1.289   .     A
C260   C275    1.400   .     S
C260   O364    1.276   .     S
C261   C265    1.415   .     A
C261   C263    1.413   .     A
C262   C830    1.385   .     S
C263   C831    1.385   1_554 S
C264   C271    1.442   .     A
C264   C823    1.424   .     S
C265   C270    1.440   .     A
C265   C822    1.424   1_554 S
C266   C270    1.525   .     S
C266   H285    1.113   .     S
C266   C267    1.534   .     S
C266   H284    1.108   .     S
C267   H283    1.111   .     S
C267   H281    1.110   .     S
C267   H282    1.109   .     S
C268   H290    1.104   .     S
C268   C271    1.533   .     S
C268   H291    1.113   .     S
C268   C269    1.528   .     S
C269   H287    1.106   .     S
C269   H286    1.111   .     S
C270   C272    1.397   .     A
C271   C273    1.398   .     A
C272   H277    1.084   .     S
C272   C820    1.385   1_554 S
C273   H288    1.085   .     S
C273   C821    1.385   .     S
C274   C399    1.339   .     S
C274   H484    1.088   .     S
C276   O307    1.298   .     A
H278   C461    1.088   .     S
H279   N299    1.029   .     S
H280   N300    1.029   .     S
H289   C455    1.111   .     S
H296   C315    1.084   .     S
N299   Zn310   2.020   .     S
N299   N300    1.290   .     D
N300   Zn309   2.020   .     S
O301   Zn309   1.947   .     S
O301   C311    1.276   .     S
O302   Zn310   1.947   .     S
O303   Zn310   1.975   .     S
O304   Zn309   1.975   .     S
O305   Zn309   1.970   .     S
O305   C338    1.292   .     S
O306   Zn310   1.970   .     S
O307   Zn310   1.930   .     S
O308   Zn309   1.930   .     S
C311   O365    1.289   .     A
C311   C336    1.400   .     S
C312   C314    1.449   .     S
C312   O370    1.297   .     A
C312   O244    1.292   1_655 S
C313   C319    1.388   .     A
C313   C338    1.450   .     S
C314   C320    1.387   .     A
C314   C194    1.397   1_655 S
C315   C324    1.404   .     A
C316   C325    1.404   .     A
C316   C194    1.391   1_655 S
C316   H235    1.080   1_655 S
C317   H357    1.083   .     S
C317   C189    1.400   1_655 S
C317   C191    1.392   1_655 S
C318   H356    1.083   .     S
C319   H355    1.075   .     S
C319   C321    1.385   .     A
C320   H354    1.073   .     S
C320   C323    1.388   .     A
C321   C326    1.412   .     A
C321   C324    1.413   .     A
C322   O366    1.289   .     A
C322   C337    1.400   .     S
C322   O240    1.276   1_655 S
C323   C327    1.415   .     A
C323   C325    1.413   .     A
C324   C892    1.385   .     S
C325   C893    1.385   1_554 S
C326   C333    1.442   .     A
C326   C885    1.424   .     S
C327   C332    1.440   .     A
C327   C884    1.424   1_554 S
C328   C332    1.525   .     S
C328   H347    1.113   .     S
C328   C329    1.534   .     S
C328   H346    1.108   .     S
C329   H345    1.111   .     S
C329   H343    1.110   .     S
C329   H344    1.109   .     S
C330   H352    1.104   .     S
C330   C333    1.533   .     S
C330   H353    1.113   .     S
C330   C331    1.528   .     S
C331   H349    1.106   .     S
C331   H348    1.111   .     S
C332   C334    1.397   .     A
C333   C335    1.398   .     A
C334   H339    1.084   .     S
C334   C882    1.385   1_554 S
C335   H350    1.085   .     S
C335   C883    1.385   .     S
C336   C461    1.339   .     S
C336   H546    1.088   .     S
C337   C26     1.339   1_655 S
C338   O369    1.298   .     A
H340   C523    1.088   .     S
H341   N361    1.029   .     S
H342   N362    1.029   .     S
H351   C517    1.111   .     S
H358   C191    1.084   1_655 S
N361   Zn372   2.020   .     S
N361   N362    1.290   .     D
N362   Zn371   2.020   .     S
O363   Zn371   1.947   .     S
O363   C187    1.276   1_655 S
O364   Zn372   1.947   .     S
O365   Zn372   1.975   .     S
O366   Zn371   1.975   .     S
O367   Zn371   1.970   .     S
O367   C214    1.292   1_655 S
O368   Zn372   1.970   .     S
O369   Zn372   1.930   .     S
O370   Zn371   1.930   .     S
C373   O427    1.289   .     A
C373   C398    1.400   .     S
C373   O549    1.276   1_455 S
C374   C376    1.449   .     S
C374   O432    1.297   .     A
C374   O492    1.292   .     S
C375   C381    1.388   .     A
C375   C400    1.450   .     S
C375   C503    1.400   1_455 S
C376   C382    1.387   .     A
C376   C442    1.397   .     S
C377   C386    1.404   .     A
C377   C503    1.392   1_455 S
C377   H544    1.084   1_455 S
C378   C387    1.404   .     A
C378   C442    1.391   .     S
C378   H483    1.080   .     S
C379   H419    1.083   .     S
C379   C437    1.400   .     S
C379   C439    1.392   .     S
C380   H418    1.083   .     S
C380   C502    1.391   1_455 S
C380   C500    1.397   1_455 S
C381   H417    1.075   .     S
C381   C383    1.385   .     A
C382   H416    1.073   .     S
C382   C385    1.388   .     A
C383   C388    1.412   .     A
C383   C386    1.413   .     A
C384   O428    1.289   .     A
C384   C399    1.400   .     S
C384   O488    1.276   .     S
C385   C389    1.415   .     A
C385   C387    1.413   .     A
C386   C954    1.385   .     S
C387   C955    1.385   1_554 S
C388   C395    1.442   .     A
C388   C947    1.424   .     S
C389   C394    1.440   .     A
C389   C946    1.424   1_554 S
C390   C394    1.525   .     S
C390   H409    1.113   .     S
C390   C391    1.534   .     S
C390   H408    1.108   .     S
C391   H407    1.111   .     S
C391   H405    1.110   .     S
C391   H406    1.109   .     S
C392   H414    1.104   .     S
C392   C395    1.533   .     S
C392   H415    1.113   .     S
C392   C393    1.528   .     S
C393   H411    1.106   .     S
C393   H410    1.111   .     S
C394   C396    1.397   .     A
C395   C397    1.398   .     A
C396   H401    1.084   .     S
C396   C944    1.385   1_554 S
C397   H412    1.085   .     S
C397   C945    1.385   .     S
C398   C151    1.339   1_465 S
C398   H50     1.088   1_565 S
C400   O431    1.298   .     A
C400   O553    1.292   1_455 S
H402   C27     1.088   1_565 S
H403   N423    1.029   .     S
H404   N424    1.029   .     S
H413   C21     1.111   1_565 S
H420   C439    1.084   .     S
H421   C502    1.080   1_455 S
N423   Zn434   2.020   .     S
N423   N424    1.290   .     D
N424   Zn433   2.020   .     S
O425   Zn433   1.947   .     S
O425   C435    1.276   .     S
O426   Zn434   1.947   .     S
O426   C508    1.276   1_455 S
O427   Zn434   1.975   .     S
O428   Zn433   1.975   .     S
O429   Zn433   1.970   .     S
O429   C462    1.292   .     S
O430   Zn434   1.970   .     S
O430   C498    1.292   1_455 S
O431   Zn434   1.930   .     S
O432   Zn433   1.930   .     S
C435   O489    1.289   .     A
C435   C460    1.400   .     S
C436   C438    1.449   .     S
C436   O494    1.297   .     A
C436   O554    1.292   .     S
C437   C443    1.388   .     A
C437   C462    1.450   .     S
C438   C444    1.387   .     A
C438   C504    1.397   .     S
C439   C448    1.404   .     A
C440   C449    1.404   .     A
C440   C504    1.391   .     S
C440   H545    1.080   .     S
C441   H481    1.083   .     S
C441   C499    1.400   .     S
C441   C501    1.392   .     S
C442   H480    1.083   .     S
C443   H479    1.075   .     S
C443   C445    1.385   .     A
C444   H478    1.073   .     S
C444   C447    1.388   .     A
C445   C450    1.412   .     A
C445   C448    1.413   .     A
C446   O490    1.289   .     A
C446   C461    1.400   .     S
C446   O550    1.276   .     S
C447   C451    1.415   .     A
C447   C449    1.413   .     A
C448   C1016   1.385   .     S
C449   C1017   1.385   1_554 S
C450   C457    1.442   .     A
C450   C1009   1.424   .     S
C451   C456    1.440   .     A
C451   C1008   1.424   1_554 S
C452   C456    1.525   .     S
C452   H471    1.113   .     S
C452   C453    1.534   .     S
C452   H470    1.108   .     S
C453   H469    1.111   .     S
C453   H467    1.110   .     S
C453   H468    1.109   .     S
C454   H476    1.104   .     S
C454   C457    1.533   .     S
C454   H477    1.113   .     S
C454   C455    1.528   .     S
C455   H473    1.106   .     S
C455   H472    1.111   .     S
C456   C458    1.397   .     A
C457   C459    1.398   .     A
C458   H463    1.084   .     S
C458   C1006   1.385   1_554 S
C459   H474    1.085   .     S
C459   C1007   1.385   .     S
C460   C27     1.339   1_565 S
C460   H112    1.088   1_565 S
C462   O493    1.298   .     A
H464   C89     1.088   1_565 S
H465   N485    1.029   .     S
H466   N486    1.029   .     S
H475   C83     1.111   1_565 S
H482   C501    1.084   .     S
N485   Zn496   2.020   .     S
N485   N486    1.290   .     D
N486   Zn495   2.020   .     S
O487   Zn495   1.947   .     S
O487   C497    1.276   .     S
O488   Zn496   1.947   .     S
O489   Zn496   1.975   .     S
O490   Zn495   1.975   .     S
O491   Zn495   1.970   .     S
O491   C524    1.292   .     S
O492   Zn496   1.970   .     S
O493   Zn496   1.930   .     S
O494   Zn495   1.930   .     S
C497   O551    1.289   .     A
C497   C522    1.400   .     S
C498   C500    1.449   .     S
C498   O556    1.297   .     A
C498   O430    1.292   1_655 S
C499   C505    1.388   .     A
C499   C524    1.450   .     S
C500   C506    1.387   .     A
C500   C380    1.397   1_655 S
C501   C510    1.404   .     A
C502   C511    1.404   .     A
C502   C380    1.391   1_655 S
C502   H421    1.080   1_655 S
C503   H543    1.083   .     S
C503   C375    1.400   1_655 S
C503   C377    1.392   1_655 S
C504   H542    1.083   .     S
C505   H541    1.075   .     S
C505   C507    1.385   .     A
C506   H540    1.073   .     S
C506   C509    1.388   .     A
C507   C512    1.412   .     A
C507   C510    1.413   .     A
C508   O552    1.289   .     A
C508   C523    1.400   .     S
C508   O426    1.276   1_655 S
C509   C513    1.415   .     A
C509   C511    1.413   .     A
C510   C1078   1.385   .     S
C511   C1079   1.385   1_554 S
C512   C519    1.442   .     A
C512   C1071   1.424   .     S
C513   C518    1.440   .     A
C513   C1070   1.424   1_554 S
C514   C518    1.525   .     S
C514   H533    1.113   .     S
C514   C515    1.534   .     S
C514   H532    1.108   .     S
C515   H531    1.111   .     S
C515   H529    1.110   .     S
C515   H530    1.109   .     S
C516   H538    1.104   .     S
C516   C519    1.533   .     S
C516   H539    1.113   .     S
C516   C517    1.528   .     S
C517   H535    1.106   .     S
C517   H534    1.111   .     S
C518   C520    1.397   .     A
C519   C521    1.398   .     A
C520   H525    1.084   .     S
C520   C1068   1.385   1_554 S
C521   H536    1.085   .     S
C521   C1069   1.385   .     S
C522   C89     1.339   1_565 S
C522   H174    1.088   1_565 S
C523   C212    1.339   1_655 S
C524   O555    1.298   .     A
H526   C151    1.088   1_565 S
H527   N547    1.029   .     S
H528   N548    1.029   .     S
H537   C145    1.111   1_565 S
H544   C377    1.084   1_655 S
N547   Zn558   2.020   .     S
N547   N548    1.290   .     D
N548   Zn557   2.020   .     S
O549   Zn557   1.947   .     S
O549   C373    1.276   1_655 S
O550   Zn558   1.947   .     S
O551   Zn558   1.975   .     S
O552   Zn557   1.975   .     S
O553   Zn557   1.970   .     S
O553   C400    1.292   1_655 S
O554   Zn558   1.970   .     S
O555   Zn558   1.930   .     S
O556   Zn557   1.930   .     S
C559   O613    1.289   .     A
C559   C584    1.400   .     S
C559   O735    1.276   1_455 S
C560   C562    1.449   .     S
C560   O618    1.297   .     A
C560   O678    1.292   .     S
C561   C567    1.388   .     A
C561   C586    1.450   .     S
C561   C689    1.400   1_455 S
C562   C568    1.387   .     A
C562   C628    1.397   .     S
C563   C572    1.404   .     A
C563   C689    1.392   1_455 S
C563   H730    1.084   1_455 S
C564   C573    1.404   .     A
C564   C628    1.391   .     S
C564   H669    1.080   .     S
C565   H605    1.083   .     S
C565   C623    1.400   .     S
C565   C625    1.392   .     S
C566   H604    1.083   .     S
C566   C688    1.391   1_455 S
C566   C686    1.397   1_455 S
C567   H603    1.075   .     S
C567   C569    1.385   .     A
C568   H602    1.073   .     S
C568   C571    1.388   .     A
C569   C574    1.412   .     A
C569   C572    1.413   .     A
C570   O614    1.289   .     A
C570   C585    1.400   .     S
C570   O674    1.276   .     S
C571   C575    1.415   .     A
C571   C573    1.413   .     A
C572   C24     1.385   1_556 S
C574   C581    1.442   .     A
C574   C17     1.424   1_556 S
C575   C580    1.440   .     A
C576   C580    1.525   .     S
C576   H595    1.113   .     S
C576   C577    1.534   .     S
C576   H594    1.108   .     S
C577   H593    1.111   .     S
C577   H591    1.110   .     S
C577   H592    1.109   .     S
C578   H600    1.104   .     S
C578   C581    1.533   .     S
C578   H601    1.113   .     S
C578   C579    1.528   .     S
C579   H597    1.106   .     S
C579   H596    1.111   .     S
C579   H971    1.111   1_545 S
C580   C582    1.397   .     A
C581   C583    1.398   .     A
C582   H587    1.084   .     S
C583   H598    1.085   .     S
C583   C15     1.385   1_556 S
C584   C895    1.339   1_455 S
C584   H794    1.088   .     S
C585   C1018   1.339   1_545 S
C585   H960    1.088   1_545 S
C586   O617    1.298   .     A
C586   O739    1.292   1_455 S
H588   C771    1.088   .     S
H589   N609    1.029   .     S
H590   N610    1.029   .     S
H599   C765    1.111   .     S
H606   C625    1.084   .     S
H607   C688    1.080   1_455 S
H608   C956    1.088   1_545 S
N609   Zn620   2.020   .     S
N609   N610    1.290   .     D
N610   Zn619   2.020   .     S
O611   Zn619   1.947   .     S
O611   C621    1.276   .     S
O612   Zn620   1.947   .     S
O612   C694    1.276   1_455 S
O613   Zn620   1.975   .     S
O614   Zn619   1.975   .     S
O615   Zn619   1.970   .     S
O615   C648    1.292   .     S
O616   Zn620   1.970   .     S
O616   C684    1.292   1_455 S
O617   Zn620   1.930   .     S
O618   Zn619   1.930   .     S
C621   O675    1.289   .     A
C621   C646    1.400   .     S
C622   C624    1.449   .     S
C622   O680    1.297   .     A
C622   O740    1.292   .     S
C623   C629    1.388   .     A
C623   C648    1.450   .     S
C624   C630    1.387   .     A
C624   C690    1.397   .     S
C625   C634    1.404   .     A
C626   C635    1.404   .     A
C626   C690    1.391   .     S
C626   H731    1.080   .     S
C627   H667    1.083   .     S
C627   C685    1.400   .     S
C627   C687    1.392   .     S
C628   H666    1.083   .     S
C629   H665    1.075   .     S
C629   C631    1.385   .     A
C630   H664    1.073   .     S
C630   C633    1.388   .     A
C631   C636    1.412   .     A
C631   C634    1.413   .     A
C632   O676    1.289   .     A
C632   C647    1.400   .     S
C632   O736    1.276   .     S
C633   C637    1.415   .     A
C633   C635    1.413   .     A
C634   C86     1.385   1_556 S
C636   C643    1.442   .     A
C636   C79     1.424   1_556 S
C637   C642    1.440   .     A
C638   C642    1.525   .     S
C638   H657    1.113   .     S
C638   C639    1.534   .     S
C638   H656    1.108   .     S
C639   H655    1.111   .     S
C639   H653    1.110   .     S
C639   H654    1.109   .     S
C640   H662    1.104   .     S
C640   C643    1.533   .     S
C640   H663    1.113   .     S
C640   C641    1.528   .     S
C641   H659    1.106   .     S
C641   H658    1.111   .     S
C641   H1033   1.111   1_545 S
C642   C644    1.397   .     A
C643   C645    1.398   .     A
C644   H649    1.084   .     S
C645   H660    1.085   .     S
C645   C77     1.385   1_556 S
C646   C771    1.339   .     S
C646   H856    1.088   .     S
C647   C1080   1.339   1_545 S
C647   H1022   1.088   1_545 S
C648   O679    1.298   .     A
H650   C833    1.088   .     S
H651   N671    1.029   .     S
H652   N672    1.029   .     S
H661   C827    1.111   .     S
H668   C687    1.084   .     S
H670   C1018   1.088   1_545 S
N671   Zn682   2.020   .     S
N671   N672    1.290   .     D
N672   Zn681   2.020   .     S
O673   Zn681   1.947   .     S
O673   C683    1.276   .     S
O674   Zn682   1.947   .     S
O675   Zn682   1.975   .     S
O676   Zn681   1.975   .     S
O677   Zn681   1.970   .     S
O677   C710    1.292   .     S
O678   Zn682   1.970   .     S
O679   Zn682   1.930   .     S
O680   Zn681   1.930   .     S
C683   O737    1.289   .     A
C683   C708    1.400   .     S
C684   C686    1.449   .     S
C684   O742    1.297   .     A
C684   O616    1.292   1_655 S
C685   C691    1.388   .     A
C685   C710    1.450   .     S
C686   C692    1.387   .     A
C686   C566    1.397   1_655 S
C687   C696    1.404   .     A
C688   C697    1.404   .     A
C688   C566    1.391   1_655 S
C688   H607    1.080   1_655 S
C689   H729    1.083   .     S
C689   C561    1.400   1_655 S
C689   C563    1.392   1_655 S
C690   H728    1.083   .     S
C691   H727    1.075   .     S
C691   C693    1.385   .     A
C692   H726    1.073   .     S
C692   C695    1.388   .     A
C693   C698    1.412   .     A
C693   C696    1.413   .     A
C694   O738    1.289   .     A
C694   C709    1.400   .     S
C694   O612    1.276   1_655 S
C695   C699    1.415   .     A
C695   C697    1.413   .     A
C696   C148    1.385   1_556 S
C698   C705    1.442   .     A
C698   C141    1.424   1_556 S
C699   C704    1.440   .     A
C700   C704    1.525   .     S
C700   H719    1.113   .     S
C700   C701    1.534   .     S
C700   H718    1.108   .     S
C701   H717    1.111   .     S
C701   H715    1.110   .     S
C701   H716    1.109   .     S
C702   H724    1.104   .     S
C702   C705    1.533   .     S
C702   H725    1.113   .     S
C702   C703    1.528   .     S
C703   H721    1.106   .     S
C703   H720    1.111   .     S
C703   H1095   1.111   1_545 S
C704   C706    1.397   .     A
C705   C707    1.398   .     A
C706   H711    1.084   .     S
C707   H722    1.085   .     S
C707   C139    1.385   1_556 S
C708   C833    1.339   .     S
C708   H918    1.088   .     S
C709   C956    1.339   1_645 S
C709   H1084   1.088   1_545 S
C710   O741    1.298   .     A
H712   C895    1.088   .     S
H713   N733    1.029   .     S
H714   N734    1.029   .     S
H723   C889    1.111   .     S
H730   C563    1.084   1_655 S
H732   C1080   1.088   1_545 S
N733   Zn744   2.020   .     S
N733   N734    1.290   .     D
N734   Zn743   2.020   .     S
O735   Zn743   1.947   .     S
O735   C559    1.276   1_655 S
O736   Zn744   1.947   .     S
O737   Zn744   1.975   .     S
O738   Zn743   1.975   .     S
O739   Zn743   1.970   .     S
O739   C586    1.292   1_655 S
O740   Zn744   1.970   .     S
O741   Zn744   1.930   .     S
O742   Zn743   1.930   .     S
C745   O799    1.289   .     A
C745   C770    1.400   .     S
C745   O921    1.276   1_455 S
C746   C748    1.449   .     S
C746   O804    1.297   .     A
C746   O864    1.292   .     S
C747   C753    1.388   .     A
C747   C772    1.450   .     S
C747   C875    1.400   1_455 S
C748   C754    1.387   .     A
C748   C814    1.397   .     S
C749   C758    1.404   .     A
C749   C875    1.392   1_455 S
C749   H916    1.084   1_455 S
C750   C759    1.404   .     A
C750   C814    1.391   .     S
C750   H855    1.080   .     S
C751   H791    1.083   .     S
C751   C809    1.400   .     S
C751   C811    1.392   .     S
C752   H790    1.083   .     S
C752   C874    1.391   1_455 S
C752   C872    1.397   1_455 S
C753   H789    1.075   .     S
C753   C755    1.385   .     A
C754   H788    1.073   .     S
C754   C757    1.388   .     A
C755   C760    1.412   .     A
C755   C758    1.413   .     A
C756   O800    1.289   .     A
C756   C771    1.400   .     S
C756   O860    1.276   .     S
C757   C761    1.415   .     A
C757   C759    1.413   .     A
C758   C210    1.385   1_556 S
C760   C767    1.442   .     A
C760   C203    1.424   1_556 S
C761   C766    1.440   .     A
C762   C766    1.525   .     S
C762   H781    1.113   .     S
C762   C763    1.534   .     S
C762   H780    1.108   .     S
C763   H779    1.111   .     S
C763   H777    1.110   .     S
C763   H778    1.109   .     S
C764   H786    1.104   .     S
C764   C767    1.533   .     S
C764   H787    1.113   .     S
C764   C765    1.528   .     S
C765   H783    1.106   .     S
C765   H782    1.111   .     S
C766   C768    1.397   .     A
C767   C769    1.398   .     A
C768   H773    1.084   .     S
C769   H784    1.085   .     S
C769   C201    1.385   1_556 S
C770   C1081   1.339   1_455 S
C770   H980    1.088   .     S
C772   O803    1.298   .     A
C772   O925    1.292   1_455 S
H774   C957    1.088   .     S
H775   N795    1.029   .     S
H776   N796    1.029   .     S
H785   C951    1.111   .     S
H792   C811    1.084   .     S
H793   C874    1.080   1_455 S
N795   Zn806   2.020   .     S
N795   N796    1.290   .     D
N796   Zn805   2.020   .     S
O797   Zn805   1.947   .     S
O797   C807    1.276   .     S
O798   Zn806   1.947   .     S
O798   C880    1.276   1_455 S
O799   Zn806   1.975   .     S
O800   Zn805   1.975   .     S
O801   Zn805   1.970   .     S
O801   C834    1.292   .     S
O802   Zn806   1.970   .     S
O802   C870    1.292   1_455 S
O803   Zn806   1.930   .     S
O804   Zn805   1.930   .     S
C807   O861    1.289   .     A
C807   C832    1.400   .     S
C808   C810    1.449   .     S
C808   O866    1.297   .     A
C808   O926    1.292   .     S
C809   C815    1.388   .     A
C809   C834    1.450   .     S
C810   C816    1.387   .     A
C810   C876    1.397   .     S
C811   C820    1.404   .     A
C812   C821    1.404   .     A
C812   C876    1.391   .     S
C812   H917    1.080   .     S
C813   H853    1.083   .     S
C813   C871    1.400   .     S
C813   C873    1.392   .     S
C814   H852    1.083   .     S
C815   H851    1.075   .     S
C815   C817    1.385   .     A
C816   H850    1.073   .     S
C816   C819    1.388   .     A
C817   C822    1.412   .     A
C817   C820    1.413   .     A
C818   O862    1.289   .     A
C818   C833    1.400   .     S
C818   O922    1.276   .     S
C819   C823    1.415   .     A
C819   C821    1.413   .     A
C820   C272    1.385   1_556 S
C822   C829    1.442   .     A
C822   C265    1.424   1_556 S
C823   C828    1.440   .     A
C824   C828    1.525   .     S
C824   H843    1.113   .     S
C824   C825    1.534   .     S
C824   H842    1.108   .     S
C825   H841    1.111   .     S
C825   H839    1.110   .     S
C825   H840    1.109   .     S
C826   H848    1.104   .     S
C826   C829    1.533   .     S
C826   H849    1.113   .     S
C826   C827    1.528   .     S
C827   H845    1.106   .     S
C827   H844    1.111   .     S
C828   C830    1.397   .     A
C829   C831    1.398   .     A
C830   H835    1.084   .     S
C831   H846    1.085   .     S
C831   C263    1.385   1_556 S
C832   C957    1.339   .     S
C832   H1042   1.088   .     S
C834   O865    1.298   .     A
H836   C1019   1.088   .     S
H837   N857    1.029   .     S
H838   N858    1.029   .     S
H847   C1013   1.111   .     S
H854   C873    1.084   .     S
N857   Zn868   2.020   .     S
N857   N858    1.290   .     D
N858   Zn867   2.020   .     S
O859   Zn867   1.947   .     S
O859   C869    1.276   .     S
O860   Zn868   1.947   .     S
O861   Zn868   1.975   .     S
O862   Zn867   1.975   .     S
O863   Zn867   1.970   .     S
O863   C896    1.292   .     S
O864   Zn868   1.970   .     S
O865   Zn868   1.930   .     S
O866   Zn867   1.930   .     S
C869   O923    1.289   .     A
C869   C894    1.400   .     S
C870   C872    1.449   .     S
C870   O928    1.297   .     A
C870   O802    1.292   1_655 S
C871   C877    1.388   .     A
C871   C896    1.450   .     S
C872   C878    1.387   .     A
C872   C752    1.397   1_655 S
C873   C882    1.404   .     A
C874   C883    1.404   .     A
C874   C752    1.391   1_655 S
C874   H793    1.080   1_655 S
C875   H915    1.083   .     S
C875   C747    1.400   1_655 S
C875   C749    1.392   1_655 S
C876   H914    1.083   .     S
C877   H913    1.075   .     S
C877   C879    1.385   .     A
C878   H912    1.073   .     S
C878   C881    1.388   .     A
C879   C884    1.412   .     A
C879   C882    1.413   .     A
C880   O924    1.289   .     A
C880   C895    1.400   .     S
C880   O798    1.276   1_655 S
C881   C885    1.415   .     A
C881   C883    1.413   .     A
C882   C334    1.385   1_556 S
C884   C891    1.442   .     A
C884   C327    1.424   1_556 S
C885   C890    1.440   .     A
C886   C890    1.525   .     S
C886   H905    1.113   .     S
C886   C887    1.534   .     S
C886   H904    1.108   .     S
C887   H903    1.111   .     S
C887   H901    1.110   .     S
C887   H902    1.109   .     S
C888   H910    1.104   .     S
C888   C891    1.533   .     S
C888   H911    1.113   .     S
C888   C889    1.528   .     S
C889   H907    1.106   .     S
C889   H906    1.111   .     S
C890   C892    1.397   .     A
C891   C893    1.398   .     A
C892   H897    1.084   .     S
C893   H908    1.085   .     S
C893   C325    1.385   1_556 S
C894   C1019   1.339   .     S
C894   H1104   1.088   .     S
C895   C584    1.339   1_655 S
C896   O927    1.298   .     A
H898   C1081   1.088   .     S
H899   N919    1.029   .     S
H900   N920    1.029   .     S
H909   C1075   1.111   .     S
H916   C749    1.084   1_655 S
N919   Zn930   2.020   .     S
N919   N920    1.290   .     D
N920   Zn929   2.020   .     S
O921   Zn929   1.947   .     S
O921   C745    1.276   1_655 S
O922   Zn930   1.947   .     S
O923   Zn930   1.975   .     S
O924   Zn929   1.975   .     S
O925   Zn929   1.970   .     S
O925   C772    1.292   1_655 S
O926   Zn930   1.970   .     S
O927   Zn930   1.930   .     S
O928   Zn929   1.930   .     S
C931   O985    1.289   .     A
C931   C956    1.400   .     S
C931   O1107   1.276   1_455 S
C932   C934    1.449   .     S
C932   O990    1.297   .     A
C932   O1050   1.292   .     S
C933   C939    1.388   .     A
C933   C958    1.450   .     S
C933   C1061   1.400   1_455 S
C934   C940    1.387   .     A
C934   C1000   1.397   .     S
C935   C944    1.404   .     A
C935   C1061   1.392   1_455 S
C935   H1102   1.084   1_455 S
C936   C945    1.404   .     A
C936   C1000   1.391   .     S
C936   H1041   1.080   .     S
C937   H977    1.083   .     S
C937   C995    1.400   .     S
C937   C997    1.392   .     S
C938   H976    1.083   .     S
C938   C1060   1.391   1_455 S
C938   C1058   1.397   1_455 S
C939   H975    1.075   .     S
C939   C941    1.385   .     A
C940   H974    1.073   .     S
C940   C943    1.388   .     A
C941   C946    1.412   .     A
C941   C944    1.413   .     A
C942   O986    1.289   .     A
C942   C957    1.400   .     S
C942   O1046   1.276   .     S
C943   C947    1.415   .     A
C943   C945    1.413   .     A
C944   C396    1.385   1_556 S
C946   C953    1.442   .     A
C946   C389    1.424   1_556 S
C947   C952    1.440   .     A
C948   C952    1.525   .     S
C948   H967    1.113   .     S
C948   C949    1.534   .     S
C948   H966    1.108   .     S
C949   H965    1.111   .     S
C949   H963    1.110   .     S
C949   H964    1.109   .     S
C950   H972    1.104   .     S
C950   C953    1.533   .     S
C950   H973    1.113   .     S
C950   C951    1.528   .     S
C951   H969    1.106   .     S
C951   H968    1.111   .     S
C952   C954    1.397   .     A
C953   C955    1.398   .     A
C954   H959    1.084   .     S
C955   H970    1.085   .     S
C955   C387    1.385   1_556 S
C956   C709    1.339   1_465 S
C956   H608    1.088   1_565 S
C958   O989    1.298   .     A
C958   O1111   1.292   1_455 S
H960   C585    1.088   1_565 S
H961   N981    1.029   .     S
H962   N982    1.029   .     S
H971   C579    1.111   1_565 S
H978   C997    1.084   .     S
H979   C1060   1.080   1_455 S
N981   Zn992   2.020   .     S
N981   N982    1.290   .     D
N982   Zn991   2.020   .     S
O983   Zn991   1.947   .     S
O983   C993    1.276   .     S
O984   Zn992   1.947   .     S
O984   C1066   1.276   1_455 S
O985   Zn992   1.975   .     S
O986   Zn991   1.975   .     S
O987   Zn991   1.970   .     S
O987   C1020   1.292   .     S
O988   Zn992   1.970   .     S
O988   C1056   1.292   1_455 S
O989   Zn992   1.930   .     S
O990   Zn991   1.930   .     S
C993   O1047   1.289   .     A
C993   C1018   1.400   .     S
C994   C996    1.449   .     S
C994   O1052   1.297   .     A
C994   O1112   1.292   .     S
C995   C1001   1.388   .     A
C995   C1020   1.450   .     S
C996   C1002   1.387   .     A
C996   C1062   1.397   .     S
C997   C1006   1.404   .     A
C998   C1007   1.404   .     A
C998   C1062   1.391   .     S
C998   H1103   1.080   .     S
C999   H1039   1.083   .     S
C999   C1057   1.400   .     S
C999   C1059   1.392   .     S
C1000  H1038   1.083   .     S
C1001  H1037   1.075   .     S
C1001  C1003   1.385   .     A
C1002  H1036   1.073   .     S
C1002  C1005   1.388   .     A
C1003  C1008   1.412   .     A
C1003  C1006   1.413   .     A
C1004  O1048   1.289   .     A
C1004  C1019   1.400   .     S
C1004  O1108   1.276   .     S
C1005  C1009   1.415   .     A
C1005  C1007   1.413   .     A
C1006  C458    1.385   1_556 S
C1008  C1015   1.442   .     A
C1008  C451    1.424   1_556 S
C1009  C1014   1.440   .     A
C1010  C1014   1.525   .     S
C1010  H1029   1.113   .     S
C1010  C1011   1.534   .     S
C1010  H1028   1.108   .     S
C1011  H1027   1.111   .     S
C1011  H1025   1.110   .     S
C1011  H1026   1.109   .     S
C1012  H1034   1.104   .     S
C1012  C1015   1.533   .     S
C1012  H1035   1.113   .     S
C1012  C1013   1.528   .     S
C1013  H1031   1.106   .     S
C1013  H1030   1.111   .     S
C1014  C1016   1.397   .     A
C1015  C1017   1.398   .     A
C1016  H1021   1.084   .     S
C1017  H1032   1.085   .     S
C1017  C449    1.385   1_556 S
C1018  C585    1.339   1_565 S
C1018  H670    1.088   1_565 S
C1020  O1051   1.298   .     A
H1022  C647    1.088   1_565 S
H1023  N1043   1.029   .     S
H1024  N1044   1.029   .     S
H1033  C641    1.111   1_565 S
H1040  C1059   1.084   .     S
N1043  Zn1054  2.020   .     S
N1043  N1044   1.290   .     D
N1044  Zn1053  2.020   .     S
O1045  Zn1053  1.947   .     S
O1045  C1055   1.276   .     S
O1046  Zn1054  1.947   .     S
O1047  Zn1054  1.975   .     S
O1048  Zn1053  1.975   .     S
O1049  Zn1053  1.970   .     S
O1049  C1082   1.292   .     S
O1050  Zn1054  1.970   .     S
O1051  Zn1054  1.930   .     S
O1052  Zn1053  1.930   .     S
C1055  O1109   1.289   .     A
C1055  C1080   1.400   .     S
C1056  C1058   1.449   .     S
C1056  O1114   1.297   .     A
C1056  O988    1.292   1_655 S
C1057  C1063   1.388   .     A
C1057  C1082   1.450   .     S
C1058  C1064   1.387   .     A
C1058  C938    1.397   1_655 S
C1059  C1068   1.404   .     A
C1060  C1069   1.404   .     A
C1060  C938    1.391   1_655 S
C1060  H979    1.080   1_655 S
C1061  H1101   1.083   .     S
C1061  C933    1.400   1_655 S
C1061  C935    1.392   1_655 S
C1062  H1100   1.083   .     S
C1063  H1099   1.075   .     S
C1063  C1065   1.385   .     A
C1064  H1098   1.073   .     S
C1064  C1067   1.388   .     A
C1065  C1070   1.412   .     A
C1065  C1068   1.413   .     A
C1066  O1110   1.289   .     A
C1066  C1081   1.400   .     S
C1066  O984    1.276   1_655 S
C1067  C1071   1.415   .     A
C1067  C1069   1.413   .     A
C1068  C520    1.385   1_556 S
C1070  C1077   1.442   .     A
C1070  C513    1.424   1_556 S
C1071  C1076   1.440   .     A
C1072  C1076   1.525   .     S
C1072  H1091   1.113   .     S
C1072  C1073   1.534   .     S
C1072  H1090   1.108   .     S
C1073  H1089   1.111   .     S
C1073  H1087   1.110   .     S
C1073  H1088   1.109   .     S
C1074  H1096   1.104   .     S
C1074  C1077   1.533   .     S
C1074  H1097   1.113   .     S
C1074  C1075   1.528   .     S
C1075  H1093   1.106   .     S
C1075  H1092   1.111   .     S
C1076  C1078   1.397   .     A
C1077  C1079   1.398   .     A
C1078  H1083   1.084   .     S
C1079  H1094   1.085   .     S
C1079  C511    1.385   1_556 S
C1080  C647    1.339   1_565 S
C1080  H732    1.088   1_565 S
C1081  C770    1.339   1_655 S
C1082  O1113   1.298   .     A
H1084  C709    1.088   1_565 S
H1085  N1105   1.029   .     S
H1086  N1106   1.029   .     S
H1095  C703    1.111   1_565 S
H1102  C935    1.084   1_655 S
N1105  Zn1116  2.020   .     S
N1105  N1106   1.290   .     D
N1106  Zn1115  2.020   .     S
O1107  Zn1115  1.947   .     S
O1107  C931    1.276   1_655 S
O1108  Zn1116  1.947   .     S
O1109  Zn1116  1.975   .     S
O1110  Zn1115  1.975   .     S
O1111  Zn1115  1.970   .     S
O1111  C958    1.292   1_655 S
O1112  Zn1116  1.970   .     S
O1113  Zn1116  1.930   .     S
O1114  Zn1115  1.930   .     S
