data_str_m1_o1_o1_pcu_sym.16
_audit_creation_date              2020-01-03
_audit_creation_method            'Materials Studio'
_symmetry_space_group_name_H-M    'P1'
_symmetry_Int_Tables_number       1
_symmetry_cell_setting            triclinic
loop_
_symmetry_equiv_pos_as_xyz
  x,y,z
_cell_length_a                    25.9463
_cell_length_b                    25.9448
_cell_length_c                    25.9418
_cell_angle_alpha                 90.0027
_cell_angle_beta                  89.9824
_cell_angle_gamma                 90.0094
loop_
_atom_site_label
_atom_site_type_symbol
_atom_site_fract_x
_atom_site_fract_y
_atom_site_fract_z
_atom_site_U_iso_or_equiv
_atom_site_adp_type
_atom_site_occupancy
C1     C     0.39008   0.24992   0.25006   0.00000  Uiso   1.00
C2     C     0.60991   0.25009   0.24992   0.00000  Uiso   1.00
C3     C     0.97297   0.70301   0.24449   0.00000  Uiso   1.00
C4     C     0.02731   0.75418   0.70304   0.00000  Uiso   1.00
C5     C     0.97270   0.24584   0.29693   0.00000  Uiso   1.00
C6     C     0.02728   0.70304   0.24573   0.00000  Uiso   1.00
C7     C     0.97272   0.29696   0.75428   0.00000  Uiso   1.00
C8     C     0.79700   0.74611   0.02727   0.00000  Uiso   1.00
C9     C     0.20299   0.25540   0.97299   0.00000  Uiso   1.00
C10    C     0.70301   0.24594   0.02730   0.00000  Uiso   1.00
C11    C     0.29698   0.75407   0.97271   0.00000  Uiso   1.00
C12    C     0.20303   0.25416   0.02731   0.00000  Uiso   1.00
C13    C     0.24991   0.74993   0.39008   0.00000  Uiso   1.00
C14    C     0.79704   0.74492   0.97294   0.00000  Uiso   1.00
C15    C     0.29702   0.75529   0.02703   0.00000  Uiso   1.00
C16    C     0.70298   0.24472   0.97297   0.00000  Uiso   1.00
C17    C     0.20298   0.74472   0.97297   0.00000  Uiso   1.00
C18    C     0.79702   0.25528   0.02703   0.00000  Uiso   1.00
C19    C     0.29697   0.24584   0.97269   0.00000  Uiso   1.00
C20    C     0.70296   0.75508   0.02706   0.00000  Uiso   1.00
C21    C     0.79698   0.25407   0.97271   0.00000  Uiso   1.00
C22    C     0.20301   0.74593   0.02730   0.00000  Uiso   1.00
C23    C     0.70300   0.75389   0.97273   0.00000  Uiso   1.00
C24    C     0.75000   0.25000   0.60996   0.00000  Uiso   1.00
C25    C     0.29701   0.24460   0.02701   0.00000  Uiso   1.00
C26    C     0.74593   0.47271   0.70296   0.00000  Uiso   1.00
C27    C     0.25409   0.52728   0.29701   0.00000  Uiso   1.00
C28    C     0.74587   0.47271   0.29704   0.00000  Uiso   1.00
C29    C     0.25407   0.52728   0.70298   0.00000  Uiso   1.00
C30    C     0.25531   0.47296   0.29704   0.00000  Uiso   1.00
C31    C     0.74472   0.52703   0.70293   0.00000  Uiso   1.00
C32    C     0.25527   0.47296   0.70295   0.00000  Uiso   1.00
C33    C     0.74469   0.52704   0.29707   0.00000  Uiso   1.00
C34    C     0.47272   0.29698   0.25421   0.00000  Uiso   1.00
C35    C     0.60991   0.75006   0.25008   0.00000  Uiso   1.00
C36    C     0.52727   0.70303   0.74576   0.00000  Uiso   1.00
C37    C     0.47269   0.74582   0.29696   0.00000  Uiso   1.00
C38    C     0.52730   0.25415   0.70307   0.00000  Uiso   1.00
C39    C     0.47296   0.70300   0.74453   0.00000  Uiso   1.00
C40    C     0.52703   0.29701   0.25544   0.00000  Uiso   1.00
C41    C     0.47299   0.25539   0.70304   0.00000  Uiso   1.00
C42    C     0.52700   0.74458   0.29699   0.00000  Uiso   1.00
C43    C     0.29700   0.74460   0.52701   0.00000  Uiso   1.00
C44    C     0.74368   0.29683   0.47308   0.00000  Uiso   1.00
C45    C     0.74467   0.70298   0.52703   0.00000  Uiso   1.00
C46    C     0.39008   0.24995   0.74994   0.00000  Uiso   1.00
C47    C     0.25533   0.29702   0.47297   0.00000  Uiso   1.00
C48    C     0.74663   0.29708   0.52734   0.00000  Uiso   1.00
C49    C     0.29697   0.74583   0.47269   0.00000  Uiso   1.00
C50    C     0.25415   0.29699   0.52729   0.00000  Uiso   1.00
C51    C     0.74586   0.70301   0.47271   0.00000  Uiso   1.00
C52    C     0.25027   0.55372   0.24986   0.00000  Uiso   1.00
C53    C     0.74975   0.44628   0.75011   0.00000  Uiso   1.00
C54    C     0.25028   0.55372   0.75014   0.00000  Uiso   1.00
C55    C     0.74973   0.44628   0.24988   0.00000  Uiso   1.00
C56    C     0.75032   0.55372   0.74979   0.00000  Uiso   1.00
C57    C     0.75008   0.74991   0.60992   0.00000  Uiso   1.00
C58    C     0.24970   0.44627   0.25018   0.00000  Uiso   1.00
C59    C     0.75033   0.55372   0.25021   0.00000  Uiso   1.00
C60    C     0.24968   0.44627   0.74981   0.00000  Uiso   1.00
C61    C     0.55372   0.75016   0.74973   0.00000  Uiso   1.00
C62    C     0.44628   0.24985   0.25026   0.00000  Uiso   1.00
C63    C     0.55372   0.25031   0.75021   0.00000  Uiso   1.00
C64    C     0.44627   0.74971   0.24982   0.00000  Uiso   1.00
C65    C     0.55372   0.25017   0.24969   0.00000  Uiso   1.00
C66    C     0.44628   0.74983   0.75029   0.00000  Uiso   1.00
C67    C     0.55372   0.75027   0.25014   0.00000  Uiso   1.00
C68    C     0.24992   0.25009   0.39008   0.00000  Uiso   1.00
C69    C     0.44628   0.24975   0.74989   0.00000  Uiso   1.00
C70    C     0.74999   0.25000   0.44641   0.00000  Uiso   1.00
C71    C     0.25016   0.75028   0.55372   0.00000  Uiso   1.00
C72    C     0.24968   0.25016   0.44628   0.00000  Uiso   1.00
C73    C     0.75032   0.74984   0.55372   0.00000  Uiso   1.00
C74    C     0.24983   0.74972   0.44628   0.00000  Uiso   1.00
C75    C     0.75001   0.25000   0.55385   0.00000  Uiso   1.00
C76    C     0.74968   0.75016   0.44628   0.00000  Uiso   1.00
C77    C     0.25031   0.24984   0.55372   0.00000  Uiso   1.00
C78    C     0.75026   0.05372   0.24988   0.00000  Uiso   1.00
C79    C     0.24992   0.39008   0.74990   0.00000  Uiso   1.00
C80    C     0.24973   0.94628   0.75014   0.00000  Uiso   1.00
C81    C     0.25032   0.05373   0.25019   0.00000  Uiso   1.00
C82    C     0.74966   0.94628   0.74979   0.00000  Uiso   1.00
C83    C     0.25030   0.05373   0.74982   0.00000  Uiso   1.00
C84    C     0.74969   0.94628   0.25021   0.00000  Uiso   1.00
C85    C     0.75026   0.05372   0.75011   0.00000  Uiso   1.00
C86    C     0.24972   0.94628   0.24986   0.00000  Uiso   1.00
C87    C     0.05372   0.75017   0.24971   0.00000  Uiso   1.00
C88    C     0.94628   0.24983   0.75031   0.00000  Uiso   1.00
C89    C     0.05373   0.75029   0.75019   0.00000  Uiso   1.00
C90    C     0.75009   0.60992   0.25011   0.00000  Uiso   1.00
C91    C     0.94628   0.24969   0.24979   0.00000  Uiso   1.00
C92    C     0.05372   0.25015   0.74974   0.00000  Uiso   1.00
C93    C     0.94628   0.74984   0.25027   0.00000  Uiso   1.00
C94    C     0.05372   0.25025   0.25012   0.00000  Uiso   1.00
C95    C     0.94628   0.74973   0.74986   0.00000  Uiso   1.00
C96    C     0.75016   0.75032   0.94628   0.00000  Uiso   1.00
C97    C     0.25016   0.25028   0.05372   0.00000  Uiso   1.00
C98    C     0.74984   0.25029   0.94628   0.00000  Uiso   1.00
C99    C     0.25016   0.74971   0.05372   0.00000  Uiso   1.00
C100   C     0.24983   0.24972   0.94628   0.00000  Uiso   1.00
C101   C     0.25006   0.60992   0.24993   0.00000  Uiso   1.00
C102   C     0.74984   0.74969   0.05373   0.00000  Uiso   1.00
C103   C     0.24984   0.75029   0.94628   0.00000  Uiso   1.00
C104   C     0.75016   0.24971   0.05372   0.00000  Uiso   1.00
C105   C     0.60991   0.75008   0.74994   0.00000  Uiso   1.00
C106   C     0.74995   0.39008   0.75006   0.00000  Uiso   1.00
C107   C     0.75008   0.60992   0.74990   0.00000  Uiso   1.00
C108   C     0.24993   0.39008   0.25009   0.00000  Uiso   1.00
C109   C     0.74994   0.39009   0.24993   0.00000  Uiso   1.00
C110   C     0.25006   0.60991   0.75008   0.00000  Uiso   1.00
C111   C     0.89008   0.74992   0.25006   0.00000  Uiso   1.00
C112   C     0.10991   0.25008   0.74994   0.00000  Uiso   1.00
C113   C     0.25008   0.74993   0.10992   0.00000  Uiso   1.00
C114   C     0.74992   0.25007   0.89008   0.00000  Uiso   1.00
C115   C     0.10992   0.75007   0.75010   0.00000  Uiso   1.00
C116   C     0.25008   0.24991   0.60992   0.00000  Uiso   1.00
C117   C     0.89008   0.24992   0.24989   0.00000  Uiso   1.00
C118   C     0.75008   0.75008   0.89008   0.00000  Uiso   1.00
C119   C     0.25009   0.25007   0.10992   0.00000  Uiso   1.00
C120   C     0.89008   0.24991   0.75008   0.00000  Uiso   1.00
C121   C     0.10991   0.75009   0.24993   0.00000  Uiso   1.00
C122   C     0.24991   0.24993   0.89008   0.00000  Uiso   1.00
C123   C     0.74992   0.74992   0.10992   0.00000  Uiso   1.00
C124   C     0.10991   0.25005   0.25006   0.00000  Uiso   1.00
C125   C     0.89009   0.74994   0.74992   0.00000  Uiso   1.00
C126   C     0.75008   0.24993   0.10992   0.00000  Uiso   1.00
C127   C     0.74992   0.75009   0.39008   0.00000  Uiso   1.00
C128   C     0.24992   0.75007   0.89008   0.00000  Uiso   1.00
C129   C     0.74991   0.89009   0.74989   0.00000  Uiso   1.00
C130   C     0.25008   0.10992   0.25010   0.00000  Uiso   1.00
C131   C     0.75005   0.10992   0.24994   0.00000  Uiso   1.00
C132   C     0.24994   0.89008   0.75007   0.00000  Uiso   1.00
C133   C     0.25007   0.10992   0.74991   0.00000  Uiso   1.00
C134   C     0.74992   0.89008   0.25010   0.00000  Uiso   1.00
C135   C     0.24993   0.89009   0.24993   0.00000  Uiso   1.00
C136   C     0.75006   0.10991   0.75007   0.00000  Uiso   1.00
C137   C     0.24588   0.47271   0.20304   0.00000  Uiso   1.00
C138   C     0.60992   0.25008   0.75011   0.00000  Uiso   1.00
C139   C     0.75413   0.52729   0.79693   0.00000  Uiso   1.00
C140   C     0.24588   0.47271   0.79696   0.00000  Uiso   1.00
C141   C     0.75418   0.52728   0.20307   0.00000  Uiso   1.00
C142   C     0.75538   0.47298   0.79696   0.00000  Uiso   1.00
C143   C     0.24463   0.52702   0.20301   0.00000  Uiso   1.00
C144   C     0.75541   0.47297   0.20304   0.00000  Uiso   1.00
C145   C     0.24465   0.52703   0.79699   0.00000  Uiso   1.00
C146   C     0.47272   0.79696   0.75427   0.00000  Uiso   1.00
C147   C     0.52728   0.20304   0.24572   0.00000  Uiso   1.00
C148   C     0.47270   0.24591   0.79704   0.00000  Uiso   1.00
C149   C     0.39008   0.74993   0.24991   0.00000  Uiso   1.00
C150   C     0.52730   0.75417   0.20299   0.00000  Uiso   1.00
C151   C     0.47297   0.20302   0.24449   0.00000  Uiso   1.00
C152   C     0.52703   0.79699   0.75551   0.00000  Uiso   1.00
C153   C     0.47298   0.75539   0.20296   0.00000  Uiso   1.00
C154   C     0.52702   0.24470   0.79708   0.00000  Uiso   1.00
C155   C     0.75337   0.20292   0.52733   0.00000  Uiso   1.00
C156   C     0.20299   0.75540   0.47299   0.00000  Uiso   1.00
C157   C     0.24467   0.20298   0.52703   0.00000  Uiso   1.00
C158   C     0.75532   0.79702   0.47297   0.00000  Uiso   1.00
C159   C     0.20303   0.75417   0.52731   0.00000  Uiso   1.00
C160   C     0.75000   0.25000   0.39013   0.00000  Uiso   1.00
C161   C     0.75631   0.20317   0.47307   0.00000  Uiso   1.00
C162   C     0.75414   0.79699   0.52729   0.00000  Uiso   1.00
C163   C     0.24585   0.20301   0.47271   0.00000  Uiso   1.00
C164   C     0.74581   0.97271   0.20307   0.00000  Uiso   1.00
C165   C     0.25412   0.02729   0.79696   0.00000  Uiso   1.00
C166   C     0.24592   0.97273   0.29702   0.00000  Uiso   1.00
C167   C     0.75404   0.02729   0.70295   0.00000  Uiso   1.00
C168   C     0.25537   0.97298   0.79699   0.00000  Uiso   1.00
C169   C     0.74457   0.02702   0.20304   0.00000  Uiso   1.00
C170   C     0.75523   0.97296   0.70291   0.00000  Uiso   1.00
C171   C     0.25009   0.75007   0.60992   0.00000  Uiso   1.00
C172   C     0.24473   0.02705   0.29705   0.00000  Uiso   1.00
C173   C     0.74465   0.02703   0.79697   0.00000  Uiso   1.00
C174   C     0.25534   0.97297   0.20301   0.00000  Uiso   1.00
C175   C     0.24468   0.02704   0.70296   0.00000  Uiso   1.00
C176   C     0.75536   0.97297   0.29706   0.00000  Uiso   1.00
C177   C     0.25412   0.02729   0.20304   0.00000  Uiso   1.00
C178   C     0.74587   0.97272   0.79693   0.00000  Uiso   1.00
C179   C     0.75415   0.02729   0.29703   0.00000  Uiso   1.00
C180   C     0.24590   0.97272   0.70299   0.00000  Uiso   1.00
C181   C     0.97272   0.79697   0.25424   0.00000  Uiso   1.00
C182   C     0.39008   0.74992   0.75007   0.00000  Uiso   1.00
C183   C     0.02728   0.20302   0.74579   0.00000  Uiso   1.00
C184   C     0.97270   0.74583   0.79701   0.00000  Uiso   1.00
C185   C     0.02730   0.25409   0.20296   0.00000  Uiso   1.00
C186   C     0.97297   0.20300   0.74456   0.00000  Uiso   1.00
C187   C     0.02703   0.79700   0.25547   0.00000  Uiso   1.00
C188   C     0.97298   0.25531   0.20293   0.00000  Uiso   1.00
C189   C     0.02702   0.74461   0.79704   0.00000  Uiso   1.00
C190   C     0.02701   0.24460   0.29696   0.00000  Uiso   1.00
C191   C     0.97300   0.75542   0.70301   0.00000  Uiso   1.00
C192   C     0.02703   0.29699   0.75551   0.00000  Uiso   1.00
H1     H     0.26199   0.46540   0.13012   0.00000  Uiso   1.00
H2     H     0.53457   0.13009   0.26161   0.00000  Uiso   1.00
H3     H     0.46532   0.26196   0.86998   0.00000  Uiso   1.00
H4     H     0.53467   0.73823   0.13003   0.00000  Uiso   1.00
H5     H     0.46545   0.13391   0.21665   0.00000  Uiso   1.00
H6     H     0.53455   0.86609   0.78335   0.00000  Uiso   1.00
H7     H     0.46546   0.78302   0.13376   0.00000  Uiso   1.00
H8     H     0.53453   0.21718   0.86632   0.00000  Uiso   1.00
H9     H     0.73702   0.12999   0.53378   0.00000  Uiso   1.00
H10    H     0.13384   0.78309   0.46550   0.00000  Uiso   1.00
H11    H     0.21712   0.13375   0.53461   0.00000  Uiso   1.00
H12    H     0.73799   0.53460   0.86985   0.00000  Uiso   1.00
H13    H     0.78287   0.86625   0.46540   0.00000  Uiso   1.00
H14    H     0.13008   0.73819   0.53468   0.00000  Uiso   1.00
H15    H     0.78463   0.13419   0.46625   0.00000  Uiso   1.00
H16    H     0.73812   0.86992   0.53466   0.00000  Uiso   1.00
H17    H     0.26187   0.13008   0.46534   0.00000  Uiso   1.00
H18    H     0.76186   0.96541   0.13013   0.00000  Uiso   1.00
H19    H     0.23801   0.03460   0.86988   0.00000  Uiso   1.00
H20    H     0.26208   0.96538   0.36991   0.00000  Uiso   1.00
H21    H     0.73792   0.03466   0.63004   0.00000  Uiso   1.00
H22    H     0.28298   0.96547   0.86618   0.00000  Uiso   1.00
H23    H     0.26201   0.46540   0.86987   0.00000  Uiso   1.00
H24    H     0.71687   0.03452   0.13388   0.00000  Uiso   1.00
H25    H     0.78264   0.96541   0.63362   0.00000  Uiso   1.00
H26    H     0.21728   0.03460   0.36634   0.00000  Uiso   1.00
H27    H     0.71709   0.03454   0.86620   0.00000  Uiso   1.00
H28    H     0.28292   0.96546   0.13379   0.00000  Uiso   1.00
H29    H     0.21716   0.03458   0.63372   0.00000  Uiso   1.00
H30    H     0.78299   0.96542   0.36626   0.00000  Uiso   1.00
H31    H     0.23799   0.03460   0.13013   0.00000  Uiso   1.00
H32    H     0.76204   0.96540   0.86984   0.00000  Uiso   1.00
H33    H     0.73822   0.03464   0.37000   0.00000  Uiso   1.00
H34    H     0.73811   0.53460   0.13015   0.00000  Uiso   1.00
H35    H     0.26201   0.96539   0.63007   0.00000  Uiso   1.00
H36    H     0.96543   0.86993   0.23834   0.00000  Uiso   1.00
H37    H     0.03458   0.13008   0.76173   0.00000  Uiso   1.00
H38    H     0.96533   0.76177   0.86997   0.00000  Uiso   1.00
H39    H     0.03468   0.23806   0.13002   0.00000  Uiso   1.00
H40    H     0.96545   0.13387   0.71678   0.00000  Uiso   1.00
H41    H     0.03455   0.86611   0.28330   0.00000  Uiso   1.00
H42    H     0.96546   0.28284   0.13368   0.00000  Uiso   1.00
H43    H     0.03454   0.71698   0.86624   0.00000  Uiso   1.00
H44    H     0.03449   0.21696   0.36615   0.00000  Uiso   1.00
H45    H     0.78298   0.46547   0.86616   0.00000  Uiso   1.00
H46    H     0.96552   0.78311   0.63384   0.00000  Uiso   1.00
H47    H     0.03455   0.36609   0.78334   0.00000  Uiso   1.00
H48    H     0.96545   0.63391   0.21665   0.00000  Uiso   1.00
H49    H     0.03467   0.73819   0.63008   0.00000  Uiso   1.00
H50    H     0.96537   0.26194   0.36985   0.00000  Uiso   1.00
H51    H     0.03457   0.63008   0.26162   0.00000  Uiso   1.00
H52    H     0.96543   0.36991   0.73838   0.00000  Uiso   1.00
H53    H     0.86982   0.76257   0.03460   0.00000  Uiso   1.00
H54    H     0.13383   0.28307   0.96550   0.00000  Uiso   1.00
H55    H     0.63013   0.26211   0.03465   0.00000  Uiso   1.00
H56    H     0.21702   0.53453   0.13382   0.00000  Uiso   1.00
H57    H     0.36987   0.73789   0.96535   0.00000  Uiso   1.00
H58    H     0.13008   0.23817   0.03468   0.00000  Uiso   1.00
H59    H     0.86641   0.71777   0.96535   0.00000  Uiso   1.00
H60    H     0.36628   0.78275   0.03456   0.00000  Uiso   1.00
H61    H     0.63372   0.21725   0.96544   0.00000  Uiso   1.00
H62    H     0.13372   0.71725   0.96544   0.00000  Uiso   1.00
H63    H     0.86628   0.28275   0.03456   0.00000  Uiso   1.00
H64    H     0.36992   0.26183   0.96532   0.00000  Uiso   1.00
H65    H     0.63359   0.78223   0.03465   0.00000  Uiso   1.00
H66    H     0.86987   0.23789   0.96535   0.00000  Uiso   1.00
H67    H     0.78307   0.46546   0.13385   0.00000  Uiso   1.00
H68    H     0.13013   0.76211   0.03465   0.00000  Uiso   1.00
H69    H     0.63018   0.73743   0.96540   0.00000  Uiso   1.00
H70    H     0.36617   0.21693   0.03450   0.00000  Uiso   1.00
H71    H     0.76201   0.46535   0.63002   0.00000  Uiso   1.00
H72    H     0.23799   0.53461   0.36993   0.00000  Uiso   1.00
H73    H     0.76186   0.46535   0.36998   0.00000  Uiso   1.00
H74    H     0.23792   0.53462   0.63009   0.00000  Uiso   1.00
H75    H     0.28284   0.46542   0.36628   0.00000  Uiso   1.00
H76    H     0.71722   0.53457   0.63368   0.00000  Uiso   1.00
H77    H     0.28272   0.46540   0.63366   0.00000  Uiso   1.00
H78    H     0.21708   0.53455   0.86621   0.00000  Uiso   1.00
H79    H     0.71714   0.53460   0.36632   0.00000  Uiso   1.00
H80    H     0.46542   0.36992   0.23829   0.00000  Uiso   1.00
H81    H     0.53457   0.63008   0.76166   0.00000  Uiso   1.00
H82    H     0.46533   0.76182   0.36992   0.00000  Uiso   1.00
H83    H     0.53463   0.23803   0.63015   0.00000  Uiso   1.00
H84    H     0.46545   0.63389   0.71670   0.00000  Uiso   1.00
H85    H     0.53455   0.36613   0.28323   0.00000  Uiso   1.00
H86    H     0.46551   0.28302   0.63384   0.00000  Uiso   1.00
H87    H     0.53448   0.71690   0.36616   0.00000  Uiso   1.00
H88    H     0.36616   0.71691   0.53450   0.00000  Uiso   1.00
H89    H     0.46543   0.86992   0.73839   0.00000  Uiso   1.00
H90    H     0.71537   0.36582   0.46630   0.00000  Uiso   1.00
H91    H     0.71712   0.63375   0.53461   0.00000  Uiso   1.00
H92    H     0.28288   0.36625   0.46540   0.00000  Uiso   1.00
H93    H     0.76299   0.37001   0.53379   0.00000  Uiso   1.00
H94    H     0.36992   0.76181   0.46532   0.00000  Uiso   1.00
H95    H     0.23812   0.36992   0.53466   0.00000  Uiso   1.00
H96    H     0.76188   0.63008   0.46534   0.00000  Uiso   1.00
O1     O     0.25000   0.25000   0.25000   0.00000  Uiso   1.00
O2     O     0.63420   0.71971   0.71971   0.00000  Uiso   1.00
O3     O     0.21971   0.36580   0.21971   0.00000  Uiso   1.00
O4     O     0.21971   0.63420   0.21971   0.00000  Uiso   1.00
O5     O     0.78029   0.36580   0.78029   0.00000  Uiso   1.00
O6     O     0.21971   0.36580   0.78029   0.00000  Uiso   1.00
O7     O     0.78029   0.63420   0.21971   0.00000  Uiso   1.00
O8     O     0.24605   0.44450   0.15780   0.00000  Uiso   1.00
O9     O     0.75394   0.55549   0.84217   0.00000  Uiso   1.00
O10    O     0.24605   0.44451   0.84220   0.00000  Uiso   1.00
O11    O     0.75405   0.55549   0.15783   0.00000  Uiso   1.00
O12    O     0.76165   0.44509   0.84193   0.00000  Uiso   1.00
O13    O     0.28029   0.28029   0.63420   0.00000  Uiso   1.00
O14    O     0.23835   0.55491   0.15805   0.00000  Uiso   1.00
O15    O     0.76172   0.44508   0.15807   0.00000  Uiso   1.00
O16    O     0.23839   0.55492   0.84196   0.00000  Uiso   1.00
O17    O     0.44453   0.84220   0.75425   0.00000  Uiso   1.00
O18    O     0.55547   0.15781   0.24575   0.00000  Uiso   1.00
O19    O     0.44446   0.24604   0.84227   0.00000  Uiso   1.00
O20    O     0.55553   0.75411   0.15776   0.00000  Uiso   1.00
O21    O     0.44507   0.15808   0.23807   0.00000  Uiso   1.00
O22    O     0.55492   0.84193   0.76193   0.00000  Uiso   1.00
O23    O     0.44509   0.76168   0.15800   0.00000  Uiso   1.00
O24    O     0.71971   0.71971   0.36580   0.00000  Uiso   1.00
O25    O     0.55491   0.23846   0.84204   0.00000  Uiso   1.00
O26    O     0.75215   0.15759   0.55536   0.00000  Uiso   1.00
O27    O     0.15805   0.76174   0.44511   0.00000  Uiso   1.00
O28    O     0.23845   0.15802   0.55495   0.00000  Uiso   1.00
O29    O     0.76155   0.84198   0.44505   0.00000  Uiso   1.00
O30    O     0.15780   0.75408   0.55555   0.00000  Uiso   1.00
O31    O     0.76388   0.15838   0.44523   0.00000  Uiso   1.00
O32    O     0.75404   0.84221   0.55552   0.00000  Uiso   1.00
O33    O     0.24595   0.15779   0.44448   0.00000  Uiso   1.00
O34    O     0.74594   0.94451   0.15783   0.00000  Uiso   1.00
O35    O     0.63420   0.28029   0.71971   0.00000  Uiso   1.00
O36    O     0.25395   0.05550   0.84220   0.00000  Uiso   1.00
O37    O     0.24609   0.94451   0.34225   0.00000  Uiso   1.00
O38    O     0.75389   0.05552   0.65773   0.00000  Uiso   1.00
O39    O     0.26165   0.94509   0.84195   0.00000  Uiso   1.00
O40    O     0.73822   0.05491   0.15809   0.00000  Uiso   1.00
O41    O     0.76140   0.94505   0.65795   0.00000  Uiso   1.00
O42    O     0.23855   0.05496   0.34202   0.00000  Uiso   1.00
O43    O     0.73840   0.05492   0.84194   0.00000  Uiso   1.00
O44    O     0.26160   0.94508   0.15804   0.00000  Uiso   1.00
O45    O     0.23845   0.05495   0.65800   0.00000  Uiso   1.00
O46    O     0.36580   0.71971   0.28029   0.00000  Uiso   1.00
O47    O     0.76165   0.94506   0.34202   0.00000  Uiso   1.00
O48    O     0.25394   0.05549   0.15780   0.00000  Uiso   1.00
O49    O     0.74607   0.94451   0.84217   0.00000  Uiso   1.00
O50    O     0.75409   0.05551   0.34226   0.00000  Uiso   1.00
O51    O     0.24606   0.94451   0.65775   0.00000  Uiso   1.00
O52    O     0.94453   0.84221   0.25420   0.00000  Uiso   1.00
O53    O     0.05547   0.15779   0.74584   0.00000  Uiso   1.00
O54    O     0.94447   0.74589   0.84224   0.00000  Uiso   1.00
O55    O     0.05554   0.25398   0.15773   0.00000  Uiso   1.00
O56    O     0.94507   0.15805   0.73817   0.00000  Uiso   1.00
O57    O     0.71971   0.28029   0.36580   0.00000  Uiso   1.00
O58    O     0.05493   0.84194   0.26189   0.00000  Uiso   1.00
O59    O     0.94509   0.26156   0.15797   0.00000  Uiso   1.00
O60    O     0.05491   0.73832   0.84200   0.00000  Uiso   1.00
O61    O     0.05488   0.23830   0.34192   0.00000  Uiso   1.00
O62    O     0.94513   0.76176   0.65806   0.00000  Uiso   1.00
O63    O     0.05492   0.34193   0.76192   0.00000  Uiso   1.00
O64    O     0.94507   0.65807   0.23807   0.00000  Uiso   1.00
O65    O     0.05554   0.75408   0.65780   0.00000  Uiso   1.00
O66    O     0.94449   0.24601   0.34217   0.00000  Uiso   1.00
O67    O     0.05547   0.65781   0.24575   0.00000  Uiso   1.00
O68    O     0.28029   0.71971   0.63420   0.00000  Uiso   1.00
O69    O     0.94453   0.34219   0.75424   0.00000  Uiso   1.00
O70    O     0.84222   0.74647   0.05547   0.00000  Uiso   1.00
O71    O     0.15805   0.26173   0.94511   0.00000  Uiso   1.00
O72    O     0.65779   0.24614   0.05552   0.00000  Uiso   1.00
O73    O     0.34221   0.75387   0.94448   0.00000  Uiso   1.00
O74    O     0.15780   0.25406   0.05555   0.00000  Uiso   1.00
O75    O     0.84202   0.73893   0.94500   0.00000  Uiso   1.00
O76    O     0.34198   0.76148   0.05493   0.00000  Uiso   1.00
O77    O     0.65802   0.23852   0.94507   0.00000  Uiso   1.00
O78    O     0.15802   0.73852   0.94507   0.00000  Uiso   1.00
O79    O     0.36580   0.71971   0.71971   0.00000  Uiso   1.00
O80    O     0.84198   0.26148   0.05493   0.00000  Uiso   1.00
O81    O     0.34220   0.24594   0.94445   0.00000  Uiso   1.00
O82    O     0.65798   0.76107   0.05500   0.00000  Uiso   1.00
O83    O     0.84221   0.25386   0.94448   0.00000  Uiso   1.00
O84    O     0.15779   0.74614   0.05552   0.00000  Uiso   1.00
O85    O     0.65778   0.75353   0.94453   0.00000  Uiso   1.00
O86    O     0.34195   0.23828   0.05489   0.00000  Uiso   1.00
O87    O     0.74607   0.44448   0.65773   0.00000  Uiso   1.00
O88    O     0.25394   0.55549   0.34225   0.00000  Uiso   1.00
O89    O     0.74594   0.44449   0.34227   0.00000  Uiso   1.00
O90    O     0.63420   0.28029   0.28029   0.00000  Uiso   1.00
O91    O     0.25391   0.55549   0.65775   0.00000  Uiso   1.00
O92    O     0.26155   0.44505   0.34200   0.00000  Uiso   1.00
O93    O     0.73849   0.55494   0.65797   0.00000  Uiso   1.00
O94    O     0.26145   0.44504   0.65798   0.00000  Uiso   1.00
O95    O     0.73845   0.55495   0.34204   0.00000  Uiso   1.00
O96    O     0.44452   0.34221   0.25417   0.00000  Uiso   1.00
O97    O     0.55547   0.65780   0.74580   0.00000  Uiso   1.00
O98    O     0.44446   0.74592   0.34220   0.00000  Uiso   1.00
O99    O     0.55551   0.25398   0.65783   0.00000  Uiso   1.00
O100   O     0.44507   0.65806   0.73811   0.00000  Uiso   1.00
O101   O     0.28029   0.71971   0.36580   0.00000  Uiso   1.00
O102   O     0.55493   0.34195   0.26184   0.00000  Uiso   1.00
O103   O     0.44512   0.26169   0.65808   0.00000  Uiso   1.00
O104   O     0.55487   0.73824   0.34195   0.00000  Uiso   1.00
O105   O     0.34195   0.73826   0.55489   0.00000  Uiso   1.00
O106   O     0.73610   0.34163   0.44525   0.00000  Uiso   1.00
O107   O     0.73845   0.65802   0.55495   0.00000  Uiso   1.00
O108   O     0.26155   0.34198   0.44505   0.00000  Uiso   1.00
O109   O     0.74786   0.34240   0.55538   0.00000  Uiso   1.00
O110   O     0.34220   0.74592   0.44445   0.00000  Uiso   1.00
O111   O     0.25405   0.34221   0.55552   0.00000  Uiso   1.00
O112   O     0.75000   0.75000   0.75000   0.00000  Uiso   1.00
O113   O     0.71971   0.28029   0.63420   0.00000  Uiso   1.00
O114   O     0.74596   0.65779   0.44448   0.00000  Uiso   1.00
O115   O     0.63420   0.71971   0.28029   0.00000  Uiso   1.00
O116   O     0.36580   0.28029   0.71971   0.00000  Uiso   1.00
O117   O     0.71971   0.71971   0.63420   0.00000  Uiso   1.00
O118   O     0.28029   0.28029   0.36580   0.00000  Uiso   1.00
O119   O     0.28029   0.36580   0.71971   0.00000  Uiso   1.00
O120   O     0.71971   0.63420   0.28029   0.00000  Uiso   1.00
O121   O     0.28029   0.63420   0.28029   0.00000  Uiso   1.00
O122   O     0.71971   0.36580   0.71971   0.00000  Uiso   1.00
O123   O     0.71971   0.63420   0.71971   0.00000  Uiso   1.00
O124   O     0.25000   0.25000   0.75000   0.00000  Uiso   1.00
O125   O     0.28029   0.36580   0.28029   0.00000  Uiso   1.00
O126   O     0.71971   0.36580   0.28029   0.00000  Uiso   1.00
O127   O     0.28029   0.63420   0.71971   0.00000  Uiso   1.00
O128   O     0.86580   0.78029   0.28029   0.00000  Uiso   1.00
O129   O     0.13420   0.21971   0.71971   0.00000  Uiso   1.00
O130   O     0.28029   0.78029   0.13420   0.00000  Uiso   1.00
O131   O     0.71971   0.21971   0.86580   0.00000  Uiso   1.00
O132   O     0.13420   0.78029   0.71971   0.00000  Uiso   1.00
O133   O     0.86580   0.21971   0.28029   0.00000  Uiso   1.00
O134   O     0.71971   0.78029   0.86580   0.00000  Uiso   1.00
O135   O     0.75000   0.75000   0.25000   0.00000  Uiso   1.00
O136   O     0.28029   0.21971   0.13420   0.00000  Uiso   1.00
O137   O     0.86580   0.21971   0.71971   0.00000  Uiso   1.00
O138   O     0.13420   0.78029   0.28029   0.00000  Uiso   1.00
O139   O     0.28029   0.21971   0.86580   0.00000  Uiso   1.00
O140   O     0.71971   0.78029   0.13420   0.00000  Uiso   1.00
O141   O     0.13420   0.21971   0.28029   0.00000  Uiso   1.00
O142   O     0.86580   0.78029   0.71971   0.00000  Uiso   1.00
O143   O     0.71971   0.21971   0.13420   0.00000  Uiso   1.00
O144   O     0.28029   0.78029   0.86580   0.00000  Uiso   1.00
O145   O     0.78029   0.71971   0.13420   0.00000  Uiso   1.00
O146   O     0.75000   0.25000   0.75000   0.00000  Uiso   1.00
O147   O     0.21971   0.28029   0.86580   0.00000  Uiso   1.00
O148   O     0.78029   0.86580   0.71971   0.00000  Uiso   1.00
O149   O     0.21971   0.13420   0.28029   0.00000  Uiso   1.00
O150   O     0.78029   0.28029   0.86580   0.00000  Uiso   1.00
O151   O     0.21971   0.71971   0.13420   0.00000  Uiso   1.00
O152   O     0.78029   0.13420   0.28029   0.00000  Uiso   1.00
O153   O     0.21971   0.86580   0.71971   0.00000  Uiso   1.00
O154   O     0.21971   0.28029   0.13420   0.00000  Uiso   1.00
O155   O     0.78029   0.71971   0.86580   0.00000  Uiso   1.00
O156   O     0.21971   0.13420   0.71971   0.00000  Uiso   1.00
O157   O     0.25000   0.75000   0.25000   0.00000  Uiso   1.00
O158   O     0.78029   0.86580   0.28029   0.00000  Uiso   1.00
O159   O     0.21971   0.71971   0.86580   0.00000  Uiso   1.00
O160   O     0.78029   0.28029   0.13420   0.00000  Uiso   1.00
O161   O     0.21971   0.86580   0.28029   0.00000  Uiso   1.00
O162   O     0.78029   0.13420   0.71971   0.00000  Uiso   1.00
O163   O     0.71971   0.86580   0.21971   0.00000  Uiso   1.00
O164   O     0.28029   0.13420   0.78029   0.00000  Uiso   1.00
O165   O     0.86580   0.28029   0.21971   0.00000  Uiso   1.00
O166   O     0.13420   0.71971   0.78029   0.00000  Uiso   1.00
O167   O     0.28029   0.13420   0.21971   0.00000  Uiso   1.00
O168   O     0.75000   0.25000   0.25000   0.00000  Uiso   1.00
O169   O     0.71971   0.86580   0.78029   0.00000  Uiso   1.00
O170   O     0.13420   0.71971   0.21971   0.00000  Uiso   1.00
O171   O     0.86580   0.28029   0.78029   0.00000  Uiso   1.00
O172   O     0.28029   0.86580   0.78029   0.00000  Uiso   1.00
O173   O     0.71971   0.13420   0.21971   0.00000  Uiso   1.00
O174   O     0.13420   0.28029   0.78029   0.00000  Uiso   1.00
O175   O     0.86580   0.71971   0.21971   0.00000  Uiso   1.00
O176   O     0.71971   0.13420   0.78029   0.00000  Uiso   1.00
O177   O     0.28029   0.86580   0.21971   0.00000  Uiso   1.00
O178   O     0.86580   0.71971   0.78029   0.00000  Uiso   1.00
O179   O     0.25000   0.75000   0.75000   0.00000  Uiso   1.00
O180   O     0.13420   0.28029   0.21971   0.00000  Uiso   1.00
O181   O     0.36580   0.78029   0.78029   0.00000  Uiso   1.00
O182   O     0.63420   0.21971   0.21971   0.00000  Uiso   1.00
O183   O     0.78029   0.78029   0.63420   0.00000  Uiso   1.00
O184   O     0.21971   0.21971   0.36580   0.00000  Uiso   1.00
O185   O     0.63420   0.78029   0.21971   0.00000  Uiso   1.00
O186   O     0.36580   0.21971   0.78029   0.00000  Uiso   1.00
O187   O     0.21971   0.78029   0.36580   0.00000  Uiso   1.00
O188   O     0.78029   0.21971   0.63420   0.00000  Uiso   1.00
O189   O     0.36580   0.21971   0.21971   0.00000  Uiso   1.00
O190   O     0.36580   0.28029   0.28029   0.00000  Uiso   1.00
O191   O     0.63420   0.78029   0.78029   0.00000  Uiso   1.00
O192   O     0.78029   0.21971   0.36580   0.00000  Uiso   1.00
O193   O     0.21971   0.78029   0.63420   0.00000  Uiso   1.00
O194   O     0.63420   0.21971   0.78029   0.00000  Uiso   1.00
O195   O     0.36580   0.78029   0.21971   0.00000  Uiso   1.00
O196   O     0.21971   0.21971   0.63420   0.00000  Uiso   1.00
O197   O     0.78029   0.78029   0.36580   0.00000  Uiso   1.00
O198   O     0.78029   0.36580   0.21971   0.00000  Uiso   1.00
O199   O     0.21971   0.63420   0.78029   0.00000  Uiso   1.00
O200   O     0.78029   0.63420   0.78029   0.00000  Uiso   1.00
Zn1    Zn    0.20660   0.29340   0.20660   0.00000  Uiso   1.00
Zn2    Zn    0.70660   0.20660   0.20660   0.00000  Uiso   1.00
Zn3    Zn    0.29340   0.20660   0.79340   0.00000  Uiso   1.00
Zn4    Zn    0.70660   0.79340   0.20660   0.00000  Uiso   1.00
Zn5    Zn    0.29340   0.20660   0.20660   0.00000  Uiso   1.00
Zn6    Zn    0.70660   0.79340   0.79340   0.00000  Uiso   1.00
Zn7    Zn    0.29340   0.79340   0.20660   0.00000  Uiso   1.00
Zn8    Zn    0.70660   0.20660   0.79340   0.00000  Uiso   1.00
Zn9    Zn    0.79340   0.20660   0.70660   0.00000  Uiso   1.00
Zn10   Zn    0.20660   0.79340   0.29340   0.00000  Uiso   1.00
Zn11   Zn    0.20660   0.20660   0.70660   0.00000  Uiso   1.00
Zn12   Zn    0.79340   0.70660   0.79340   0.00000  Uiso   1.00
Zn13   Zn    0.79340   0.79340   0.29340   0.00000  Uiso   1.00
Zn14   Zn    0.20660   0.79340   0.70660   0.00000  Uiso   1.00
Zn15   Zn    0.79340   0.20660   0.29340   0.00000  Uiso   1.00
Zn16   Zn    0.79340   0.79340   0.70660   0.00000  Uiso   1.00
Zn17   Zn    0.20660   0.20660   0.29340   0.00000  Uiso   1.00
Zn18   Zn    0.70660   0.29340   0.70660   0.00000  Uiso   1.00
Zn19   Zn    0.29340   0.70660   0.29340   0.00000  Uiso   1.00
Zn20   Zn    0.70660   0.29340   0.29340   0.00000  Uiso   1.00
Zn21   Zn    0.29340   0.70660   0.70660   0.00000  Uiso   1.00
Zn22   Zn    0.29340   0.29340   0.29340   0.00000  Uiso   1.00
Zn23   Zn    0.20660   0.29340   0.79340   0.00000  Uiso   1.00
Zn24   Zn    0.70660   0.70660   0.70660   0.00000  Uiso   1.00
Zn25   Zn    0.29340   0.29340   0.70660   0.00000  Uiso   1.00
Zn26   Zn    0.70660   0.70660   0.29340   0.00000  Uiso   1.00
Zn27   Zn    0.79340   0.70660   0.20660   0.00000  Uiso   1.00
Zn28   Zn    0.79340   0.29340   0.79340   0.00000  Uiso   1.00
Zn29   Zn    0.20660   0.70660   0.20660   0.00000  Uiso   1.00
Zn30   Zn    0.79340   0.29340   0.20660   0.00000  Uiso   1.00
Zn31   Zn    0.20660   0.70660   0.79340   0.00000  Uiso   1.00
Zn32   Zn    0.29340   0.79340   0.79340   0.00000  Uiso   1.00
loop_
_geom_bond_atom_site_label_1
_geom_bond_atom_site_label_2
_geom_bond_distance
_geom_bond_site_symmetry_2
_ccdc_geom_bond_type
C1     C62     1.458   .     S
C1     O189    1.277   .     A
C1     O190    1.278   .     A
C2     C65     1.458   .     S
C2     O182    1.278   .     A
C2     O90     1.277   .     A
C3     O64     1.382   .     S
C3     C93     1.407   .     A
C3     C6      1.410   1_655 S
C4     C89     1.406   .     A
C4     O65     1.383   .     S
C4     C191    1.410   1_455 S
C5     C91     1.406   .     A
C5     O66     1.383   .     S
C5     C190    1.409   1_655 S
C6     O67     1.383   .     S
C6     C87     1.406   .     A
C6     C3      1.410   1_455 S
C7     O69     1.383   .     S
C7     C88     1.406   .     A
C7     C192    1.409   1_655 S
C8     O70     1.383   .     S
C8     C102    1.406   .     A
C8     C14     1.410   1_554 S
C9     C100    1.407   .     A
C9     O71     1.382   .     S
C9     C12     1.409   1_556 S
C10    O72     1.383   .     S
C10    C104    1.406   .     A
C10    C16     1.410   1_554 S
C11    O73     1.383   .     S
C11    C103    1.406   .     A
C11    C15     1.410   1_556 S
C12    C97     1.406   .     A
C12    O74     1.383   .     S
C12    C9      1.409   1_554 S
C13    O187    1.277   .     A
C13    C74     1.458   .     S
C13    O101    1.278   .     A
C14    C96     1.406   .     A
C14    O75     1.382   .     S
C14    C8      1.410   1_556 S
C15    C99     1.406   .     A
C15    O76     1.382   .     S
C15    C11     1.410   1_554 S
C16    C98     1.406   .     A
C16    O77     1.382   .     S
C16    C10     1.410   1_556 S
C17    O78     1.382   .     S
C17    C103    1.406   .     A
C17    C22     1.410   1_556 S
C18    C104    1.406   .     A
C18    O80     1.382   .     S
C18    C21     1.410   1_554 S
C19    O81     1.383   .     S
C19    C100    1.406   .     A
C19    C25     1.409   1_556 S
C20    O82     1.382   .     S
C20    C102    1.406   .     A
C20    C23     1.410   1_554 S
C21    O83     1.383   .     S
C21    C98     1.406   .     A
C21    C18     1.410   1_556 S
C22    C99     1.406   .     A
C22    O84     1.383   .     S
C22    C17     1.410   1_554 S
C23    O85     1.383   .     S
C23    C96     1.406   .     A
C23    C20     1.410   1_556 S
C24    O188    1.277   .     A
C24    O113    1.277   .     A
C24    C75     1.456   .     S
C25    C97     1.407   .     A
C25    O86     1.382   .     S
C25    C19     1.409   1_554 S
C26    O87     1.383   .     S
C26    C31     1.410   .     A
C26    C53     1.406   .     A
C27    C30     1.410   .     A
C27    O88     1.383   .     S
C27    C52     1.406   .     A
C28    C33     1.410   .     A
C28    O89     1.383   .     S
C28    C55     1.406   .     A
C29    O91     1.383   .     S
C29    C32     1.410   .     A
C29    C54     1.406   .     A
C30    O92     1.382   .     S
C30    C58     1.407   .     A
C31    O93     1.382   .     S
C31    C56     1.407   .     A
C32    C60     1.407   .     A
C32    O94     1.382   .     S
C33    C59     1.407   .     A
C33    O95     1.382   .     S
C34    C62     1.406   .     A
C34    C40     1.410   .     A
C34    O96     1.383   .     S
C35    C67     1.458   .     S
C35    O185    1.278   .     A
C35    O115    1.277   .     A
C36    O97     1.383   .     S
C36    C39     1.410   .     A
C36    C61     1.406   .     A
C37    C42     1.410   .     A
C37    O98     1.383   .     S
C37    C64     1.406   .     A
C38    C63     1.406   .     A
C38    C41     1.409   .     A
C38    O99     1.383   .     S
C39    O100    1.382   .     S
C39    C66     1.407   .     A
C40    C65     1.407   .     A
C40    O102    1.382   .     S
C41    O103    1.382   .     S
C41    C69     1.406   .     A
C42    C67     1.407   .     A
C42    O104    1.382   .     S
C43    C71     1.407   .     A
C43    O105    1.382   .     S
C43    C49     1.409   .     A
C44    C70     1.408   .     A
C44    C48     1.410   .     A
C44    O106    1.382   .     S
C45    O107    1.382   .     S
C45    C51     1.410   .     A
C45    C73     1.407   .     A
C46    O186    1.278   .     A
C46    O116    1.277   .     A
C46    C69     1.458   .     S
C47    C72     1.407   .     A
C47    C50     1.410   .     A
C47    O108    1.382   .     S
C48    O109    1.383   .     S
C48    C75     1.405   .     A
C49    C74     1.406   .     A
C49    O110    1.383   .     S
C50    C77     1.406   .     A
C50    O111    1.383   .     S
C51    C76     1.406   .     A
C51    O114    1.383   .     S
C52    C101    1.458   .     S
C52    C143    1.406   .     A
C53    C106    1.458   .     S
C53    C142    1.406   .     A
C54    C145    1.406   .     A
C54    C110    1.458   .     S
C55    C109    1.458   .     S
C55    C144    1.406   .     A
C56    C139    1.406   .     A
C56    C107    1.458   .     S
C57    O183    1.278   .     A
C57    C73     1.458   .     S
C57    O117    1.277   .     A
C58    C108    1.458   .     S
C58    C137    1.406   .     A
C59    C141    1.406   .     A
C59    C90     1.458   .     S
C60    C79     1.458   .     S
C60    C140    1.406   .     A
C61    C105    1.458   .     S
C61    C152    1.407   .     A
C62    C151    1.407   .     A
C63    C154    1.407   .     A
C63    C138    1.458   .     S
C64    C153    1.407   .     A
C64    C149    1.458   .     S
C65    C147    1.406   .     A
C66    C182    1.458   .     S
C66    C146    1.406   .     A
C67    C150    1.406   .     A
C68    O184    1.278   .     A
C68    O118    1.277   .     A
C68    C72     1.458   .     S
C69    C148    1.406   .     A
C70    C160    1.460   .     S
C70    C161    1.408   .     A
C71    C171    1.458   .     S
C71    C159    1.406   .     A
C72    C163    1.406   .     A
C73    C162    1.406   .     A
C74    C156    1.407   .     A
C75    C155    1.405   .     A
C76    C127    1.458   .     S
C76    C158    1.407   .     A
C77    C116    1.458   .     S
C77    C157    1.407   .     A
C78    C179    1.406   .     A
C78    C169    1.407   .     A
C78    C131    1.458   .     S
C79    O119    1.277   .     A
C79    O6      1.278   .     A
C80    C132    1.458   .     S
C80    C180    1.406   .     A
C80    C168    1.406   .     A
C81    C177    1.406   .     A
C81    C130    1.458   .     S
C81    C172    1.407   .     A
C82    C178    1.406   .     A
C82    C129    1.458   .     S
C82    C170    1.407   .     A
C83    C133    1.458   .     S
C83    C165    1.406   .     A
C83    C175    1.407   .     A
C84    C164    1.406   .     A
C84    C134    1.458   .     S
C84    C176    1.407   .     A
C85    C167    1.406   .     A
C85    C136    1.458   .     S
C85    C173    1.406   .     A
C86    C135    1.458   .     S
C86    C166    1.406   .     A
C86    C174    1.406   .     A
C87    C187    1.407   .     A
C87    C121    1.458   .     S
C88    C120    1.458   .     S
C88    C186    1.407   .     A
C89    C115    1.458   .     S
C89    C189    1.407   .     A
C90    O7      1.278   .     A
C90    O120    1.277   .     A
C91    C188    1.407   .     A
C91    C117    1.458   .     S
C92    C112    1.458   .     S
C92    C192    1.407   .     A
C92    C183    1.406   .     A
C93    C181    1.406   .     A
C93    C111    1.458   .     S
C94    C185    1.406   .     A
C94    C190    1.406   .     A
C94    C124    1.458   .     S
C95    C184    1.406   .     A
C95    C125    1.458   .     S
C95    C191    1.407   .     A
C96    C118    1.458   .     S
C97    C119    1.458   .     S
C98    C114    1.458   .     S
C99    C113    1.458   .     S
C100   C122    1.458   .     S
C101   O4      1.278   .     A
C101   O121    1.278   .     A
C102   C123    1.458   .     S
C103   C128    1.458   .     S
C104   C126    1.458   .     S
C105   O191    1.277   .     A
C105   O2      1.278   .     A
C106   O122    1.278   .     A
C106   O5      1.278   .     A
C107   O200    1.278   .     A
C107   O123    1.277   .     A
C108   O3      1.278   .     A
C108   O125    1.277   .     A
C109   O198    1.277   .     A
C109   O126    1.277   .     A
C110   O127    1.278   .     A
C110   O199    1.277   .     A
C111   O128    1.278   .     A
C111   O175    1.277   .     A
C112   O129    1.278   .     A
C112   O174    1.277   .     A
C113   O151    1.278   .     A
C113   O130    1.277   .     A
C114   O150    1.278   .     A
C114   O131    1.277   .     A
C115   O132    1.278   .     A
C115   O166    1.277   .     A
C116   O13     1.278   .     A
C116   O196    1.277   .     A
C117   O165    1.277   .     A
C117   O133    1.278   .     A
C118   O134    1.278   .     A
C118   O155    1.277   .     A
C119   O136    1.277   .     A
C119   O154    1.278   .     A
C120   O171    1.278   .     A
C120   O137    1.277   .     A
C121   O170    1.278   .     A
C121   O138    1.277   .     A
C122   O139    1.278   .     A
C122   O147    1.277   .     A
C123   O145    1.278   .     A
C123   O140    1.277   .     A
C124   O180    1.278   .     A
C124   O141    1.277   .     A
C125   O178    1.278   .     A
C125   O142    1.277   .     A
C126   O143    1.278   .     A
C126   O160    1.277   .     A
C127   O197    1.277   .     A
C127   O24     1.278   .     A
C128   O144    1.278   .     A
C128   O159    1.277   .     A
C129   O148    1.277   .     A
C129   O169    1.278   .     A
C130   O167    1.278   .     A
C130   O149    1.277   .     A
C131   O152    1.278   .     A
C131   O173    1.278   .     A
C132   O153    1.278   .     A
C132   O172    1.278   .     A
C133   O156    1.277   .     A
C133   O164    1.278   .     A
C134   O163    1.278   .     A
C134   O158    1.277   .     A
C135   O177    1.277   .     A
C135   O161    1.278   .     A
C136   O162    1.277   .     A
C136   O176    1.277   .     A
C137   O8      1.383   .     S
C137   C143    1.409   .     A
C138   O194    1.277   .     A
C138   O35     1.278   .     A
C139   C142    1.409   .     A
C139   O9      1.383   .     S
C140   C145    1.409   .     A
C140   O10     1.383   .     S
C141   C144    1.409   .     A
C141   O11     1.383   .     S
C142   O12     1.382   .     S
C143   O14     1.382   .     S
C144   O15     1.382   .     S
C145   O16     1.382   .     S
C146   O17     1.383   .     S
C146   C152    1.410   .     A
C147   C151    1.409   .     A
C147   O18     1.383   .     S
C148   O19     1.383   .     S
C148   C154    1.410   .     A
C149   O195    1.277   .     A
C149   O46     1.278   .     A
C150   O20     1.383   .     S
C150   C153    1.410   .     A
C151   O21     1.382   .     S
C152   O22     1.382   .     S
C153   O23     1.382   .     S
C154   O25     1.382   .     S
C155   C161    1.410   .     A
C155   O26     1.383   .     S
C156   O27     1.382   .     S
C156   C159    1.409   .     A
C157   O28     1.382   .     S
C157   C163    1.410   .     A
C158   O29     1.382   .     S
C158   C162    1.410   .     A
C159   O30     1.383   .     S
C160   O192    1.278   .     A
C160   O57     1.278   .     A
C161   O31     1.382   .     S
C162   O32     1.383   .     S
C163   O33     1.383   .     S
C164   O34     1.383   .     S
C164   C169    1.409   1_565 S
C165   O36     1.383   .     S
C165   C168    1.409   1_545 S
C166   O37     1.383   .     S
C166   C172    1.410   1_565 S
C167   O38     1.383   .     S
C167   C170    1.410   1_545 S
C168   O39     1.382   .     S
C168   C165    1.409   1_565 S
C169   O40     1.382   .     S
C169   C164    1.409   1_545 S
C170   O41     1.382   .     S
C170   C167    1.410   1_565 S
C171   O68     1.277   .     A
C171   O193    1.278   .     A
C172   O42     1.382   .     S
C172   C166    1.410   1_545 S
C173   O43     1.382   .     S
C173   C178    1.409   1_545 S
C174   O44     1.382   .     S
C174   C177    1.409   1_565 S
C175   O45     1.382   .     S
C175   C180    1.410   1_545 S
C176   O47     1.382   .     S
C176   C179    1.410   1_565 S
C177   O48     1.383   .     S
C177   C174    1.409   1_545 S
C178   O49     1.383   .     S
C178   C173    1.409   1_565 S
C179   O50     1.383   .     S
C179   C176    1.410   1_545 S
C180   O51     1.383   .     S
C180   C175    1.410   1_565 S
C181   O52     1.383   .     S
C181   C187    1.410   1_655 S
C182   O79     1.277   .     A
C182   O181    1.278   .     A
C183   O53     1.383   .     S
C183   C186    1.410   1_455 S
C184   O54     1.383   .     S
C184   C189    1.410   1_655 S
C185   O55     1.383   .     S
C185   C188    1.410   1_455 S
C186   O56     1.382   .     S
C186   C183    1.410   1_655 S
C187   O58     1.382   .     S
C187   C181    1.410   1_455 S
C188   O59     1.382   .     S
C188   C185    1.410   1_655 S
C189   O60     1.382   .     S
C189   C184    1.410   1_455 S
C190   O61     1.382   .     S
C190   C5      1.409   1_455 S
C191   O62     1.382   .     S
C191   C4      1.410   1_655 S
C192   O63     1.382   .     S
C192   C7      1.409   1_455 S
H1     O8      0.990   .     S
H2     O18     0.990   .     S
H3     O19     0.990   .     S
H4     O20     0.990   .     S
H5     O21     0.991   .     S
H6     O22     0.991   .     S
H7     O23     0.991   .     S
H8     O25     0.990   .     S
H9     O26     0.990   .     S
H10    O27     0.991   .     S
H11    O28     0.990   .     S
H12    O9      0.990   .     S
H13    O29     0.991   .     S
H14    O30     0.990   .     S
H15    O31     0.991   .     S
H16    O32     0.990   .     S
H17    O33     0.990   .     S
H18    O34     0.990   .     S
H19    O36     0.990   .     S
H20    O37     0.990   .     S
H21    O38     0.990   .     S
H22    O39     0.991   .     S
H23    O10     0.990   .     S
H24    O40     0.990   .     S
H25    O41     0.990   .     S
H26    O42     0.990   .     S
H27    O43     0.991   .     S
H28    O44     0.991   .     S
H29    O45     0.990   .     S
H30    O47     0.990   .     S
H31    O48     0.990   .     S
H32    O49     0.990   .     S
H33    O50     0.990   .     S
H34    O11     0.990   .     S
H35    O51     0.990   .     S
H36    O52     0.990   .     S
H37    O53     0.990   .     S
H38    O54     0.990   .     S
H39    O55     0.990   .     S
H40    O56     0.991   .     S
H41    O58     0.991   .     S
H42    O59     0.990   .     S
H43    O60     0.990   .     S
H44    O61     0.991   .     S
H45    O12     0.991   .     S
H46    O62     0.991   .     S
H47    O63     0.991   .     S
H48    O64     0.991   .     S
H49    O65     0.990   .     S
H50    O66     0.990   .     S
H51    O67     0.990   .     S
H52    O69     0.990   .     S
H53    O70     0.990   .     S
H54    O71     0.990   .     S
H55    O72     0.990   .     S
H56    O14     0.991   .     S
H57    O73     0.990   .     S
H58    O74     0.990   .     S
H59    O75     0.991   .     S
H60    O76     0.991   .     S
H61    O77     0.990   .     S
H62    O78     0.990   .     S
H63    O80     0.990   .     S
H64    O81     0.990   .     S
H65    O82     0.991   .     S
H66    O83     0.990   .     S
H67    O15     0.991   .     S
H68    O84     0.990   .     S
H69    O85     0.990   .     S
H70    O86     0.990   .     S
H71    O87     0.990   .     S
H72    O88     0.990   .     S
H73    O89     0.990   .     S
H74    O91     0.990   .     S
H75    O92     0.990   .     S
H76    O93     0.990   .     S
H77    O94     0.990   .     S
H78    O16     0.991   .     S
H79    O95     0.990   .     S
H80    O96     0.990   .     S
H81    O97     0.990   .     S
H82    O98     0.990   .     S
H83    O99     0.990   .     S
H84    O100    0.991   .     S
H85    O102    0.991   .     S
H86    O103    0.991   .     S
H87    O104    0.990   .     S
H88    O105    0.991   .     S
H89    O17     0.990   .     S
H90    O106    0.991   .     S
H91    O107    0.991   .     S
H92    O108    0.990   .     S
H93    O109    0.990   .     S
H94    O110    0.990   .     S
H95    O111    0.990   .     S
H96    O114    0.990   .     S
O1     Zn1     1.951   .     S
O1     Zn22    1.950   .     S
O1     Zn17    1.950   .     S
O1     Zn5     1.950   .     S
O2     Zn24    1.939   .     S
O3     Zn1     1.939   .     S
O4     Zn29    1.939   .     S
O5     Zn28    1.939   .     S
O6     Zn23    1.939   .     S
O7     Zn27    1.939   .     S
O13    Zn25    1.939   .     S
O24    Zn26    1.939   .     S
O35    Zn18    1.939   .     S
O46    Zn19    1.939   .     S
O57    Zn20    1.939   .     S
O68    Zn21    1.939   .     S
O79    Zn21    1.939   .     S
O90    Zn20    1.939   .     S
O101   Zn19    1.939   .     S
O112   Zn16    1.950   .     S
O112   Zn12    1.951   .     S
O112   Zn6     1.950   .     S
O112   Zn24    1.950   .     S
O113   Zn18    1.939   .     S
O115   Zn26    1.939   .     S
O116   Zn25    1.939   .     S
O117   Zn24    1.939   .     S
O118   Zn22    1.939   .     S
O119   Zn25    1.939   .     S
O120   Zn26    1.939   .     S
O121   Zn19    1.939   .     S
O122   Zn18    1.939   .     S
O123   Zn24    1.939   .     S
O124   Zn23    1.950   .     S
O124   Zn11    1.950   .     S
O124   Zn3     1.951   .     S
O124   Zn25    1.950   .     S
O125   Zn22    1.939   .     S
O126   Zn20    1.939   .     S
O127   Zn21    1.939   .     S
O128   Zn13    1.939   .     S
O129   Zn11    1.939   .     S
O130   Zn7     1.939   .     S
O131   Zn8     1.939   .     S
O132   Zn14    1.939   .     S
O133   Zn15    1.939   .     S
O134   Zn6     1.939   .     S
O135   Zn27    1.950   .     S
O135   Zn13    1.950   .     S
O135   Zn26    1.950   .     S
O135   Zn4     1.951   .     S
O136   Zn5     1.939   .     S
O137   Zn9     1.939   .     S
O138   Zn10    1.939   .     S
O139   Zn3     1.939   .     S
O140   Zn4     1.939   .     S
O141   Zn17    1.939   .     S
O142   Zn16    1.939   .     S
O143   Zn2     1.939   .     S
O144   Zn32    1.939   .     S
O145   Zn27    1.939   .     S
O146   Zn18    1.951   .     S
O146   Zn9     1.950   .     S
O146   Zn8     1.950   .     S
O146   Zn28    1.950   .     S
O147   Zn23    1.939   .     S
O148   Zn16    1.939   .     S
O149   Zn17    1.939   .     S
O150   Zn28    1.939   .     S
O151   Zn29    1.939   .     S
O152   Zn15    1.939   .     S
O153   Zn14    1.939   .     S
O154   Zn1     1.939   .     S
O155   Zn12    1.939   .     S
O156   Zn11    1.939   .     S
O157   Zn19    1.951   .     S
O157   Zn10    1.950   .     S
O157   Zn29    1.950   .     S
O157   Zn7     1.950   .     S
O158   Zn13    1.939   .     S
O159   Zn31    1.939   .     S
O160   Zn30    1.939   .     S
O161   Zn10    1.939   .     S
O162   Zn9     1.939   .     S
O163   Zn4     1.939   .     S
O164   Zn3     1.939   .     S
O165   Zn30    1.939   .     S
O166   Zn31    1.939   .     S
O167   Zn5     1.939   .     S
O168   Zn15    1.951   .     S
O168   Zn20    1.950   .     S
O168   Zn2     1.950   .     S
O168   Zn30    1.950   .     S
O169   Zn6     1.939   .     S
O170   Zn29    1.939   .     S
O171   Zn28    1.939   .     S
O172   Zn32    1.939   .     S
O173   Zn2     1.939   .     S
O174   Zn23    1.939   .     S
O175   Zn27    1.939   .     S
O176   Zn8     1.939   .     S
O177   Zn7     1.939   .     S
O178   Zn12    1.939   .     S
O179   Zn21    1.950   .     S
O179   Zn31    1.950   .     S
O179   Zn14    1.951   .     S
O179   Zn32    1.950   .     S
O180   Zn1     1.939   .     S
O181   Zn32    1.939   .     S
O182   Zn2     1.939   .     S
O183   Zn16    1.939   .     S
O184   Zn17    1.939   .     S
O185   Zn4     1.939   .     S
O186   Zn3     1.939   .     S
O187   Zn10    1.939   .     S
O188   Zn9     1.939   .     S
O189   Zn5     1.939   .     S
O190   Zn22    1.939   .     S
O191   Zn6     1.939   .     S
O192   Zn15    1.939   .     S
O193   Zn14    1.939   .     S
O194   Zn8     1.939   .     S
O195   Zn7     1.939   .     S
O196   Zn11    1.939   .     S
O197   Zn13    1.939   .     S
O198   Zn30    1.939   .     S
O199   Zn31    1.939   .     S
O200   Zn12    1.939   .     S
