data_str_m2_o2_o5_pcu_sym.96
_audit_creation_date              2020-01-03
_audit_creation_method            'Materials Studio'
_symmetry_space_group_name_H-M    'P1'
_symmetry_Int_Tables_number       1
_symmetry_cell_setting            triclinic
loop_
_symmetry_equiv_pos_as_xyz
  x,y,z
_cell_length_a                    30.2511
_cell_length_b                    27.7059
_cell_length_c                    27.2988
_cell_angle_alpha                 90.1865
_cell_angle_beta                  91.0819
_cell_angle_gamma                 90.1410
loop_
_atom_site_label
_atom_site_type_symbol
_atom_site_fract_x
_atom_site_fract_y
_atom_site_fract_z
_atom_site_U_iso_or_equiv
_atom_site_adp_type
_atom_site_occupancy
O1     O     0.18573   0.29072   0.16667   0.00000  Uiso   1.00
O2     O     0.31427   0.20929   0.16666   0.00000  Uiso   1.00
O3     O     0.31427   0.29072   0.16666   0.00000  Uiso   1.00
O4     O     0.18573   0.20929   0.16667   0.00000  Uiso   1.00
C5     C     0.16489   0.24994   0.16569   0.00000  Uiso   1.00
C6     C     0.33493   0.25007   0.16715   0.00000  Uiso   1.00
O7     O     0.25000   0.29071   0.09613   0.00000  Uiso   1.00
O8     O     0.25000   0.20929   0.23720   0.00000  Uiso   1.00
O9     O     0.25000   0.29071   0.23720   0.00000  Uiso   1.00
O10    O     0.25000   0.20929   0.09613   0.00000  Uiso   1.00
C11    C     0.27462   0.05385   0.20233   0.00000  Uiso   1.00
C12    C     0.21040   0.44657   0.16953   0.00000  Uiso   1.00
C13    C     0.22622   0.05366   0.13013   0.00000  Uiso   1.00
C14    C     0.28994   0.44642   0.16266   0.00000  Uiso   1.00
C15    C     0.25000   0.24994   0.07349   0.00000  Uiso   1.00
C16    C     0.25009   0.25004   0.25985   0.00000  Uiso   1.00
Cu17   Cu    0.25000   0.29822   0.16667   0.00000  Uiso   1.00
Cu18   Cu    0.25000   0.20179   0.16667   0.00000  Uiso   1.00
H19    H     0.29501   0.12580   0.22591   0.00000  Uiso   1.00
H20    H     0.18015   0.37655   0.16926   0.00000  Uiso   1.00
H21    H     0.20560   0.12519   0.10675   0.00000  Uiso   1.00
H22    H     0.31990   0.37646   0.16376   0.00000  Uiso   1.00
N23    N     0.25000   0.12935   0.16667   0.00000  Uiso   1.00
N24    N     0.25000   0.37066   0.16667   0.00000  Uiso   1.00
C25    C     0.25035   0.02762   0.16620   0.00000  Uiso   1.00
C26    C     0.25024   0.47299   0.16613   0.00000  Uiso   1.00
C27    C     0.25007   0.24989   0.02182   0.00000  Uiso   1.00
C28    C     0.25010   0.25002   0.31151   0.00000  Uiso   1.00
C29    C     0.04751   0.29299   0.15321   0.00000  Uiso   1.00
C30    C     0.45002   0.21819   0.13354   0.00000  Uiso   1.00
C31    C     0.45364   0.28295   0.19533   0.00000  Uiso   1.00
C32    C     0.04733   0.20626   0.16923   0.00000  Uiso   1.00
C33    C     0.09351   0.29279   0.15547   0.00000  Uiso   1.00
C34    C     0.40445   0.21627   0.13814   0.00000  Uiso   1.00
C35    C     0.40691   0.28402   0.19421   0.00000  Uiso   1.00
C36    C     0.09334   0.20647   0.16879   0.00000  Uiso   1.00
H37    H     0.11100   0.32662   0.15114   0.00000  Uiso   1.00
H38    H     0.38561   0.18970   0.11728   0.00000  Uiso   1.00
H39    H     0.38841   0.30979   0.21531   0.00000  Uiso   1.00
H40    H     0.11082   0.17273   0.17371   0.00000  Uiso   1.00
C41    C     0.11659   0.24974   0.16333   0.00000  Uiso   1.00
C42    C     0.38289   0.25012   0.16666   0.00000  Uiso   1.00
C43    C     0.02388   0.24977   0.16151   0.00000  Uiso   1.00
C44    C     0.47507   0.25040   0.16333   0.00000  Uiso   1.00
C45    C     0.27499   0.10506   0.20031   0.00000  Uiso   1.00
C46    C     0.21117   0.39567   0.16840   0.00000  Uiso   1.00
C47    C     0.22543   0.10478   0.13258   0.00000  Uiso   1.00
C48    C     0.28893   0.39560   0.16478   0.00000  Uiso   1.00
O49    O     0.02615   0.33682   0.14910   0.00000  Uiso   1.00
C50    C     0.01820   0.34750   0.09933   0.00000  Uiso   1.00
H51    H     0.49155   0.32363   0.08431   0.00000  Uiso   1.00
H52    H     0.04867   0.34318   0.07731   0.00000  Uiso   1.00
C53    C     0.00295   0.39995   0.09579   0.00000  Uiso   1.00
H54    H     0.47321   0.40509   0.11854   0.00000  Uiso   1.00
H55    H     0.02962   0.42409   0.11021   0.00000  Uiso   1.00
C56    C     0.49166   0.41393   0.04316   0.00000  Uiso   1.00
H57    H     0.02071   0.40837   0.01956   0.00000  Uiso   1.00
H58    H     0.48206   0.45256   0.04168   0.00000  Uiso   1.00
H59    H     0.46354   0.39174   0.02920   0.00000  Uiso   1.00
O60    O     0.46976   0.18555   0.10237   0.00000  Uiso   1.00
C61    C     0.47598   0.20679   0.05594   0.00000  Uiso   1.00
H62    H     0.49770   0.18216   0.03518   0.00000  Uiso   1.00
H63    H     0.49392   0.24181   0.05886   0.00000  Uiso   1.00
C64    C     0.43204   0.21289   0.02725   0.00000  Uiso   1.00
H65    H     0.41001   0.18163   0.03412   0.00000  Uiso   1.00
H66    H     0.41532   0.24631   0.03972   0.00000  Uiso   1.00
C67    C     0.43916   0.21617   0.30568   0.00000  Uiso   1.00
H68    H     0.46574   0.24250   0.29770   0.00000  Uiso   1.00
H69    H     0.40804   0.22755   0.28692   0.00000  Uiso   1.00
H70    H     0.44840   0.18018   0.29152   0.00000  Uiso   1.00
O71    O     0.48052   0.31184   0.22594   0.00000  Uiso   1.00
C72    C     0.45851   0.34095   0.26042   0.00000  Uiso   1.00
H73    H     0.48234   0.34827   0.29092   0.00000  Uiso   1.00
H74    H     0.43080   0.32197   0.27835   0.00000  Uiso   1.00
C75    C     0.44402   0.38935   0.23795   0.00000  Uiso   1.00
H76    H     0.42761   0.38346   0.20168   0.00000  Uiso   1.00
H77    H     0.41966   0.40667   0.26232   0.00000  Uiso   1.00
C78    C     0.48298   0.42386   0.23182   0.00000  Uiso   1.00
H79    H     0.49719   0.43423   0.26813   0.00000  Uiso   1.00
H80    H     0.47150   0.45708   0.21288   0.00000  Uiso   1.00
H81    H     0.00916   0.40688   0.20976   0.00000  Uiso   1.00
O82    O     0.02556   0.16280   0.17534   0.00000  Uiso   1.00
C83    C     0.01886   0.15406   0.22566   0.00000  Uiso   1.00
H84    H     0.48405   0.14212   0.22935   0.00000  Uiso   1.00
H85    H     0.02355   0.18652   0.24970   0.00000  Uiso   1.00
C86    C     0.04893   0.11311   0.24338   0.00000  Uiso   1.00
H87    H     0.04165   0.07996   0.22160   0.00000  Uiso   1.00
H88    H     0.08400   0.12316   0.23791   0.00000  Uiso   1.00
C89    C     0.04226   0.10247   0.29756   0.00000  Uiso   1.00
H90    H     0.05165   0.13445   0.32012   0.00000  Uiso   1.00
H91    H     0.06349   0.07174   0.30896   0.00000  Uiso   1.00
H92    H     0.00721   0.09289   0.30425   0.00000  Uiso   1.00
O93    O     0.29998   0.02848   0.23661   0.00000  Uiso   1.00
C94    C     0.29644   0.04738   0.28468   0.00000  Uiso   1.00
H95    H     0.28839   0.01692   0.30930   0.00000  Uiso   1.00
H96    H     0.26932   0.07406   0.28912   0.00000  Uiso   1.00
C97    C     0.34076   0.06911   0.30164   0.00000  Uiso   1.00
H98    H     0.36614   0.04024   0.30319   0.00000  Uiso   1.00
H99    H     0.35196   0.09664   0.27512   0.00000  Uiso   1.00
C100   C     0.33725   0.09263   0.01872   0.00000  Uiso   1.00
H101   H     0.31501   0.12445   0.01674   0.00000  Uiso   1.00
H102   H     0.37048   0.10466   0.03167   0.00000  Uiso   1.00
H103   H     0.32409   0.06656   0.04554   0.00000  Uiso   1.00
O104   O     0.17019   0.47009   0.17124   0.00000  Uiso   1.00
C105   C     0.15893   0.47901   0.22054   0.00000  Uiso   1.00
H106   H     0.14353   0.01535   0.22199   0.00000  Uiso   1.00
H107   H     0.18794   0.48001   0.24654   0.00000  Uiso   1.00
C108   C     0.12503   0.44169   0.23738   0.00000  Uiso   1.00
H109   H     0.09656   0.44069   0.21103   0.00000  Uiso   1.00
H110   H     0.14038   0.40534   0.23841   0.00000  Uiso   1.00
C111   C     0.10823   0.45366   0.28830   0.00000  Uiso   1.00
H112   H     0.13613   0.45448   0.31535   0.00000  Uiso   1.00
H113   H     0.08427   0.42559   0.29954   0.00000  Uiso   1.00
H114   H     0.09133   0.48918   0.28805   0.00000  Uiso   1.00
O115   O     0.20168   0.02836   0.09487   0.00000  Uiso   1.00
C116   C     0.20948   0.04535   0.04686   0.00000  Uiso   1.00
H117   H     0.21803   0.01371   0.02383   0.00000  Uiso   1.00
H118   H     0.23796   0.07086   0.04432   0.00000  Uiso   1.00
C119   C     0.16730   0.06810   0.02537   0.00000  Uiso   1.00
H120   H     0.14155   0.03976   0.02041   0.00000  Uiso   1.00
H121   H     0.15430   0.09565   0.05091   0.00000  Uiso   1.00
C122   C     0.17583   0.09201   0.30948   0.00000  Uiso   1.00
H123   H     0.20052   0.12153   0.31398   0.00000  Uiso   1.00
H124   H     0.14466   0.10770   0.29477   0.00000  Uiso   1.00
H125   H     0.18813   0.06511   0.28284   0.00000  Uiso   1.00
O126   O     0.33027   0.46955   0.15862   0.00000  Uiso   1.00
C127   C     0.33801   0.48002   0.10878   0.00000  Uiso   1.00
H128   H     0.36009   0.01210   0.10785   0.00000  Uiso   1.00
H129   H     0.30731   0.48995   0.08782   0.00000  Uiso   1.00
C130   C     0.36137   0.43780   0.08369   0.00000  Uiso   1.00
H131   H     0.39181   0.42827   0.10490   0.00000  Uiso   1.00
H132   H     0.33926   0.40578   0.08234   0.00000  Uiso   1.00
C133   C     0.37364   0.45043   0.03136   0.00000  Uiso   1.00
H134   H     0.34362   0.46026   0.00969   0.00000  Uiso   1.00
H135   H     0.38899   0.41865   0.01373   0.00000  Uiso   1.00
H136   H     0.39753   0.48093   0.03130   0.00000  Uiso   1.00
O137   O     0.68573   0.29072   0.16667   0.00000  Uiso   1.00
O138   O     0.81427   0.20929   0.16666   0.00000  Uiso   1.00
O139   O     0.81427   0.29072   0.16666   0.00000  Uiso   1.00
O140   O     0.68573   0.20929   0.16667   0.00000  Uiso   1.00
C141   C     0.66489   0.24994   0.16569   0.00000  Uiso   1.00
C142   C     0.83493   0.25007   0.16715   0.00000  Uiso   1.00
O143   O     0.75000   0.29071   0.09613   0.00000  Uiso   1.00
O144   O     0.75000   0.20929   0.23720   0.00000  Uiso   1.00
O145   O     0.75000   0.29071   0.23720   0.00000  Uiso   1.00
O146   O     0.75000   0.20929   0.09613   0.00000  Uiso   1.00
C147   C     0.77462   0.05385   0.20233   0.00000  Uiso   1.00
C148   C     0.71040   0.44657   0.16953   0.00000  Uiso   1.00
C149   C     0.72622   0.05366   0.13013   0.00000  Uiso   1.00
C150   C     0.78994   0.44642   0.16266   0.00000  Uiso   1.00
C151   C     0.75000   0.24994   0.07349   0.00000  Uiso   1.00
C152   C     0.75009   0.25004   0.25985   0.00000  Uiso   1.00
Cu153  Cu    0.75000   0.29822   0.16667   0.00000  Uiso   1.00
Cu154  Cu    0.75000   0.20179   0.16667   0.00000  Uiso   1.00
H155   H     0.79501   0.12580   0.22591   0.00000  Uiso   1.00
H156   H     0.68015   0.37655   0.16926   0.00000  Uiso   1.00
H157   H     0.70560   0.12519   0.10675   0.00000  Uiso   1.00
H158   H     0.81990   0.37646   0.16376   0.00000  Uiso   1.00
N159   N     0.75000   0.12935   0.16667   0.00000  Uiso   1.00
N160   N     0.75000   0.37066   0.16667   0.00000  Uiso   1.00
C161   C     0.75035   0.02762   0.16620   0.00000  Uiso   1.00
C162   C     0.75024   0.47299   0.16613   0.00000  Uiso   1.00
C163   C     0.75007   0.24989   0.02182   0.00000  Uiso   1.00
C164   C     0.75010   0.25002   0.31151   0.00000  Uiso   1.00
C165   C     0.54751   0.29299   0.15321   0.00000  Uiso   1.00
C166   C     0.95002   0.21819   0.13354   0.00000  Uiso   1.00
C167   C     0.95364   0.28295   0.19533   0.00000  Uiso   1.00
C168   C     0.54733   0.20626   0.16923   0.00000  Uiso   1.00
C169   C     0.59351   0.29279   0.15547   0.00000  Uiso   1.00
C170   C     0.90445   0.21627   0.13814   0.00000  Uiso   1.00
C171   C     0.90691   0.28402   0.19421   0.00000  Uiso   1.00
C172   C     0.59334   0.20647   0.16879   0.00000  Uiso   1.00
H173   H     0.61100   0.32662   0.15114   0.00000  Uiso   1.00
H174   H     0.88561   0.18970   0.11728   0.00000  Uiso   1.00
H175   H     0.88841   0.30979   0.21531   0.00000  Uiso   1.00
H176   H     0.61082   0.17273   0.17371   0.00000  Uiso   1.00
C177   C     0.61659   0.24974   0.16333   0.00000  Uiso   1.00
C178   C     0.88289   0.25012   0.16666   0.00000  Uiso   1.00
C179   C     0.52388   0.24977   0.16151   0.00000  Uiso   1.00
C180   C     0.97507   0.25040   0.16333   0.00000  Uiso   1.00
C181   C     0.77499   0.10506   0.20031   0.00000  Uiso   1.00
C182   C     0.71117   0.39567   0.16840   0.00000  Uiso   1.00
C183   C     0.72543   0.10478   0.13258   0.00000  Uiso   1.00
C184   C     0.78893   0.39560   0.16478   0.00000  Uiso   1.00
O185   O     0.52615   0.33682   0.14910   0.00000  Uiso   1.00
C186   C     0.51820   0.34750   0.09933   0.00000  Uiso   1.00
H187   H     0.99155   0.32363   0.08431   0.00000  Uiso   1.00
H188   H     0.54867   0.34318   0.07731   0.00000  Uiso   1.00
C189   C     0.50295   0.39995   0.09579   0.00000  Uiso   1.00
H190   H     0.97321   0.40509   0.11854   0.00000  Uiso   1.00
H191   H     0.52962   0.42409   0.11021   0.00000  Uiso   1.00
C192   C     0.99166   0.41393   0.04316   0.00000  Uiso   1.00
H193   H     0.52071   0.40837   0.01956   0.00000  Uiso   1.00
H194   H     0.98206   0.45256   0.04168   0.00000  Uiso   1.00
H195   H     0.96354   0.39174   0.02920   0.00000  Uiso   1.00
O196   O     0.96976   0.18555   0.10237   0.00000  Uiso   1.00
C197   C     0.97598   0.20679   0.05594   0.00000  Uiso   1.00
H198   H     0.99770   0.18216   0.03518   0.00000  Uiso   1.00
H199   H     0.99392   0.24181   0.05886   0.00000  Uiso   1.00
C200   C     0.93204   0.21289   0.02725   0.00000  Uiso   1.00
H201   H     0.91001   0.18163   0.03412   0.00000  Uiso   1.00
H202   H     0.91532   0.24631   0.03972   0.00000  Uiso   1.00
C203   C     0.93916   0.21617   0.30568   0.00000  Uiso   1.00
H204   H     0.96574   0.24250   0.29770   0.00000  Uiso   1.00
H205   H     0.90804   0.22755   0.28692   0.00000  Uiso   1.00
H206   H     0.94840   0.18018   0.29152   0.00000  Uiso   1.00
O207   O     0.98052   0.31184   0.22594   0.00000  Uiso   1.00
C208   C     0.95851   0.34095   0.26042   0.00000  Uiso   1.00
H209   H     0.98234   0.34827   0.29092   0.00000  Uiso   1.00
H210   H     0.93080   0.32197   0.27835   0.00000  Uiso   1.00
C211   C     0.94402   0.38935   0.23795   0.00000  Uiso   1.00
H212   H     0.92761   0.38346   0.20168   0.00000  Uiso   1.00
H213   H     0.91966   0.40667   0.26232   0.00000  Uiso   1.00
C214   C     0.98298   0.42386   0.23182   0.00000  Uiso   1.00
H215   H     0.99719   0.43423   0.26813   0.00000  Uiso   1.00
H216   H     0.97150   0.45708   0.21288   0.00000  Uiso   1.00
H217   H     0.50916   0.40688   0.20976   0.00000  Uiso   1.00
O218   O     0.52556   0.16280   0.17534   0.00000  Uiso   1.00
C219   C     0.51886   0.15406   0.22566   0.00000  Uiso   1.00
H220   H     0.98405   0.14212   0.22935   0.00000  Uiso   1.00
H221   H     0.52355   0.18652   0.24970   0.00000  Uiso   1.00
C222   C     0.54893   0.11311   0.24338   0.00000  Uiso   1.00
H223   H     0.54165   0.07996   0.22160   0.00000  Uiso   1.00
H224   H     0.58400   0.12316   0.23791   0.00000  Uiso   1.00
C225   C     0.54226   0.10247   0.29756   0.00000  Uiso   1.00
H226   H     0.55165   0.13445   0.32012   0.00000  Uiso   1.00
H227   H     0.56349   0.07174   0.30896   0.00000  Uiso   1.00
H228   H     0.50721   0.09289   0.30425   0.00000  Uiso   1.00
O229   O     0.79998   0.02848   0.23661   0.00000  Uiso   1.00
C230   C     0.79644   0.04738   0.28468   0.00000  Uiso   1.00
H231   H     0.78839   0.01692   0.30930   0.00000  Uiso   1.00
H232   H     0.76932   0.07406   0.28912   0.00000  Uiso   1.00
C233   C     0.84076   0.06911   0.30164   0.00000  Uiso   1.00
H234   H     0.86614   0.04024   0.30319   0.00000  Uiso   1.00
H235   H     0.85196   0.09664   0.27512   0.00000  Uiso   1.00
C236   C     0.83725   0.09263   0.01872   0.00000  Uiso   1.00
H237   H     0.81501   0.12445   0.01674   0.00000  Uiso   1.00
H238   H     0.87048   0.10466   0.03167   0.00000  Uiso   1.00
H239   H     0.82409   0.06656   0.04554   0.00000  Uiso   1.00
O240   O     0.67019   0.47009   0.17124   0.00000  Uiso   1.00
C241   C     0.65893   0.47901   0.22054   0.00000  Uiso   1.00
H242   H     0.64353   0.01535   0.22199   0.00000  Uiso   1.00
H243   H     0.68794   0.48001   0.24654   0.00000  Uiso   1.00
C244   C     0.62503   0.44169   0.23738   0.00000  Uiso   1.00
H245   H     0.59656   0.44069   0.21103   0.00000  Uiso   1.00
H246   H     0.64038   0.40534   0.23841   0.00000  Uiso   1.00
C247   C     0.60823   0.45366   0.28830   0.00000  Uiso   1.00
H248   H     0.63613   0.45448   0.31535   0.00000  Uiso   1.00
H249   H     0.58427   0.42559   0.29954   0.00000  Uiso   1.00
H250   H     0.59133   0.48918   0.28805   0.00000  Uiso   1.00
O251   O     0.70168   0.02836   0.09487   0.00000  Uiso   1.00
C252   C     0.70948   0.04535   0.04686   0.00000  Uiso   1.00
H253   H     0.71803   0.01371   0.02383   0.00000  Uiso   1.00
H254   H     0.73796   0.07086   0.04432   0.00000  Uiso   1.00
C255   C     0.66730   0.06810   0.02537   0.00000  Uiso   1.00
H256   H     0.64155   0.03976   0.02041   0.00000  Uiso   1.00
H257   H     0.65430   0.09565   0.05091   0.00000  Uiso   1.00
C258   C     0.67583   0.09201   0.30948   0.00000  Uiso   1.00
H259   H     0.70052   0.12153   0.31398   0.00000  Uiso   1.00
H260   H     0.64466   0.10770   0.29477   0.00000  Uiso   1.00
H261   H     0.68813   0.06511   0.28284   0.00000  Uiso   1.00
O262   O     0.83027   0.46955   0.15862   0.00000  Uiso   1.00
C263   C     0.83801   0.48002   0.10878   0.00000  Uiso   1.00
H264   H     0.86009   0.01210   0.10785   0.00000  Uiso   1.00
H265   H     0.80731   0.48995   0.08782   0.00000  Uiso   1.00
C266   C     0.86137   0.43780   0.08369   0.00000  Uiso   1.00
H267   H     0.89181   0.42827   0.10490   0.00000  Uiso   1.00
H268   H     0.83926   0.40578   0.08234   0.00000  Uiso   1.00
C269   C     0.87364   0.45043   0.03136   0.00000  Uiso   1.00
H270   H     0.84362   0.46026   0.00969   0.00000  Uiso   1.00
H271   H     0.88899   0.41865   0.01373   0.00000  Uiso   1.00
H272   H     0.89753   0.48093   0.03130   0.00000  Uiso   1.00
O273   O     0.18573   0.79072   0.16667   0.00000  Uiso   1.00
O274   O     0.31427   0.70929   0.16666   0.00000  Uiso   1.00
O275   O     0.31427   0.79072   0.16666   0.00000  Uiso   1.00
O276   O     0.18573   0.70929   0.16667   0.00000  Uiso   1.00
C277   C     0.16489   0.74994   0.16569   0.00000  Uiso   1.00
C278   C     0.33493   0.75007   0.16715   0.00000  Uiso   1.00
O279   O     0.25000   0.79071   0.09613   0.00000  Uiso   1.00
O280   O     0.25000   0.70929   0.23720   0.00000  Uiso   1.00
O281   O     0.25000   0.79071   0.23720   0.00000  Uiso   1.00
O282   O     0.25000   0.70929   0.09613   0.00000  Uiso   1.00
C283   C     0.27462   0.55385   0.20233   0.00000  Uiso   1.00
C284   C     0.21040   0.94657   0.16953   0.00000  Uiso   1.00
C285   C     0.22622   0.55366   0.13013   0.00000  Uiso   1.00
C286   C     0.28994   0.94642   0.16266   0.00000  Uiso   1.00
C287   C     0.25000   0.74994   0.07349   0.00000  Uiso   1.00
C288   C     0.25009   0.75004   0.25985   0.00000  Uiso   1.00
Cu289  Cu    0.25000   0.79822   0.16667   0.00000  Uiso   1.00
Cu290  Cu    0.25000   0.70179   0.16667   0.00000  Uiso   1.00
H291   H     0.29501   0.62580   0.22591   0.00000  Uiso   1.00
H292   H     0.18015   0.87655   0.16926   0.00000  Uiso   1.00
H293   H     0.20560   0.62519   0.10675   0.00000  Uiso   1.00
H294   H     0.31990   0.87646   0.16376   0.00000  Uiso   1.00
N295   N     0.25000   0.62935   0.16667   0.00000  Uiso   1.00
N296   N     0.25000   0.87066   0.16667   0.00000  Uiso   1.00
C297   C     0.25035   0.52762   0.16620   0.00000  Uiso   1.00
C298   C     0.25024   0.97299   0.16613   0.00000  Uiso   1.00
C299   C     0.25007   0.74989   0.02182   0.00000  Uiso   1.00
C300   C     0.25010   0.75002   0.31151   0.00000  Uiso   1.00
C301   C     0.04751   0.79299   0.15321   0.00000  Uiso   1.00
C302   C     0.45002   0.71819   0.13354   0.00000  Uiso   1.00
C303   C     0.45364   0.78295   0.19533   0.00000  Uiso   1.00
C304   C     0.04733   0.70626   0.16923   0.00000  Uiso   1.00
C305   C     0.09351   0.79279   0.15547   0.00000  Uiso   1.00
C306   C     0.40445   0.71627   0.13814   0.00000  Uiso   1.00
C307   C     0.40691   0.78402   0.19421   0.00000  Uiso   1.00
C308   C     0.09334   0.70647   0.16879   0.00000  Uiso   1.00
H309   H     0.11100   0.82662   0.15114   0.00000  Uiso   1.00
H310   H     0.38561   0.68970   0.11728   0.00000  Uiso   1.00
H311   H     0.38841   0.80979   0.21531   0.00000  Uiso   1.00
H312   H     0.11082   0.67273   0.17371   0.00000  Uiso   1.00
C313   C     0.11659   0.74974   0.16333   0.00000  Uiso   1.00
C314   C     0.38289   0.75012   0.16666   0.00000  Uiso   1.00
C315   C     0.02388   0.74977   0.16151   0.00000  Uiso   1.00
C316   C     0.47507   0.75040   0.16333   0.00000  Uiso   1.00
C317   C     0.27499   0.60506   0.20031   0.00000  Uiso   1.00
C318   C     0.21117   0.89567   0.16840   0.00000  Uiso   1.00
C319   C     0.22543   0.60478   0.13258   0.00000  Uiso   1.00
C320   C     0.28893   0.89560   0.16478   0.00000  Uiso   1.00
O321   O     0.02615   0.83682   0.14910   0.00000  Uiso   1.00
C322   C     0.01820   0.84750   0.09933   0.00000  Uiso   1.00
H323   H     0.49155   0.82363   0.08431   0.00000  Uiso   1.00
H324   H     0.04867   0.84318   0.07731   0.00000  Uiso   1.00
C325   C     0.00295   0.89995   0.09579   0.00000  Uiso   1.00
H326   H     0.47321   0.90509   0.11854   0.00000  Uiso   1.00
H327   H     0.02962   0.92409   0.11021   0.00000  Uiso   1.00
C328   C     0.49166   0.91393   0.04316   0.00000  Uiso   1.00
H329   H     0.02071   0.90837   0.01956   0.00000  Uiso   1.00
H330   H     0.48206   0.95256   0.04168   0.00000  Uiso   1.00
H331   H     0.46354   0.89174   0.02920   0.00000  Uiso   1.00
O332   O     0.46976   0.68555   0.10237   0.00000  Uiso   1.00
C333   C     0.47598   0.70679   0.05594   0.00000  Uiso   1.00
H334   H     0.49770   0.68216   0.03518   0.00000  Uiso   1.00
H335   H     0.49392   0.74181   0.05886   0.00000  Uiso   1.00
C336   C     0.43204   0.71289   0.02725   0.00000  Uiso   1.00
H337   H     0.41001   0.68163   0.03412   0.00000  Uiso   1.00
H338   H     0.41532   0.74631   0.03972   0.00000  Uiso   1.00
C339   C     0.43916   0.71617   0.30568   0.00000  Uiso   1.00
H340   H     0.46574   0.74250   0.29770   0.00000  Uiso   1.00
H341   H     0.40804   0.72755   0.28692   0.00000  Uiso   1.00
H342   H     0.44840   0.68018   0.29152   0.00000  Uiso   1.00
O343   O     0.48052   0.81184   0.22594   0.00000  Uiso   1.00
C344   C     0.45851   0.84095   0.26042   0.00000  Uiso   1.00
H345   H     0.48234   0.84827   0.29092   0.00000  Uiso   1.00
H346   H     0.43080   0.82197   0.27835   0.00000  Uiso   1.00
C347   C     0.44402   0.88935   0.23795   0.00000  Uiso   1.00
H348   H     0.42761   0.88346   0.20168   0.00000  Uiso   1.00
H349   H     0.41966   0.90667   0.26232   0.00000  Uiso   1.00
C350   C     0.48298   0.92386   0.23182   0.00000  Uiso   1.00
H351   H     0.49719   0.93423   0.26813   0.00000  Uiso   1.00
H352   H     0.47150   0.95708   0.21288   0.00000  Uiso   1.00
H353   H     0.00916   0.90688   0.20976   0.00000  Uiso   1.00
O354   O     0.02556   0.66280   0.17534   0.00000  Uiso   1.00
C355   C     0.01886   0.65406   0.22566   0.00000  Uiso   1.00
H356   H     0.48405   0.64212   0.22935   0.00000  Uiso   1.00
H357   H     0.02355   0.68652   0.24970   0.00000  Uiso   1.00
C358   C     0.04893   0.61311   0.24338   0.00000  Uiso   1.00
H359   H     0.04165   0.57996   0.22160   0.00000  Uiso   1.00
H360   H     0.08400   0.62316   0.23791   0.00000  Uiso   1.00
C361   C     0.04226   0.60247   0.29756   0.00000  Uiso   1.00
H362   H     0.05165   0.63445   0.32012   0.00000  Uiso   1.00
H363   H     0.06349   0.57174   0.30896   0.00000  Uiso   1.00
H364   H     0.00721   0.59289   0.30425   0.00000  Uiso   1.00
O365   O     0.29998   0.52848   0.23661   0.00000  Uiso   1.00
C366   C     0.29644   0.54738   0.28468   0.00000  Uiso   1.00
H367   H     0.28839   0.51692   0.30930   0.00000  Uiso   1.00
H368   H     0.26932   0.57406   0.28912   0.00000  Uiso   1.00
C369   C     0.34076   0.56911   0.30164   0.00000  Uiso   1.00
H370   H     0.36614   0.54024   0.30319   0.00000  Uiso   1.00
H371   H     0.35196   0.59664   0.27512   0.00000  Uiso   1.00
C372   C     0.33725   0.59263   0.01872   0.00000  Uiso   1.00
H373   H     0.31501   0.62445   0.01674   0.00000  Uiso   1.00
H374   H     0.37048   0.60466   0.03167   0.00000  Uiso   1.00
H375   H     0.32409   0.56656   0.04554   0.00000  Uiso   1.00
O376   O     0.17019   0.97009   0.17124   0.00000  Uiso   1.00
C377   C     0.15893   0.97901   0.22054   0.00000  Uiso   1.00
H378   H     0.14353   0.51535   0.22199   0.00000  Uiso   1.00
H379   H     0.18794   0.98001   0.24654   0.00000  Uiso   1.00
C380   C     0.12503   0.94169   0.23738   0.00000  Uiso   1.00
H381   H     0.09656   0.94069   0.21103   0.00000  Uiso   1.00
H382   H     0.14038   0.90534   0.23841   0.00000  Uiso   1.00
C383   C     0.10823   0.95366   0.28830   0.00000  Uiso   1.00
H384   H     0.13613   0.95448   0.31535   0.00000  Uiso   1.00
H385   H     0.08427   0.92559   0.29954   0.00000  Uiso   1.00
H386   H     0.09133   0.98918   0.28805   0.00000  Uiso   1.00
O387   O     0.20168   0.52836   0.09487   0.00000  Uiso   1.00
C388   C     0.20948   0.54535   0.04686   0.00000  Uiso   1.00
H389   H     0.21803   0.51371   0.02383   0.00000  Uiso   1.00
H390   H     0.23796   0.57086   0.04432   0.00000  Uiso   1.00
C391   C     0.16730   0.56810   0.02537   0.00000  Uiso   1.00
H392   H     0.14155   0.53976   0.02041   0.00000  Uiso   1.00
H393   H     0.15430   0.59565   0.05091   0.00000  Uiso   1.00
C394   C     0.17583   0.59201   0.30948   0.00000  Uiso   1.00
H395   H     0.20052   0.62153   0.31398   0.00000  Uiso   1.00
H396   H     0.14466   0.60770   0.29477   0.00000  Uiso   1.00
H397   H     0.18813   0.56511   0.28284   0.00000  Uiso   1.00
O398   O     0.33027   0.96955   0.15862   0.00000  Uiso   1.00
C399   C     0.33801   0.98002   0.10878   0.00000  Uiso   1.00
H400   H     0.36009   0.51210   0.10785   0.00000  Uiso   1.00
H401   H     0.30731   0.98995   0.08782   0.00000  Uiso   1.00
C402   C     0.36137   0.93780   0.08369   0.00000  Uiso   1.00
H403   H     0.39181   0.92827   0.10490   0.00000  Uiso   1.00
H404   H     0.33926   0.90578   0.08234   0.00000  Uiso   1.00
C405   C     0.37364   0.95043   0.03136   0.00000  Uiso   1.00
H406   H     0.34362   0.96026   0.00969   0.00000  Uiso   1.00
H407   H     0.38899   0.91865   0.01373   0.00000  Uiso   1.00
H408   H     0.39753   0.98093   0.03130   0.00000  Uiso   1.00
O409   O     0.68573   0.79072   0.16667   0.00000  Uiso   1.00
O410   O     0.81427   0.70929   0.16666   0.00000  Uiso   1.00
O411   O     0.81427   0.79072   0.16666   0.00000  Uiso   1.00
O412   O     0.68573   0.70929   0.16667   0.00000  Uiso   1.00
C413   C     0.66489   0.74994   0.16569   0.00000  Uiso   1.00
C414   C     0.83493   0.75007   0.16715   0.00000  Uiso   1.00
O415   O     0.75000   0.79071   0.09613   0.00000  Uiso   1.00
O416   O     0.75000   0.70929   0.23720   0.00000  Uiso   1.00
O417   O     0.75000   0.79071   0.23720   0.00000  Uiso   1.00
O418   O     0.75000   0.70929   0.09613   0.00000  Uiso   1.00
C419   C     0.77462   0.55385   0.20233   0.00000  Uiso   1.00
C420   C     0.71040   0.94657   0.16953   0.00000  Uiso   1.00
C421   C     0.72622   0.55366   0.13013   0.00000  Uiso   1.00
C422   C     0.78994   0.94642   0.16266   0.00000  Uiso   1.00
C423   C     0.75000   0.74994   0.07349   0.00000  Uiso   1.00
C424   C     0.75009   0.75004   0.25985   0.00000  Uiso   1.00
Cu425  Cu    0.75000   0.79822   0.16667   0.00000  Uiso   1.00
Cu426  Cu    0.75000   0.70179   0.16667   0.00000  Uiso   1.00
H427   H     0.79501   0.62580   0.22591   0.00000  Uiso   1.00
H428   H     0.68015   0.87655   0.16926   0.00000  Uiso   1.00
H429   H     0.70560   0.62519   0.10675   0.00000  Uiso   1.00
H430   H     0.81990   0.87646   0.16376   0.00000  Uiso   1.00
N431   N     0.75000   0.62935   0.16667   0.00000  Uiso   1.00
N432   N     0.75000   0.87066   0.16667   0.00000  Uiso   1.00
C433   C     0.75035   0.52762   0.16620   0.00000  Uiso   1.00
C434   C     0.75024   0.97299   0.16613   0.00000  Uiso   1.00
C435   C     0.75007   0.74989   0.02182   0.00000  Uiso   1.00
C436   C     0.75010   0.75002   0.31151   0.00000  Uiso   1.00
C437   C     0.54751   0.79299   0.15321   0.00000  Uiso   1.00
C438   C     0.95002   0.71819   0.13354   0.00000  Uiso   1.00
C439   C     0.95364   0.78295   0.19533   0.00000  Uiso   1.00
C440   C     0.54733   0.70626   0.16923   0.00000  Uiso   1.00
C441   C     0.59351   0.79279   0.15547   0.00000  Uiso   1.00
C442   C     0.90445   0.71627   0.13814   0.00000  Uiso   1.00
C443   C     0.90691   0.78402   0.19421   0.00000  Uiso   1.00
C444   C     0.59334   0.70647   0.16879   0.00000  Uiso   1.00
H445   H     0.61100   0.82662   0.15114   0.00000  Uiso   1.00
H446   H     0.88561   0.68970   0.11728   0.00000  Uiso   1.00
H447   H     0.88841   0.80979   0.21531   0.00000  Uiso   1.00
H448   H     0.61082   0.67273   0.17371   0.00000  Uiso   1.00
C449   C     0.61659   0.74974   0.16333   0.00000  Uiso   1.00
C450   C     0.88289   0.75012   0.16666   0.00000  Uiso   1.00
C451   C     0.52388   0.74977   0.16151   0.00000  Uiso   1.00
C452   C     0.97507   0.75040   0.16333   0.00000  Uiso   1.00
C453   C     0.77499   0.60506   0.20031   0.00000  Uiso   1.00
C454   C     0.71117   0.89567   0.16840   0.00000  Uiso   1.00
C455   C     0.72543   0.60478   0.13258   0.00000  Uiso   1.00
C456   C     0.78893   0.89560   0.16478   0.00000  Uiso   1.00
O457   O     0.52615   0.83682   0.14910   0.00000  Uiso   1.00
C458   C     0.51820   0.84750   0.09933   0.00000  Uiso   1.00
H459   H     0.99155   0.82363   0.08431   0.00000  Uiso   1.00
H460   H     0.54867   0.84318   0.07731   0.00000  Uiso   1.00
C461   C     0.50295   0.89995   0.09579   0.00000  Uiso   1.00
H462   H     0.97321   0.90509   0.11854   0.00000  Uiso   1.00
H463   H     0.52962   0.92409   0.11021   0.00000  Uiso   1.00
C464   C     0.99166   0.91393   0.04316   0.00000  Uiso   1.00
H465   H     0.52071   0.90837   0.01956   0.00000  Uiso   1.00
H466   H     0.98206   0.95256   0.04168   0.00000  Uiso   1.00
H467   H     0.96354   0.89174   0.02920   0.00000  Uiso   1.00
O468   O     0.96976   0.68555   0.10237   0.00000  Uiso   1.00
C469   C     0.97598   0.70679   0.05594   0.00000  Uiso   1.00
H470   H     0.99770   0.68216   0.03518   0.00000  Uiso   1.00
H471   H     0.99392   0.74181   0.05886   0.00000  Uiso   1.00
C472   C     0.93204   0.71289   0.02725   0.00000  Uiso   1.00
H473   H     0.91001   0.68163   0.03412   0.00000  Uiso   1.00
H474   H     0.91532   0.74631   0.03972   0.00000  Uiso   1.00
C475   C     0.93916   0.71617   0.30568   0.00000  Uiso   1.00
H476   H     0.96574   0.74250   0.29770   0.00000  Uiso   1.00
H477   H     0.90804   0.72755   0.28692   0.00000  Uiso   1.00
H478   H     0.94840   0.68018   0.29152   0.00000  Uiso   1.00
O479   O     0.98052   0.81184   0.22594   0.00000  Uiso   1.00
C480   C     0.95851   0.84095   0.26042   0.00000  Uiso   1.00
H481   H     0.98234   0.84827   0.29092   0.00000  Uiso   1.00
H482   H     0.93080   0.82197   0.27835   0.00000  Uiso   1.00
C483   C     0.94402   0.88935   0.23795   0.00000  Uiso   1.00
H484   H     0.92761   0.88346   0.20168   0.00000  Uiso   1.00
H485   H     0.91966   0.90667   0.26232   0.00000  Uiso   1.00
C486   C     0.98298   0.92386   0.23182   0.00000  Uiso   1.00
H487   H     0.99719   0.93423   0.26813   0.00000  Uiso   1.00
H488   H     0.97150   0.95708   0.21288   0.00000  Uiso   1.00
H489   H     0.50916   0.90688   0.20976   0.00000  Uiso   1.00
O490   O     0.52556   0.66280   0.17534   0.00000  Uiso   1.00
C491   C     0.51886   0.65406   0.22566   0.00000  Uiso   1.00
H492   H     0.98405   0.64212   0.22935   0.00000  Uiso   1.00
H493   H     0.52355   0.68652   0.24970   0.00000  Uiso   1.00
C494   C     0.54893   0.61311   0.24338   0.00000  Uiso   1.00
H495   H     0.54165   0.57996   0.22160   0.00000  Uiso   1.00
H496   H     0.58400   0.62316   0.23791   0.00000  Uiso   1.00
C497   C     0.54226   0.60247   0.29756   0.00000  Uiso   1.00
H498   H     0.55165   0.63445   0.32012   0.00000  Uiso   1.00
H499   H     0.56349   0.57174   0.30896   0.00000  Uiso   1.00
H500   H     0.50721   0.59289   0.30425   0.00000  Uiso   1.00
O501   O     0.79998   0.52848   0.23661   0.00000  Uiso   1.00
C502   C     0.79644   0.54738   0.28468   0.00000  Uiso   1.00
H503   H     0.78839   0.51692   0.30930   0.00000  Uiso   1.00
H504   H     0.76932   0.57406   0.28912   0.00000  Uiso   1.00
C505   C     0.84076   0.56911   0.30164   0.00000  Uiso   1.00
H506   H     0.86614   0.54024   0.30319   0.00000  Uiso   1.00
H507   H     0.85196   0.59664   0.27512   0.00000  Uiso   1.00
C508   C     0.83725   0.59263   0.01872   0.00000  Uiso   1.00
H509   H     0.81501   0.62445   0.01674   0.00000  Uiso   1.00
H510   H     0.87048   0.60466   0.03167   0.00000  Uiso   1.00
H511   H     0.82409   0.56656   0.04554   0.00000  Uiso   1.00
O512   O     0.67019   0.97009   0.17124   0.00000  Uiso   1.00
C513   C     0.65893   0.97901   0.22054   0.00000  Uiso   1.00
H514   H     0.64353   0.51535   0.22199   0.00000  Uiso   1.00
H515   H     0.68794   0.98001   0.24654   0.00000  Uiso   1.00
C516   C     0.62503   0.94169   0.23738   0.00000  Uiso   1.00
H517   H     0.59656   0.94069   0.21103   0.00000  Uiso   1.00
H518   H     0.64038   0.90534   0.23841   0.00000  Uiso   1.00
C519   C     0.60823   0.95366   0.28830   0.00000  Uiso   1.00
H520   H     0.63613   0.95448   0.31535   0.00000  Uiso   1.00
H521   H     0.58427   0.92559   0.29954   0.00000  Uiso   1.00
H522   H     0.59133   0.98918   0.28805   0.00000  Uiso   1.00
O523   O     0.70168   0.52836   0.09487   0.00000  Uiso   1.00
C524   C     0.70948   0.54535   0.04686   0.00000  Uiso   1.00
H525   H     0.71803   0.51371   0.02383   0.00000  Uiso   1.00
H526   H     0.73796   0.57086   0.04432   0.00000  Uiso   1.00
C527   C     0.66730   0.56810   0.02537   0.00000  Uiso   1.00
H528   H     0.64155   0.53976   0.02041   0.00000  Uiso   1.00
H529   H     0.65430   0.59565   0.05091   0.00000  Uiso   1.00
C530   C     0.67583   0.59201   0.30948   0.00000  Uiso   1.00
H531   H     0.70052   0.62153   0.31398   0.00000  Uiso   1.00
H532   H     0.64466   0.60770   0.29477   0.00000  Uiso   1.00
H533   H     0.68813   0.56511   0.28284   0.00000  Uiso   1.00
O534   O     0.83027   0.96955   0.15862   0.00000  Uiso   1.00
C535   C     0.83801   0.98002   0.10878   0.00000  Uiso   1.00
H536   H     0.86009   0.51210   0.10785   0.00000  Uiso   1.00
H537   H     0.80731   0.98995   0.08782   0.00000  Uiso   1.00
C538   C     0.86137   0.93780   0.08369   0.00000  Uiso   1.00
H539   H     0.89181   0.92827   0.10490   0.00000  Uiso   1.00
H540   H     0.83926   0.90578   0.08234   0.00000  Uiso   1.00
C541   C     0.87364   0.95043   0.03136   0.00000  Uiso   1.00
H542   H     0.84362   0.96026   0.00969   0.00000  Uiso   1.00
H543   H     0.88899   0.91865   0.01373   0.00000  Uiso   1.00
H544   H     0.89753   0.98093   0.03130   0.00000  Uiso   1.00
O545   O     0.18573   0.29072   0.50000   0.00000  Uiso   1.00
O546   O     0.31427   0.20929   0.50000   0.00000  Uiso   1.00
O547   O     0.31427   0.29072   0.50000   0.00000  Uiso   1.00
O548   O     0.18573   0.20929   0.50000   0.00000  Uiso   1.00
C549   C     0.16489   0.24994   0.49903   0.00000  Uiso   1.00
C550   C     0.33493   0.25007   0.50049   0.00000  Uiso   1.00
O551   O     0.25000   0.29071   0.42946   0.00000  Uiso   1.00
O552   O     0.25000   0.20929   0.57054   0.00000  Uiso   1.00
O553   O     0.25000   0.29071   0.57054   0.00000  Uiso   1.00
O554   O     0.25000   0.20929   0.42946   0.00000  Uiso   1.00
C555   C     0.27462   0.05385   0.53566   0.00000  Uiso   1.00
C556   C     0.21040   0.44657   0.50286   0.00000  Uiso   1.00
C557   C     0.22622   0.05366   0.46346   0.00000  Uiso   1.00
C558   C     0.28994   0.44642   0.49599   0.00000  Uiso   1.00
C559   C     0.25000   0.24994   0.40682   0.00000  Uiso   1.00
C560   C     0.25009   0.25004   0.59318   0.00000  Uiso   1.00
Cu561  Cu    0.25000   0.29822   0.50000   0.00000  Uiso   1.00
Cu562  Cu    0.25000   0.20179   0.50000   0.00000  Uiso   1.00
H563   H     0.29501   0.12580   0.55925   0.00000  Uiso   1.00
H564   H     0.18015   0.37655   0.50259   0.00000  Uiso   1.00
H565   H     0.20560   0.12519   0.44009   0.00000  Uiso   1.00
H566   H     0.31990   0.37646   0.49709   0.00000  Uiso   1.00
N567   N     0.25000   0.12935   0.50000   0.00000  Uiso   1.00
N568   N     0.25000   0.37066   0.50000   0.00000  Uiso   1.00
C569   C     0.25035   0.02762   0.49953   0.00000  Uiso   1.00
C570   C     0.25024   0.47299   0.49946   0.00000  Uiso   1.00
C571   C     0.25007   0.24989   0.35515   0.00000  Uiso   1.00
C572   C     0.25010   0.25002   0.64485   0.00000  Uiso   1.00
C573   C     0.04751   0.29299   0.48654   0.00000  Uiso   1.00
C574   C     0.45002   0.21819   0.46688   0.00000  Uiso   1.00
C575   C     0.45364   0.28295   0.52866   0.00000  Uiso   1.00
C576   C     0.04733   0.20626   0.50257   0.00000  Uiso   1.00
C577   C     0.09351   0.29279   0.48881   0.00000  Uiso   1.00
C578   C     0.40445   0.21627   0.47147   0.00000  Uiso   1.00
C579   C     0.40691   0.28402   0.52754   0.00000  Uiso   1.00
C580   C     0.09334   0.20647   0.50213   0.00000  Uiso   1.00
H581   H     0.11100   0.32662   0.48447   0.00000  Uiso   1.00
H582   H     0.38561   0.18970   0.45061   0.00000  Uiso   1.00
H583   H     0.38841   0.30979   0.54864   0.00000  Uiso   1.00
H584   H     0.11082   0.17273   0.50704   0.00000  Uiso   1.00
C585   C     0.11659   0.24974   0.49667   0.00000  Uiso   1.00
C586   C     0.38289   0.25012   0.49999   0.00000  Uiso   1.00
C587   C     0.02388   0.24977   0.49484   0.00000  Uiso   1.00
C588   C     0.47507   0.25040   0.49667   0.00000  Uiso   1.00
C589   C     0.27499   0.10506   0.53364   0.00000  Uiso   1.00
C590   C     0.21117   0.39567   0.50173   0.00000  Uiso   1.00
C591   C     0.22543   0.10478   0.46591   0.00000  Uiso   1.00
C592   C     0.28893   0.39560   0.49811   0.00000  Uiso   1.00
O593   O     0.02615   0.33682   0.48243   0.00000  Uiso   1.00
C594   C     0.01820   0.34750   0.43267   0.00000  Uiso   1.00
H595   H     0.49155   0.32363   0.41764   0.00000  Uiso   1.00
H596   H     0.04867   0.34318   0.41064   0.00000  Uiso   1.00
C597   C     0.00295   0.39995   0.42913   0.00000  Uiso   1.00
H598   H     0.47321   0.40509   0.45187   0.00000  Uiso   1.00
H599   H     0.02962   0.42409   0.44354   0.00000  Uiso   1.00
C600   C     0.49166   0.41393   0.37649   0.00000  Uiso   1.00
H601   H     0.02071   0.40837   0.35289   0.00000  Uiso   1.00
H602   H     0.48206   0.45256   0.37501   0.00000  Uiso   1.00
H603   H     0.46354   0.39174   0.36253   0.00000  Uiso   1.00
O604   O     0.46976   0.18555   0.43570   0.00000  Uiso   1.00
C605   C     0.47598   0.20679   0.38927   0.00000  Uiso   1.00
H606   H     0.49770   0.18216   0.36851   0.00000  Uiso   1.00
H607   H     0.49392   0.24181   0.39220   0.00000  Uiso   1.00
C608   C     0.43204   0.21289   0.36058   0.00000  Uiso   1.00
H609   H     0.41001   0.18163   0.36745   0.00000  Uiso   1.00
H610   H     0.41532   0.24631   0.37305   0.00000  Uiso   1.00
C611   C     0.43916   0.21617   0.63902   0.00000  Uiso   1.00
H612   H     0.46574   0.24250   0.63104   0.00000  Uiso   1.00
H613   H     0.40804   0.22755   0.62026   0.00000  Uiso   1.00
H614   H     0.44840   0.18018   0.62486   0.00000  Uiso   1.00
O615   O     0.48052   0.31184   0.55927   0.00000  Uiso   1.00
C616   C     0.45851   0.34095   0.59375   0.00000  Uiso   1.00
H617   H     0.48234   0.34827   0.62426   0.00000  Uiso   1.00
H618   H     0.43080   0.32197   0.61168   0.00000  Uiso   1.00
C619   C     0.44402   0.38935   0.57128   0.00000  Uiso   1.00
H620   H     0.42761   0.38346   0.53501   0.00000  Uiso   1.00
H621   H     0.41966   0.40667   0.59565   0.00000  Uiso   1.00
C622   C     0.48298   0.42386   0.56515   0.00000  Uiso   1.00
H623   H     0.49719   0.43423   0.60146   0.00000  Uiso   1.00
H624   H     0.47150   0.45708   0.54621   0.00000  Uiso   1.00
H625   H     0.00916   0.40688   0.54309   0.00000  Uiso   1.00
O626   O     0.02556   0.16280   0.50868   0.00000  Uiso   1.00
C627   C     0.01886   0.15406   0.55900   0.00000  Uiso   1.00
H628   H     0.48405   0.14212   0.56269   0.00000  Uiso   1.00
H629   H     0.02355   0.18652   0.58303   0.00000  Uiso   1.00
C630   C     0.04893   0.11311   0.57671   0.00000  Uiso   1.00
H631   H     0.04165   0.07996   0.55493   0.00000  Uiso   1.00
H632   H     0.08400   0.12316   0.57124   0.00000  Uiso   1.00
C633   C     0.04226   0.10247   0.63089   0.00000  Uiso   1.00
H634   H     0.05165   0.13445   0.65345   0.00000  Uiso   1.00
H635   H     0.06349   0.07174   0.64229   0.00000  Uiso   1.00
H636   H     0.00721   0.09289   0.63758   0.00000  Uiso   1.00
O637   O     0.29998   0.02848   0.56994   0.00000  Uiso   1.00
C638   C     0.29644   0.04738   0.61802   0.00000  Uiso   1.00
H639   H     0.28839   0.01692   0.64263   0.00000  Uiso   1.00
H640   H     0.26932   0.07406   0.62246   0.00000  Uiso   1.00
C641   C     0.34076   0.06911   0.63498   0.00000  Uiso   1.00
H642   H     0.36614   0.04024   0.63653   0.00000  Uiso   1.00
H643   H     0.35196   0.09664   0.60845   0.00000  Uiso   1.00
C644   C     0.33725   0.09263   0.35205   0.00000  Uiso   1.00
H645   H     0.31501   0.12445   0.35007   0.00000  Uiso   1.00
H646   H     0.37048   0.10466   0.36500   0.00000  Uiso   1.00
H647   H     0.32409   0.06656   0.37887   0.00000  Uiso   1.00
O648   O     0.17019   0.47009   0.50458   0.00000  Uiso   1.00
C649   C     0.15893   0.47901   0.55387   0.00000  Uiso   1.00
H650   H     0.14353   0.01535   0.55532   0.00000  Uiso   1.00
H651   H     0.18794   0.48001   0.57988   0.00000  Uiso   1.00
C652   C     0.12503   0.44169   0.57071   0.00000  Uiso   1.00
H653   H     0.09656   0.44069   0.54436   0.00000  Uiso   1.00
H654   H     0.14038   0.40534   0.57174   0.00000  Uiso   1.00
C655   C     0.10823   0.45366   0.62163   0.00000  Uiso   1.00
H656   H     0.13613   0.45448   0.64868   0.00000  Uiso   1.00
H657   H     0.08427   0.42559   0.63287   0.00000  Uiso   1.00
H658   H     0.09133   0.48918   0.62139   0.00000  Uiso   1.00
O659   O     0.20168   0.02836   0.42820   0.00000  Uiso   1.00
C660   C     0.20948   0.04535   0.38019   0.00000  Uiso   1.00
H661   H     0.21803   0.01371   0.35717   0.00000  Uiso   1.00
H662   H     0.23796   0.07086   0.37766   0.00000  Uiso   1.00
C663   C     0.16730   0.06810   0.35870   0.00000  Uiso   1.00
H664   H     0.14155   0.03976   0.35374   0.00000  Uiso   1.00
H665   H     0.15430   0.09565   0.38425   0.00000  Uiso   1.00
C666   C     0.17583   0.09201   0.64282   0.00000  Uiso   1.00
H667   H     0.20052   0.12153   0.64731   0.00000  Uiso   1.00
H668   H     0.14466   0.10770   0.62810   0.00000  Uiso   1.00
H669   H     0.18813   0.06511   0.61617   0.00000  Uiso   1.00
O670   O     0.33027   0.46955   0.49195   0.00000  Uiso   1.00
C671   C     0.33801   0.48002   0.44211   0.00000  Uiso   1.00
H672   H     0.36009   0.01210   0.44118   0.00000  Uiso   1.00
H673   H     0.30731   0.48995   0.42116   0.00000  Uiso   1.00
C674   C     0.36137   0.43780   0.41702   0.00000  Uiso   1.00
H675   H     0.39181   0.42827   0.43823   0.00000  Uiso   1.00
H676   H     0.33926   0.40578   0.41567   0.00000  Uiso   1.00
C677   C     0.37364   0.45043   0.36469   0.00000  Uiso   1.00
H678   H     0.34362   0.46026   0.34303   0.00000  Uiso   1.00
H679   H     0.38899   0.41865   0.34707   0.00000  Uiso   1.00
H680   H     0.39753   0.48093   0.36463   0.00000  Uiso   1.00
O681   O     0.68573   0.29072   0.50000   0.00000  Uiso   1.00
O682   O     0.81427   0.20929   0.50000   0.00000  Uiso   1.00
O683   O     0.81427   0.29072   0.50000   0.00000  Uiso   1.00
O684   O     0.68573   0.20929   0.50000   0.00000  Uiso   1.00
C685   C     0.66489   0.24994   0.49903   0.00000  Uiso   1.00
C686   C     0.83493   0.25007   0.50049   0.00000  Uiso   1.00
O687   O     0.75000   0.29071   0.42946   0.00000  Uiso   1.00
O688   O     0.75000   0.20929   0.57054   0.00000  Uiso   1.00
O689   O     0.75000   0.29071   0.57054   0.00000  Uiso   1.00
O690   O     0.75000   0.20929   0.42946   0.00000  Uiso   1.00
C691   C     0.77462   0.05385   0.53566   0.00000  Uiso   1.00
C692   C     0.71040   0.44657   0.50286   0.00000  Uiso   1.00
C693   C     0.72622   0.05366   0.46346   0.00000  Uiso   1.00
C694   C     0.78994   0.44642   0.49599   0.00000  Uiso   1.00
C695   C     0.75000   0.24994   0.40682   0.00000  Uiso   1.00
C696   C     0.75009   0.25004   0.59318   0.00000  Uiso   1.00
Cu697  Cu    0.75000   0.29822   0.50000   0.00000  Uiso   1.00
Cu698  Cu    0.75000   0.20179   0.50000   0.00000  Uiso   1.00
H699   H     0.79501   0.12580   0.55925   0.00000  Uiso   1.00
H700   H     0.68015   0.37655   0.50259   0.00000  Uiso   1.00
H701   H     0.70560   0.12519   0.44009   0.00000  Uiso   1.00
H702   H     0.81990   0.37646   0.49709   0.00000  Uiso   1.00
N703   N     0.75000   0.12935   0.50000   0.00000  Uiso   1.00
N704   N     0.75000   0.37066   0.50000   0.00000  Uiso   1.00
C705   C     0.75035   0.02762   0.49953   0.00000  Uiso   1.00
C706   C     0.75024   0.47299   0.49946   0.00000  Uiso   1.00
C707   C     0.75007   0.24989   0.35515   0.00000  Uiso   1.00
C708   C     0.75010   0.25002   0.64485   0.00000  Uiso   1.00
C709   C     0.54751   0.29299   0.48654   0.00000  Uiso   1.00
C710   C     0.95002   0.21819   0.46688   0.00000  Uiso   1.00
C711   C     0.95364   0.28295   0.52866   0.00000  Uiso   1.00
C712   C     0.54733   0.20626   0.50257   0.00000  Uiso   1.00
C713   C     0.59351   0.29279   0.48881   0.00000  Uiso   1.00
C714   C     0.90445   0.21627   0.47147   0.00000  Uiso   1.00
C715   C     0.90691   0.28402   0.52754   0.00000  Uiso   1.00
C716   C     0.59334   0.20647   0.50213   0.00000  Uiso   1.00
H717   H     0.61100   0.32662   0.48447   0.00000  Uiso   1.00
H718   H     0.88561   0.18970   0.45061   0.00000  Uiso   1.00
H719   H     0.88841   0.30979   0.54864   0.00000  Uiso   1.00
H720   H     0.61082   0.17273   0.50704   0.00000  Uiso   1.00
C721   C     0.61659   0.24974   0.49667   0.00000  Uiso   1.00
C722   C     0.88289   0.25012   0.49999   0.00000  Uiso   1.00
C723   C     0.52388   0.24977   0.49484   0.00000  Uiso   1.00
C724   C     0.97507   0.25040   0.49667   0.00000  Uiso   1.00
C725   C     0.77499   0.10506   0.53364   0.00000  Uiso   1.00
C726   C     0.71117   0.39567   0.50173   0.00000  Uiso   1.00
C727   C     0.72543   0.10478   0.46591   0.00000  Uiso   1.00
C728   C     0.78893   0.39560   0.49811   0.00000  Uiso   1.00
O729   O     0.52615   0.33682   0.48243   0.00000  Uiso   1.00
C730   C     0.51820   0.34750   0.43267   0.00000  Uiso   1.00
H731   H     0.99155   0.32363   0.41764   0.00000  Uiso   1.00
H732   H     0.54867   0.34318   0.41064   0.00000  Uiso   1.00
C733   C     0.50295   0.39995   0.42913   0.00000  Uiso   1.00
H734   H     0.97321   0.40509   0.45187   0.00000  Uiso   1.00
H735   H     0.52962   0.42409   0.44354   0.00000  Uiso   1.00
C736   C     0.99166   0.41393   0.37649   0.00000  Uiso   1.00
H737   H     0.52071   0.40837   0.35289   0.00000  Uiso   1.00
H738   H     0.98206   0.45256   0.37501   0.00000  Uiso   1.00
H739   H     0.96354   0.39174   0.36253   0.00000  Uiso   1.00
O740   O     0.96976   0.18555   0.43570   0.00000  Uiso   1.00
C741   C     0.97598   0.20679   0.38927   0.00000  Uiso   1.00
H742   H     0.99770   0.18216   0.36851   0.00000  Uiso   1.00
H743   H     0.99392   0.24181   0.39220   0.00000  Uiso   1.00
C744   C     0.93204   0.21289   0.36058   0.00000  Uiso   1.00
H745   H     0.91001   0.18163   0.36745   0.00000  Uiso   1.00
H746   H     0.91532   0.24631   0.37305   0.00000  Uiso   1.00
C747   C     0.93916   0.21617   0.63902   0.00000  Uiso   1.00
H748   H     0.96574   0.24250   0.63104   0.00000  Uiso   1.00
H749   H     0.90804   0.22755   0.62026   0.00000  Uiso   1.00
H750   H     0.94840   0.18018   0.62486   0.00000  Uiso   1.00
O751   O     0.98052   0.31184   0.55927   0.00000  Uiso   1.00
C752   C     0.95851   0.34095   0.59375   0.00000  Uiso   1.00
H753   H     0.98234   0.34827   0.62426   0.00000  Uiso   1.00
H754   H     0.93080   0.32197   0.61168   0.00000  Uiso   1.00
C755   C     0.94402   0.38935   0.57128   0.00000  Uiso   1.00
H756   H     0.92761   0.38346   0.53501   0.00000  Uiso   1.00
H757   H     0.91966   0.40667   0.59565   0.00000  Uiso   1.00
C758   C     0.98298   0.42386   0.56515   0.00000  Uiso   1.00
H759   H     0.99719   0.43423   0.60146   0.00000  Uiso   1.00
H760   H     0.97150   0.45708   0.54621   0.00000  Uiso   1.00
H761   H     0.50916   0.40688   0.54309   0.00000  Uiso   1.00
O762   O     0.52556   0.16280   0.50868   0.00000  Uiso   1.00
C763   C     0.51886   0.15406   0.55900   0.00000  Uiso   1.00
H764   H     0.98405   0.14212   0.56269   0.00000  Uiso   1.00
H765   H     0.52355   0.18652   0.58303   0.00000  Uiso   1.00
C766   C     0.54893   0.11311   0.57671   0.00000  Uiso   1.00
H767   H     0.54165   0.07996   0.55493   0.00000  Uiso   1.00
H768   H     0.58400   0.12316   0.57124   0.00000  Uiso   1.00
C769   C     0.54226   0.10247   0.63089   0.00000  Uiso   1.00
H770   H     0.55165   0.13445   0.65345   0.00000  Uiso   1.00
H771   H     0.56349   0.07174   0.64229   0.00000  Uiso   1.00
H772   H     0.50721   0.09289   0.63758   0.00000  Uiso   1.00
O773   O     0.79998   0.02848   0.56994   0.00000  Uiso   1.00
C774   C     0.79644   0.04738   0.61802   0.00000  Uiso   1.00
H775   H     0.78839   0.01692   0.64263   0.00000  Uiso   1.00
H776   H     0.76932   0.07406   0.62246   0.00000  Uiso   1.00
C777   C     0.84076   0.06911   0.63498   0.00000  Uiso   1.00
H778   H     0.86614   0.04024   0.63653   0.00000  Uiso   1.00
H779   H     0.85196   0.09664   0.60845   0.00000  Uiso   1.00
C780   C     0.83725   0.09263   0.35205   0.00000  Uiso   1.00
H781   H     0.81501   0.12445   0.35007   0.00000  Uiso   1.00
H782   H     0.87048   0.10466   0.36500   0.00000  Uiso   1.00
H783   H     0.82409   0.06656   0.37887   0.00000  Uiso   1.00
O784   O     0.67019   0.47009   0.50458   0.00000  Uiso   1.00
C785   C     0.65893   0.47901   0.55387   0.00000  Uiso   1.00
H786   H     0.64353   0.01535   0.55532   0.00000  Uiso   1.00
H787   H     0.68794   0.48001   0.57988   0.00000  Uiso   1.00
C788   C     0.62503   0.44169   0.57071   0.00000  Uiso   1.00
H789   H     0.59656   0.44069   0.54436   0.00000  Uiso   1.00
H790   H     0.64038   0.40534   0.57174   0.00000  Uiso   1.00
C791   C     0.60823   0.45366   0.62163   0.00000  Uiso   1.00
H792   H     0.63613   0.45448   0.64868   0.00000  Uiso   1.00
H793   H     0.58427   0.42559   0.63287   0.00000  Uiso   1.00
H794   H     0.59133   0.48918   0.62139   0.00000  Uiso   1.00
O795   O     0.70168   0.02836   0.42820   0.00000  Uiso   1.00
C796   C     0.70948   0.04535   0.38019   0.00000  Uiso   1.00
H797   H     0.71803   0.01371   0.35717   0.00000  Uiso   1.00
H798   H     0.73796   0.07086   0.37766   0.00000  Uiso   1.00
C799   C     0.66730   0.06810   0.35870   0.00000  Uiso   1.00
H800   H     0.64155   0.03976   0.35374   0.00000  Uiso   1.00
H801   H     0.65430   0.09565   0.38425   0.00000  Uiso   1.00
C802   C     0.67583   0.09201   0.64282   0.00000  Uiso   1.00
H803   H     0.70052   0.12153   0.64731   0.00000  Uiso   1.00
H804   H     0.64466   0.10770   0.62810   0.00000  Uiso   1.00
H805   H     0.68813   0.06511   0.61617   0.00000  Uiso   1.00
O806   O     0.83027   0.46955   0.49195   0.00000  Uiso   1.00
C807   C     0.83801   0.48002   0.44211   0.00000  Uiso   1.00
H808   H     0.86009   0.01210   0.44118   0.00000  Uiso   1.00
H809   H     0.80731   0.48995   0.42116   0.00000  Uiso   1.00
C810   C     0.86137   0.43780   0.41702   0.00000  Uiso   1.00
H811   H     0.89181   0.42827   0.43823   0.00000  Uiso   1.00
H812   H     0.83926   0.40578   0.41567   0.00000  Uiso   1.00
C813   C     0.87364   0.45043   0.36469   0.00000  Uiso   1.00
H814   H     0.84362   0.46026   0.34303   0.00000  Uiso   1.00
H815   H     0.88899   0.41865   0.34707   0.00000  Uiso   1.00
H816   H     0.89753   0.48093   0.36463   0.00000  Uiso   1.00
O817   O     0.18573   0.79072   0.50000   0.00000  Uiso   1.00
O818   O     0.31427   0.70929   0.50000   0.00000  Uiso   1.00
O819   O     0.31427   0.79072   0.50000   0.00000  Uiso   1.00
O820   O     0.18573   0.70929   0.50000   0.00000  Uiso   1.00
C821   C     0.16489   0.74994   0.49903   0.00000  Uiso   1.00
C822   C     0.33493   0.75007   0.50049   0.00000  Uiso   1.00
O823   O     0.25000   0.79071   0.42946   0.00000  Uiso   1.00
O824   O     0.25000   0.70929   0.57054   0.00000  Uiso   1.00
O825   O     0.25000   0.79071   0.57054   0.00000  Uiso   1.00
O826   O     0.25000   0.70929   0.42946   0.00000  Uiso   1.00
C827   C     0.27462   0.55385   0.53566   0.00000  Uiso   1.00
C828   C     0.21040   0.94657   0.50286   0.00000  Uiso   1.00
C829   C     0.22622   0.55366   0.46346   0.00000  Uiso   1.00
C830   C     0.28994   0.94642   0.49599   0.00000  Uiso   1.00
C831   C     0.25000   0.74994   0.40682   0.00000  Uiso   1.00
C832   C     0.25009   0.75004   0.59318   0.00000  Uiso   1.00
Cu833  Cu    0.25000   0.79822   0.50000   0.00000  Uiso   1.00
Cu834  Cu    0.25000   0.70179   0.50000   0.00000  Uiso   1.00
H835   H     0.29501   0.62580   0.55925   0.00000  Uiso   1.00
H836   H     0.18015   0.87655   0.50259   0.00000  Uiso   1.00
H837   H     0.20560   0.62519   0.44009   0.00000  Uiso   1.00
H838   H     0.31990   0.87646   0.49709   0.00000  Uiso   1.00
N839   N     0.25000   0.62935   0.50000   0.00000  Uiso   1.00
N840   N     0.25000   0.87066   0.50000   0.00000  Uiso   1.00
C841   C     0.25035   0.52762   0.49953   0.00000  Uiso   1.00
C842   C     0.25024   0.97299   0.49946   0.00000  Uiso   1.00
C843   C     0.25007   0.74989   0.35515   0.00000  Uiso   1.00
C844   C     0.25010   0.75002   0.64485   0.00000  Uiso   1.00
C845   C     0.04751   0.79299   0.48654   0.00000  Uiso   1.00
C846   C     0.45002   0.71819   0.46688   0.00000  Uiso   1.00
C847   C     0.45364   0.78295   0.52866   0.00000  Uiso   1.00
C848   C     0.04733   0.70626   0.50257   0.00000  Uiso   1.00
C849   C     0.09351   0.79279   0.48881   0.00000  Uiso   1.00
C850   C     0.40445   0.71627   0.47147   0.00000  Uiso   1.00
C851   C     0.40691   0.78402   0.52754   0.00000  Uiso   1.00
C852   C     0.09334   0.70647   0.50213   0.00000  Uiso   1.00
H853   H     0.11100   0.82662   0.48447   0.00000  Uiso   1.00
H854   H     0.38561   0.68970   0.45061   0.00000  Uiso   1.00
H855   H     0.38841   0.80979   0.54864   0.00000  Uiso   1.00
H856   H     0.11082   0.67273   0.50704   0.00000  Uiso   1.00
C857   C     0.11659   0.74974   0.49667   0.00000  Uiso   1.00
C858   C     0.38289   0.75012   0.49999   0.00000  Uiso   1.00
C859   C     0.02388   0.74977   0.49484   0.00000  Uiso   1.00
C860   C     0.47507   0.75040   0.49667   0.00000  Uiso   1.00
C861   C     0.27499   0.60506   0.53364   0.00000  Uiso   1.00
C862   C     0.21117   0.89567   0.50173   0.00000  Uiso   1.00
C863   C     0.22543   0.60478   0.46591   0.00000  Uiso   1.00
C864   C     0.28893   0.89560   0.49811   0.00000  Uiso   1.00
O865   O     0.02615   0.83682   0.48243   0.00000  Uiso   1.00
C866   C     0.01820   0.84750   0.43267   0.00000  Uiso   1.00
H867   H     0.49155   0.82363   0.41764   0.00000  Uiso   1.00
H868   H     0.04867   0.84318   0.41064   0.00000  Uiso   1.00
C869   C     0.00295   0.89995   0.42913   0.00000  Uiso   1.00
H870   H     0.47321   0.90509   0.45187   0.00000  Uiso   1.00
H871   H     0.02962   0.92409   0.44354   0.00000  Uiso   1.00
C872   C     0.49166   0.91393   0.37649   0.00000  Uiso   1.00
H873   H     0.02071   0.90837   0.35289   0.00000  Uiso   1.00
H874   H     0.48206   0.95256   0.37501   0.00000  Uiso   1.00
H875   H     0.46354   0.89174   0.36253   0.00000  Uiso   1.00
O876   O     0.46976   0.68555   0.43570   0.00000  Uiso   1.00
C877   C     0.47598   0.70679   0.38927   0.00000  Uiso   1.00
H878   H     0.49770   0.68216   0.36851   0.00000  Uiso   1.00
H879   H     0.49392   0.74181   0.39220   0.00000  Uiso   1.00
C880   C     0.43204   0.71289   0.36058   0.00000  Uiso   1.00
H881   H     0.41001   0.68163   0.36745   0.00000  Uiso   1.00
H882   H     0.41532   0.74631   0.37305   0.00000  Uiso   1.00
C883   C     0.43916   0.71617   0.63902   0.00000  Uiso   1.00
H884   H     0.46574   0.74250   0.63104   0.00000  Uiso   1.00
H885   H     0.40804   0.72755   0.62026   0.00000  Uiso   1.00
H886   H     0.44840   0.68018   0.62486   0.00000  Uiso   1.00
O887   O     0.48052   0.81184   0.55927   0.00000  Uiso   1.00
C888   C     0.45851   0.84095   0.59375   0.00000  Uiso   1.00
H889   H     0.48234   0.84827   0.62426   0.00000  Uiso   1.00
H890   H     0.43080   0.82197   0.61168   0.00000  Uiso   1.00
C891   C     0.44402   0.88935   0.57128   0.00000  Uiso   1.00
H892   H     0.42761   0.88346   0.53501   0.00000  Uiso   1.00
H893   H     0.41966   0.90667   0.59565   0.00000  Uiso   1.00
C894   C     0.48298   0.92386   0.56515   0.00000  Uiso   1.00
H895   H     0.49719   0.93423   0.60146   0.00000  Uiso   1.00
H896   H     0.47150   0.95708   0.54621   0.00000  Uiso   1.00
H897   H     0.00916   0.90688   0.54309   0.00000  Uiso   1.00
O898   O     0.02556   0.66280   0.50868   0.00000  Uiso   1.00
C899   C     0.01886   0.65406   0.55900   0.00000  Uiso   1.00
H900   H     0.48405   0.64212   0.56269   0.00000  Uiso   1.00
H901   H     0.02355   0.68652   0.58303   0.00000  Uiso   1.00
C902   C     0.04893   0.61311   0.57671   0.00000  Uiso   1.00
H903   H     0.04165   0.57996   0.55493   0.00000  Uiso   1.00
H904   H     0.08400   0.62316   0.57124   0.00000  Uiso   1.00
C905   C     0.04226   0.60247   0.63089   0.00000  Uiso   1.00
H906   H     0.05165   0.63445   0.65345   0.00000  Uiso   1.00
H907   H     0.06349   0.57174   0.64229   0.00000  Uiso   1.00
H908   H     0.00721   0.59289   0.63758   0.00000  Uiso   1.00
O909   O     0.29998   0.52848   0.56994   0.00000  Uiso   1.00
C910   C     0.29644   0.54738   0.61802   0.00000  Uiso   1.00
H911   H     0.28839   0.51692   0.64263   0.00000  Uiso   1.00
H912   H     0.26932   0.57406   0.62246   0.00000  Uiso   1.00
C913   C     0.34076   0.56911   0.63498   0.00000  Uiso   1.00
H914   H     0.36614   0.54024   0.63653   0.00000  Uiso   1.00
H915   H     0.35196   0.59664   0.60845   0.00000  Uiso   1.00
C916   C     0.33725   0.59263   0.35205   0.00000  Uiso   1.00
H917   H     0.31501   0.62445   0.35007   0.00000  Uiso   1.00
H918   H     0.37048   0.60466   0.36500   0.00000  Uiso   1.00
H919   H     0.32409   0.56656   0.37887   0.00000  Uiso   1.00
O920   O     0.17019   0.97009   0.50458   0.00000  Uiso   1.00
C921   C     0.15893   0.97901   0.55387   0.00000  Uiso   1.00
H922   H     0.14353   0.51535   0.55532   0.00000  Uiso   1.00
H923   H     0.18794   0.98001   0.57988   0.00000  Uiso   1.00
C924   C     0.12503   0.94169   0.57071   0.00000  Uiso   1.00
H925   H     0.09656   0.94069   0.54436   0.00000  Uiso   1.00
H926   H     0.14038   0.90534   0.57174   0.00000  Uiso   1.00
C927   C     0.10823   0.95366   0.62163   0.00000  Uiso   1.00
H928   H     0.13613   0.95448   0.64868   0.00000  Uiso   1.00
H929   H     0.08427   0.92559   0.63287   0.00000  Uiso   1.00
H930   H     0.09133   0.98918   0.62139   0.00000  Uiso   1.00
O931   O     0.20168   0.52836   0.42820   0.00000  Uiso   1.00
C932   C     0.20948   0.54535   0.38019   0.00000  Uiso   1.00
H933   H     0.21803   0.51371   0.35717   0.00000  Uiso   1.00
H934   H     0.23796   0.57086   0.37766   0.00000  Uiso   1.00
C935   C     0.16730   0.56810   0.35870   0.00000  Uiso   1.00
H936   H     0.14155   0.53976   0.35374   0.00000  Uiso   1.00
H937   H     0.15430   0.59565   0.38425   0.00000  Uiso   1.00
C938   C     0.17583   0.59201   0.64282   0.00000  Uiso   1.00
H939   H     0.20052   0.62153   0.64731   0.00000  Uiso   1.00
H940   H     0.14466   0.60770   0.62810   0.00000  Uiso   1.00
H941   H     0.18813   0.56511   0.61617   0.00000  Uiso   1.00
O942   O     0.33027   0.96955   0.49195   0.00000  Uiso   1.00
C943   C     0.33801   0.98002   0.44211   0.00000  Uiso   1.00
H944   H     0.36009   0.51210   0.44118   0.00000  Uiso   1.00
H945   H     0.30731   0.98995   0.42116   0.00000  Uiso   1.00
C946   C     0.36137   0.93780   0.41702   0.00000  Uiso   1.00
H947   H     0.39181   0.92827   0.43823   0.00000  Uiso   1.00
H948   H     0.33926   0.90578   0.41567   0.00000  Uiso   1.00
C949   C     0.37364   0.95043   0.36469   0.00000  Uiso   1.00
H950   H     0.34362   0.96026   0.34303   0.00000  Uiso   1.00
H951   H     0.38899   0.91865   0.34707   0.00000  Uiso   1.00
H952   H     0.39753   0.98093   0.36463   0.00000  Uiso   1.00
O953   O     0.68573   0.79072   0.50000   0.00000  Uiso   1.00
O954   O     0.81427   0.70929   0.50000   0.00000  Uiso   1.00
O955   O     0.81427   0.79072   0.50000   0.00000  Uiso   1.00
O956   O     0.68573   0.70929   0.50000   0.00000  Uiso   1.00
C957   C     0.66489   0.74994   0.49903   0.00000  Uiso   1.00
C958   C     0.83493   0.75007   0.50049   0.00000  Uiso   1.00
O959   O     0.75000   0.79071   0.42946   0.00000  Uiso   1.00
O960   O     0.75000   0.70929   0.57054   0.00000  Uiso   1.00
O961   O     0.75000   0.79071   0.57054   0.00000  Uiso   1.00
O962   O     0.75000   0.70929   0.42946   0.00000  Uiso   1.00
C963   C     0.77462   0.55385   0.53566   0.00000  Uiso   1.00
C964   C     0.71040   0.94657   0.50286   0.00000  Uiso   1.00
C965   C     0.72622   0.55366   0.46346   0.00000  Uiso   1.00
C966   C     0.78994   0.94642   0.49599   0.00000  Uiso   1.00
C967   C     0.75000   0.74994   0.40682   0.00000  Uiso   1.00
C968   C     0.75009   0.75004   0.59318   0.00000  Uiso   1.00
Cu969  Cu    0.75000   0.79822   0.50000   0.00000  Uiso   1.00
Cu970  Cu    0.75000   0.70179   0.50000   0.00000  Uiso   1.00
H971   H     0.79501   0.62580   0.55925   0.00000  Uiso   1.00
H972   H     0.68015   0.87655   0.50259   0.00000  Uiso   1.00
H973   H     0.70560   0.62519   0.44009   0.00000  Uiso   1.00
H974   H     0.81990   0.87646   0.49709   0.00000  Uiso   1.00
N975   N     0.75000   0.62935   0.50000   0.00000  Uiso   1.00
N976   N     0.75000   0.87066   0.50000   0.00000  Uiso   1.00
C977   C     0.75035   0.52762   0.49953   0.00000  Uiso   1.00
C978   C     0.75024   0.97299   0.49946   0.00000  Uiso   1.00
C979   C     0.75007   0.74989   0.35515   0.00000  Uiso   1.00
C980   C     0.75010   0.75002   0.64485   0.00000  Uiso   1.00
C981   C     0.54751   0.79299   0.48654   0.00000  Uiso   1.00
C982   C     0.95002   0.71819   0.46688   0.00000  Uiso   1.00
C983   C     0.95364   0.78295   0.52866   0.00000  Uiso   1.00
C984   C     0.54733   0.70626   0.50257   0.00000  Uiso   1.00
C985   C     0.59351   0.79279   0.48881   0.00000  Uiso   1.00
C986   C     0.90445   0.71627   0.47147   0.00000  Uiso   1.00
C987   C     0.90691   0.78402   0.52754   0.00000  Uiso   1.00
C988   C     0.59334   0.70647   0.50213   0.00000  Uiso   1.00
H989   H     0.61100   0.82662   0.48447   0.00000  Uiso   1.00
H990   H     0.88561   0.68970   0.45061   0.00000  Uiso   1.00
H991   H     0.88841   0.80979   0.54864   0.00000  Uiso   1.00
H992   H     0.61082   0.67273   0.50704   0.00000  Uiso   1.00
C993   C     0.61659   0.74974   0.49667   0.00000  Uiso   1.00
C994   C     0.88289   0.75012   0.49999   0.00000  Uiso   1.00
C995   C     0.52388   0.74977   0.49484   0.00000  Uiso   1.00
C996   C     0.97507   0.75040   0.49667   0.00000  Uiso   1.00
C997   C     0.77499   0.60506   0.53364   0.00000  Uiso   1.00
C998   C     0.71117   0.89567   0.50173   0.00000  Uiso   1.00
C999   C     0.72543   0.60478   0.46591   0.00000  Uiso   1.00
C1000  C     0.78893   0.89560   0.49811   0.00000  Uiso   1.00
O1001  O     0.52615   0.83682   0.48243   0.00000  Uiso   1.00
C1002  C     0.51820   0.84750   0.43267   0.00000  Uiso   1.00
H1003  H     0.99155   0.82363   0.41764   0.00000  Uiso   1.00
H1004  H     0.54867   0.84318   0.41064   0.00000  Uiso   1.00
C1005  C     0.50295   0.89995   0.42913   0.00000  Uiso   1.00
H1006  H     0.97321   0.90509   0.45187   0.00000  Uiso   1.00
H1007  H     0.52962   0.92409   0.44354   0.00000  Uiso   1.00
C1008  C     0.99166   0.91393   0.37649   0.00000  Uiso   1.00
H1009  H     0.52071   0.90837   0.35289   0.00000  Uiso   1.00
H1010  H     0.98206   0.95256   0.37501   0.00000  Uiso   1.00
H1011  H     0.96354   0.89174   0.36253   0.00000  Uiso   1.00
O1012  O     0.96976   0.68555   0.43570   0.00000  Uiso   1.00
C1013  C     0.97598   0.70679   0.38927   0.00000  Uiso   1.00
H1014  H     0.99770   0.68216   0.36851   0.00000  Uiso   1.00
H1015  H     0.99392   0.74181   0.39220   0.00000  Uiso   1.00
C1016  C     0.93204   0.71289   0.36058   0.00000  Uiso   1.00
H1017  H     0.91001   0.68163   0.36745   0.00000  Uiso   1.00
H1018  H     0.91532   0.74631   0.37305   0.00000  Uiso   1.00
C1019  C     0.93916   0.71617   0.63902   0.00000  Uiso   1.00
H1020  H     0.96574   0.74250   0.63104   0.00000  Uiso   1.00
H1021  H     0.90804   0.72755   0.62026   0.00000  Uiso   1.00
H1022  H     0.94840   0.68018   0.62486   0.00000  Uiso   1.00
O1023  O     0.98052   0.81184   0.55927   0.00000  Uiso   1.00
C1024  C     0.95851   0.84095   0.59375   0.00000  Uiso   1.00
H1025  H     0.98234   0.84827   0.62426   0.00000  Uiso   1.00
H1026  H     0.93080   0.82197   0.61168   0.00000  Uiso   1.00
C1027  C     0.94402   0.88935   0.57128   0.00000  Uiso   1.00
H1028  H     0.92761   0.88346   0.53501   0.00000  Uiso   1.00
H1029  H     0.91966   0.90667   0.59565   0.00000  Uiso   1.00
C1030  C     0.98298   0.92386   0.56515   0.00000  Uiso   1.00
H1031  H     0.99719   0.93423   0.60146   0.00000  Uiso   1.00
H1032  H     0.97150   0.95708   0.54621   0.00000  Uiso   1.00
H1033  H     0.50916   0.90688   0.54309   0.00000  Uiso   1.00
O1034  O     0.52556   0.66280   0.50868   0.00000  Uiso   1.00
C1035  C     0.51886   0.65406   0.55900   0.00000  Uiso   1.00
H1036  H     0.98405   0.64212   0.56269   0.00000  Uiso   1.00
H1037  H     0.52355   0.68652   0.58303   0.00000  Uiso   1.00
C1038  C     0.54893   0.61311   0.57671   0.00000  Uiso   1.00
H1039  H     0.54165   0.57996   0.55493   0.00000  Uiso   1.00
H1040  H     0.58400   0.62316   0.57124   0.00000  Uiso   1.00
C1041  C     0.54226   0.60247   0.63089   0.00000  Uiso   1.00
H1042  H     0.55165   0.63445   0.65345   0.00000  Uiso   1.00
H1043  H     0.56349   0.57174   0.64229   0.00000  Uiso   1.00
H1044  H     0.50721   0.59289   0.63758   0.00000  Uiso   1.00
O1045  O     0.79998   0.52848   0.56994   0.00000  Uiso   1.00
C1046  C     0.79644   0.54738   0.61802   0.00000  Uiso   1.00
H1047  H     0.78839   0.51692   0.64263   0.00000  Uiso   1.00
H1048  H     0.76932   0.57406   0.62246   0.00000  Uiso   1.00
C1049  C     0.84076   0.56911   0.63498   0.00000  Uiso   1.00
H1050  H     0.86614   0.54024   0.63653   0.00000  Uiso   1.00
H1051  H     0.85196   0.59664   0.60845   0.00000  Uiso   1.00
C1052  C     0.83725   0.59263   0.35205   0.00000  Uiso   1.00
H1053  H     0.81501   0.62445   0.35007   0.00000  Uiso   1.00
H1054  H     0.87048   0.60466   0.36500   0.00000  Uiso   1.00
H1055  H     0.82409   0.56656   0.37887   0.00000  Uiso   1.00
O1056  O     0.67019   0.97009   0.50458   0.00000  Uiso   1.00
C1057  C     0.65893   0.97901   0.55387   0.00000  Uiso   1.00
H1058  H     0.64353   0.51535   0.55532   0.00000  Uiso   1.00
H1059  H     0.68794   0.98001   0.57988   0.00000  Uiso   1.00
C1060  C     0.62503   0.94169   0.57071   0.00000  Uiso   1.00
H1061  H     0.59656   0.94069   0.54436   0.00000  Uiso   1.00
H1062  H     0.64038   0.90534   0.57174   0.00000  Uiso   1.00
C1063  C     0.60823   0.95366   0.62163   0.00000  Uiso   1.00
H1064  H     0.63613   0.95448   0.64868   0.00000  Uiso   1.00
H1065  H     0.58427   0.92559   0.63287   0.00000  Uiso   1.00
H1066  H     0.59133   0.98918   0.62139   0.00000  Uiso   1.00
O1067  O     0.70168   0.52836   0.42820   0.00000  Uiso   1.00
C1068  C     0.70948   0.54535   0.38019   0.00000  Uiso   1.00
H1069  H     0.71803   0.51371   0.35717   0.00000  Uiso   1.00
H1070  H     0.73796   0.57086   0.37766   0.00000  Uiso   1.00
C1071  C     0.66730   0.56810   0.35870   0.00000  Uiso   1.00
H1072  H     0.64155   0.53976   0.35374   0.00000  Uiso   1.00
H1073  H     0.65430   0.59565   0.38425   0.00000  Uiso   1.00
C1074  C     0.67583   0.59201   0.64282   0.00000  Uiso   1.00
H1075  H     0.70052   0.62153   0.64731   0.00000  Uiso   1.00
H1076  H     0.64466   0.60770   0.62810   0.00000  Uiso   1.00
H1077  H     0.68813   0.56511   0.61617   0.00000  Uiso   1.00
O1078  O     0.83027   0.96955   0.49195   0.00000  Uiso   1.00
C1079  C     0.83801   0.98002   0.44211   0.00000  Uiso   1.00
H1080  H     0.86009   0.51210   0.44118   0.00000  Uiso   1.00
H1081  H     0.80731   0.98995   0.42116   0.00000  Uiso   1.00
C1082  C     0.86137   0.93780   0.41702   0.00000  Uiso   1.00
H1083  H     0.89181   0.92827   0.43823   0.00000  Uiso   1.00
H1084  H     0.83926   0.90578   0.41567   0.00000  Uiso   1.00
C1085  C     0.87364   0.95043   0.36469   0.00000  Uiso   1.00
H1086  H     0.84362   0.96026   0.34303   0.00000  Uiso   1.00
H1087  H     0.88899   0.91865   0.34707   0.00000  Uiso   1.00
H1088  H     0.89753   0.98093   0.36463   0.00000  Uiso   1.00
O1089  O     0.18573   0.29072   0.83334   0.00000  Uiso   1.00
O1090  O     0.31427   0.20929   0.83333   0.00000  Uiso   1.00
O1091  O     0.31427   0.29072   0.83333   0.00000  Uiso   1.00
O1092  O     0.18573   0.20929   0.83334   0.00000  Uiso   1.00
C1093  C     0.16489   0.24994   0.83236   0.00000  Uiso   1.00
C1094  C     0.33493   0.25007   0.83382   0.00000  Uiso   1.00
O1095  O     0.25000   0.29071   0.76280   0.00000  Uiso   1.00
O1096  O     0.25000   0.20929   0.90387   0.00000  Uiso   1.00
O1097  O     0.25000   0.29071   0.90387   0.00000  Uiso   1.00
O1098  O     0.25000   0.20929   0.76280   0.00000  Uiso   1.00
C1099  C     0.27462   0.05385   0.86899   0.00000  Uiso   1.00
C1100  C     0.21040   0.44657   0.83619   0.00000  Uiso   1.00
C1101  C     0.22622   0.05366   0.79679   0.00000  Uiso   1.00
C1102  C     0.28994   0.44642   0.82932   0.00000  Uiso   1.00
C1103  C     0.25000   0.24994   0.74015   0.00000  Uiso   1.00
C1104  C     0.25009   0.25004   0.92651   0.00000  Uiso   1.00
Cu1105 Cu    0.25000   0.29822   0.83333   0.00000  Uiso   1.00
Cu1106 Cu    0.25000   0.20179   0.83333   0.00000  Uiso   1.00
H1107  H     0.29501   0.12580   0.89258   0.00000  Uiso   1.00
H1108  H     0.18015   0.37655   0.83592   0.00000  Uiso   1.00
H1109  H     0.20560   0.12519   0.77342   0.00000  Uiso   1.00
H1110  H     0.31990   0.37646   0.83043   0.00000  Uiso   1.00
N1111  N     0.25000   0.12935   0.83333   0.00000  Uiso   1.00
N1112  N     0.25000   0.37066   0.83333   0.00000  Uiso   1.00
C1113  C     0.25035   0.02762   0.83287   0.00000  Uiso   1.00
C1114  C     0.25024   0.47299   0.83279   0.00000  Uiso   1.00
C1115  C     0.25007   0.24989   0.68849   0.00000  Uiso   1.00
C1116  C     0.25010   0.25002   0.97818   0.00000  Uiso   1.00
C1117  C     0.04751   0.29299   0.81988   0.00000  Uiso   1.00
C1118  C     0.45002   0.21819   0.80021   0.00000  Uiso   1.00
C1119  C     0.45364   0.28295   0.86200   0.00000  Uiso   1.00
C1120  C     0.04733   0.20626   0.83590   0.00000  Uiso   1.00
C1121  C     0.09351   0.29279   0.82214   0.00000  Uiso   1.00
C1122  C     0.40445   0.21627   0.80481   0.00000  Uiso   1.00
C1123  C     0.40691   0.28402   0.86087   0.00000  Uiso   1.00
C1124  C     0.09334   0.20647   0.83546   0.00000  Uiso   1.00
H1125  H     0.11100   0.32662   0.81780   0.00000  Uiso   1.00
H1126  H     0.38561   0.18970   0.78395   0.00000  Uiso   1.00
H1127  H     0.38841   0.30979   0.88198   0.00000  Uiso   1.00
H1128  H     0.11082   0.17273   0.84037   0.00000  Uiso   1.00
C1129  C     0.11659   0.24974   0.83000   0.00000  Uiso   1.00
C1130  C     0.38289   0.25012   0.83333   0.00000  Uiso   1.00
C1131  C     0.02388   0.24977   0.82818   0.00000  Uiso   1.00
C1132  C     0.47507   0.25040   0.83000   0.00000  Uiso   1.00
C1133  C     0.27499   0.10506   0.86698   0.00000  Uiso   1.00
C1134  C     0.21117   0.39567   0.83506   0.00000  Uiso   1.00
C1135  C     0.22543   0.10478   0.79925   0.00000  Uiso   1.00
C1136  C     0.28893   0.39560   0.83144   0.00000  Uiso   1.00
O1137  O     0.02615   0.33682   0.81576   0.00000  Uiso   1.00
C1138  C     0.01820   0.34750   0.76600   0.00000  Uiso   1.00
H1139  H     0.49155   0.32363   0.75097   0.00000  Uiso   1.00
H1140  H     0.04867   0.34318   0.74398   0.00000  Uiso   1.00
C1141  C     0.00295   0.39995   0.76246   0.00000  Uiso   1.00
H1142  H     0.47321   0.40509   0.78520   0.00000  Uiso   1.00
H1143  H     0.02962   0.42409   0.77688   0.00000  Uiso   1.00
C1144  C     0.49166   0.41393   0.70982   0.00000  Uiso   1.00
H1145  H     0.02071   0.40837   0.68623   0.00000  Uiso   1.00
H1146  H     0.48206   0.45256   0.70835   0.00000  Uiso   1.00
H1147  H     0.46354   0.39174   0.69587   0.00000  Uiso   1.00
O1148  O     0.46976   0.18555   0.76904   0.00000  Uiso   1.00
C1149  C     0.47598   0.20679   0.72260   0.00000  Uiso   1.00
H1150  H     0.49770   0.18216   0.70184   0.00000  Uiso   1.00
H1151  H     0.49392   0.24181   0.72553   0.00000  Uiso   1.00
C1152  C     0.43204   0.21289   0.69392   0.00000  Uiso   1.00
H1153  H     0.41001   0.18163   0.70078   0.00000  Uiso   1.00
H1154  H     0.41532   0.24631   0.70639   0.00000  Uiso   1.00
C1155  C     0.43916   0.21617   0.97235   0.00000  Uiso   1.00
H1156  H     0.46574   0.24250   0.96437   0.00000  Uiso   1.00
H1157  H     0.40804   0.22755   0.95359   0.00000  Uiso   1.00
H1158  H     0.44840   0.18018   0.95819   0.00000  Uiso   1.00
O1159  O     0.48052   0.31184   0.89261   0.00000  Uiso   1.00
C1160  C     0.45851   0.34095   0.92709   0.00000  Uiso   1.00
H1161  H     0.48234   0.34827   0.95759   0.00000  Uiso   1.00
H1162  H     0.43080   0.32197   0.94501   0.00000  Uiso   1.00
C1163  C     0.44402   0.38935   0.90462   0.00000  Uiso   1.00
H1164  H     0.42761   0.38346   0.86835   0.00000  Uiso   1.00
H1165  H     0.41966   0.40667   0.92898   0.00000  Uiso   1.00
C1166  C     0.48298   0.42386   0.89849   0.00000  Uiso   1.00
H1167  H     0.49719   0.43423   0.93480   0.00000  Uiso   1.00
H1168  H     0.47150   0.45708   0.87955   0.00000  Uiso   1.00
H1169  H     0.00916   0.40688   0.87643   0.00000  Uiso   1.00
O1170  O     0.02556   0.16280   0.84201   0.00000  Uiso   1.00
C1171  C     0.01886   0.15406   0.89233   0.00000  Uiso   1.00
H1172  H     0.48405   0.14212   0.89602   0.00000  Uiso   1.00
H1173  H     0.02355   0.18652   0.91637   0.00000  Uiso   1.00
C1174  C     0.04893   0.11311   0.91005   0.00000  Uiso   1.00
H1175  H     0.04165   0.07996   0.88827   0.00000  Uiso   1.00
H1176  H     0.08400   0.12316   0.90458   0.00000  Uiso   1.00
C1177  C     0.04226   0.10247   0.96423   0.00000  Uiso   1.00
H1178  H     0.05165   0.13445   0.98678   0.00000  Uiso   1.00
H1179  H     0.06349   0.07174   0.97562   0.00000  Uiso   1.00
H1180  H     0.00721   0.09289   0.97091   0.00000  Uiso   1.00
O1181  O     0.29998   0.02848   0.90328   0.00000  Uiso   1.00
C1182  C     0.29644   0.04738   0.95135   0.00000  Uiso   1.00
H1183  H     0.28839   0.01692   0.97596   0.00000  Uiso   1.00
H1184  H     0.26932   0.07406   0.95579   0.00000  Uiso   1.00
C1185  C     0.34076   0.06911   0.96831   0.00000  Uiso   1.00
H1186  H     0.36614   0.04024   0.96986   0.00000  Uiso   1.00
H1187  H     0.35196   0.09664   0.94179   0.00000  Uiso   1.00
C1188  C     0.33725   0.09263   0.68538   0.00000  Uiso   1.00
H1189  H     0.31501   0.12445   0.68341   0.00000  Uiso   1.00
H1190  H     0.37048   0.10466   0.69834   0.00000  Uiso   1.00
H1191  H     0.32409   0.06656   0.71221   0.00000  Uiso   1.00
O1192  O     0.17019   0.47009   0.83791   0.00000  Uiso   1.00
C1193  C     0.15893   0.47901   0.88721   0.00000  Uiso   1.00
H1194  H     0.14353   0.01535   0.88865   0.00000  Uiso   1.00
H1195  H     0.18794   0.48001   0.91321   0.00000  Uiso   1.00
C1196  C     0.12503   0.44169   0.90404   0.00000  Uiso   1.00
H1197  H     0.09656   0.44069   0.87769   0.00000  Uiso   1.00
H1198  H     0.14038   0.40534   0.90508   0.00000  Uiso   1.00
C1199  C     0.10823   0.45366   0.95497   0.00000  Uiso   1.00
H1200  H     0.13613   0.45448   0.98202   0.00000  Uiso   1.00
H1201  H     0.08427   0.42559   0.96620   0.00000  Uiso   1.00
H1202  H     0.09133   0.48918   0.95472   0.00000  Uiso   1.00
O1203  O     0.20168   0.02836   0.76154   0.00000  Uiso   1.00
C1204  C     0.20948   0.04535   0.71352   0.00000  Uiso   1.00
H1205  H     0.21803   0.01371   0.69050   0.00000  Uiso   1.00
H1206  H     0.23796   0.07086   0.71099   0.00000  Uiso   1.00
C1207  C     0.16730   0.06810   0.69203   0.00000  Uiso   1.00
H1208  H     0.14155   0.03976   0.68707   0.00000  Uiso   1.00
H1209  H     0.15430   0.09565   0.71758   0.00000  Uiso   1.00
C1210  C     0.17583   0.09201   0.97615   0.00000  Uiso   1.00
H1211  H     0.20052   0.12153   0.98065   0.00000  Uiso   1.00
H1212  H     0.14466   0.10770   0.96143   0.00000  Uiso   1.00
H1213  H     0.18813   0.06511   0.94950   0.00000  Uiso   1.00
O1214  O     0.33027   0.46955   0.82529   0.00000  Uiso   1.00
C1215  C     0.33801   0.48002   0.77544   0.00000  Uiso   1.00
H1216  H     0.36009   0.01210   0.77451   0.00000  Uiso   1.00
H1217  H     0.30731   0.48995   0.75449   0.00000  Uiso   1.00
C1218  C     0.36137   0.43780   0.75035   0.00000  Uiso   1.00
H1219  H     0.39181   0.42827   0.77157   0.00000  Uiso   1.00
H1220  H     0.33926   0.40578   0.74900   0.00000  Uiso   1.00
C1221  C     0.37364   0.45043   0.69803   0.00000  Uiso   1.00
H1222  H     0.34362   0.46026   0.67636   0.00000  Uiso   1.00
H1223  H     0.38899   0.41865   0.68040   0.00000  Uiso   1.00
H1224  H     0.39753   0.48093   0.69797   0.00000  Uiso   1.00
O1225  O     0.68573   0.29072   0.83334   0.00000  Uiso   1.00
O1226  O     0.81427   0.20929   0.83333   0.00000  Uiso   1.00
O1227  O     0.81427   0.29072   0.83333   0.00000  Uiso   1.00
O1228  O     0.68573   0.20929   0.83334   0.00000  Uiso   1.00
C1229  C     0.66489   0.24994   0.83236   0.00000  Uiso   1.00
C1230  C     0.83493   0.25007   0.83382   0.00000  Uiso   1.00
O1231  O     0.75000   0.29071   0.76280   0.00000  Uiso   1.00
O1232  O     0.75000   0.20929   0.90387   0.00000  Uiso   1.00
O1233  O     0.75000   0.29071   0.90387   0.00000  Uiso   1.00
O1234  O     0.75000   0.20929   0.76280   0.00000  Uiso   1.00
C1235  C     0.77462   0.05385   0.86899   0.00000  Uiso   1.00
C1236  C     0.71040   0.44657   0.83619   0.00000  Uiso   1.00
C1237  C     0.72622   0.05366   0.79679   0.00000  Uiso   1.00
C1238  C     0.78994   0.44642   0.82932   0.00000  Uiso   1.00
C1239  C     0.75000   0.24994   0.74015   0.00000  Uiso   1.00
C1240  C     0.75009   0.25004   0.92651   0.00000  Uiso   1.00
Cu1241 Cu    0.75000   0.29822   0.83333   0.00000  Uiso   1.00
Cu1242 Cu    0.75000   0.20179   0.83333   0.00000  Uiso   1.00
H1243  H     0.79501   0.12580   0.89258   0.00000  Uiso   1.00
H1244  H     0.68015   0.37655   0.83592   0.00000  Uiso   1.00
H1245  H     0.70560   0.12519   0.77342   0.00000  Uiso   1.00
H1246  H     0.81990   0.37646   0.83043   0.00000  Uiso   1.00
N1247  N     0.75000   0.12935   0.83333   0.00000  Uiso   1.00
N1248  N     0.75000   0.37066   0.83333   0.00000  Uiso   1.00
C1249  C     0.75035   0.02762   0.83287   0.00000  Uiso   1.00
C1250  C     0.75024   0.47299   0.83279   0.00000  Uiso   1.00
C1251  C     0.75007   0.24989   0.68849   0.00000  Uiso   1.00
C1252  C     0.75010   0.25002   0.97818   0.00000  Uiso   1.00
C1253  C     0.54751   0.29299   0.81988   0.00000  Uiso   1.00
C1254  C     0.95002   0.21819   0.80021   0.00000  Uiso   1.00
C1255  C     0.95364   0.28295   0.86200   0.00000  Uiso   1.00
C1256  C     0.54733   0.20626   0.83590   0.00000  Uiso   1.00
C1257  C     0.59351   0.29279   0.82214   0.00000  Uiso   1.00
C1258  C     0.90445   0.21627   0.80481   0.00000  Uiso   1.00
C1259  C     0.90691   0.28402   0.86087   0.00000  Uiso   1.00
C1260  C     0.59334   0.20647   0.83546   0.00000  Uiso   1.00
H1261  H     0.61100   0.32662   0.81780   0.00000  Uiso   1.00
H1262  H     0.88561   0.18970   0.78395   0.00000  Uiso   1.00
H1263  H     0.88841   0.30979   0.88198   0.00000  Uiso   1.00
H1264  H     0.61082   0.17273   0.84037   0.00000  Uiso   1.00
C1265  C     0.61659   0.24974   0.83000   0.00000  Uiso   1.00
C1266  C     0.88289   0.25012   0.83333   0.00000  Uiso   1.00
C1267  C     0.52388   0.24977   0.82818   0.00000  Uiso   1.00
C1268  C     0.97507   0.25040   0.83000   0.00000  Uiso   1.00
C1269  C     0.77499   0.10506   0.86698   0.00000  Uiso   1.00
C1270  C     0.71117   0.39567   0.83506   0.00000  Uiso   1.00
C1271  C     0.72543   0.10478   0.79925   0.00000  Uiso   1.00
C1272  C     0.78893   0.39560   0.83144   0.00000  Uiso   1.00
O1273  O     0.52615   0.33682   0.81576   0.00000  Uiso   1.00
C1274  C     0.51820   0.34750   0.76600   0.00000  Uiso   1.00
H1275  H     0.99155   0.32363   0.75097   0.00000  Uiso   1.00
H1276  H     0.54867   0.34318   0.74398   0.00000  Uiso   1.00
C1277  C     0.50295   0.39995   0.76246   0.00000  Uiso   1.00
H1278  H     0.97321   0.40509   0.78520   0.00000  Uiso   1.00
H1279  H     0.52962   0.42409   0.77688   0.00000  Uiso   1.00
C1280  C     0.99166   0.41393   0.70982   0.00000  Uiso   1.00
H1281  H     0.52071   0.40837   0.68623   0.00000  Uiso   1.00
H1282  H     0.98206   0.45256   0.70835   0.00000  Uiso   1.00
H1283  H     0.96354   0.39174   0.69587   0.00000  Uiso   1.00
O1284  O     0.96976   0.18555   0.76904   0.00000  Uiso   1.00
C1285  C     0.97598   0.20679   0.72260   0.00000  Uiso   1.00
H1286  H     0.99770   0.18216   0.70184   0.00000  Uiso   1.00
H1287  H     0.99392   0.24181   0.72553   0.00000  Uiso   1.00
C1288  C     0.93204   0.21289   0.69392   0.00000  Uiso   1.00
H1289  H     0.91001   0.18163   0.70078   0.00000  Uiso   1.00
H1290  H     0.91532   0.24631   0.70639   0.00000  Uiso   1.00
C1291  C     0.93916   0.21617   0.97235   0.00000  Uiso   1.00
H1292  H     0.96574   0.24250   0.96437   0.00000  Uiso   1.00
H1293  H     0.90804   0.22755   0.95359   0.00000  Uiso   1.00
H1294  H     0.94840   0.18018   0.95819   0.00000  Uiso   1.00
O1295  O     0.98052   0.31184   0.89261   0.00000  Uiso   1.00
C1296  C     0.95851   0.34095   0.92709   0.00000  Uiso   1.00
H1297  H     0.98234   0.34827   0.95759   0.00000  Uiso   1.00
H1298  H     0.93080   0.32197   0.94501   0.00000  Uiso   1.00
C1299  C     0.94402   0.38935   0.90462   0.00000  Uiso   1.00
H1300  H     0.92761   0.38346   0.86835   0.00000  Uiso   1.00
H1301  H     0.91966   0.40667   0.92898   0.00000  Uiso   1.00
C1302  C     0.98298   0.42386   0.89849   0.00000  Uiso   1.00
H1303  H     0.99719   0.43423   0.93480   0.00000  Uiso   1.00
H1304  H     0.97150   0.45708   0.87955   0.00000  Uiso   1.00
H1305  H     0.50916   0.40688   0.87643   0.00000  Uiso   1.00
O1306  O     0.52556   0.16280   0.84201   0.00000  Uiso   1.00
C1307  C     0.51886   0.15406   0.89233   0.00000  Uiso   1.00
H1308  H     0.98405   0.14212   0.89602   0.00000  Uiso   1.00
H1309  H     0.52355   0.18652   0.91637   0.00000  Uiso   1.00
C1310  C     0.54893   0.11311   0.91005   0.00000  Uiso   1.00
H1311  H     0.54165   0.07996   0.88827   0.00000  Uiso   1.00
H1312  H     0.58400   0.12316   0.90458   0.00000  Uiso   1.00
C1313  C     0.54226   0.10247   0.96423   0.00000  Uiso   1.00
H1314  H     0.55165   0.13445   0.98678   0.00000  Uiso   1.00
H1315  H     0.56349   0.07174   0.97562   0.00000  Uiso   1.00
H1316  H     0.50721   0.09289   0.97091   0.00000  Uiso   1.00
O1317  O     0.79998   0.02848   0.90328   0.00000  Uiso   1.00
C1318  C     0.79644   0.04738   0.95135   0.00000  Uiso   1.00
H1319  H     0.78839   0.01692   0.97596   0.00000  Uiso   1.00
H1320  H     0.76932   0.07406   0.95579   0.00000  Uiso   1.00
C1321  C     0.84076   0.06911   0.96831   0.00000  Uiso   1.00
H1322  H     0.86614   0.04024   0.96986   0.00000  Uiso   1.00
H1323  H     0.85196   0.09664   0.94179   0.00000  Uiso   1.00
C1324  C     0.83725   0.09263   0.68538   0.00000  Uiso   1.00
H1325  H     0.81501   0.12445   0.68341   0.00000  Uiso   1.00
H1326  H     0.87048   0.10466   0.69834   0.00000  Uiso   1.00
H1327  H     0.82409   0.06656   0.71221   0.00000  Uiso   1.00
O1328  O     0.67019   0.47009   0.83791   0.00000  Uiso   1.00
C1329  C     0.65893   0.47901   0.88721   0.00000  Uiso   1.00
H1330  H     0.64353   0.01535   0.88865   0.00000  Uiso   1.00
H1331  H     0.68794   0.48001   0.91321   0.00000  Uiso   1.00
C1332  C     0.62503   0.44169   0.90404   0.00000  Uiso   1.00
H1333  H     0.59656   0.44069   0.87769   0.00000  Uiso   1.00
H1334  H     0.64038   0.40534   0.90508   0.00000  Uiso   1.00
C1335  C     0.60823   0.45366   0.95497   0.00000  Uiso   1.00
H1336  H     0.63613   0.45448   0.98202   0.00000  Uiso   1.00
H1337  H     0.58427   0.42559   0.96620   0.00000  Uiso   1.00
H1338  H     0.59133   0.48918   0.95472   0.00000  Uiso   1.00
O1339  O     0.70168   0.02836   0.76154   0.00000  Uiso   1.00
C1340  C     0.70948   0.04535   0.71352   0.00000  Uiso   1.00
H1341  H     0.71803   0.01371   0.69050   0.00000  Uiso   1.00
H1342  H     0.73796   0.07086   0.71099   0.00000  Uiso   1.00
C1343  C     0.66730   0.06810   0.69203   0.00000  Uiso   1.00
H1344  H     0.64155   0.03976   0.68707   0.00000  Uiso   1.00
H1345  H     0.65430   0.09565   0.71758   0.00000  Uiso   1.00
C1346  C     0.67583   0.09201   0.97615   0.00000  Uiso   1.00
H1347  H     0.70052   0.12153   0.98065   0.00000  Uiso   1.00
H1348  H     0.64466   0.10770   0.96143   0.00000  Uiso   1.00
H1349  H     0.68813   0.06511   0.94950   0.00000  Uiso   1.00
O1350  O     0.83027   0.46955   0.82529   0.00000  Uiso   1.00
C1351  C     0.83801   0.48002   0.77544   0.00000  Uiso   1.00
H1352  H     0.86009   0.01210   0.77451   0.00000  Uiso   1.00
H1353  H     0.80731   0.48995   0.75449   0.00000  Uiso   1.00
C1354  C     0.86137   0.43780   0.75035   0.00000  Uiso   1.00
H1355  H     0.89181   0.42827   0.77157   0.00000  Uiso   1.00
H1356  H     0.83926   0.40578   0.74900   0.00000  Uiso   1.00
C1357  C     0.87364   0.45043   0.69803   0.00000  Uiso   1.00
H1358  H     0.84362   0.46026   0.67636   0.00000  Uiso   1.00
H1359  H     0.88899   0.41865   0.68040   0.00000  Uiso   1.00
H1360  H     0.89753   0.48093   0.69797   0.00000  Uiso   1.00
O1361  O     0.18573   0.79072   0.83334   0.00000  Uiso   1.00
O1362  O     0.31427   0.70929   0.83333   0.00000  Uiso   1.00
O1363  O     0.31427   0.79072   0.83333   0.00000  Uiso   1.00
O1364  O     0.18573   0.70929   0.83334   0.00000  Uiso   1.00
C1365  C     0.16489   0.74994   0.83236   0.00000  Uiso   1.00
C1366  C     0.33493   0.75007   0.83382   0.00000  Uiso   1.00
O1367  O     0.25000   0.79071   0.76280   0.00000  Uiso   1.00
O1368  O     0.25000   0.70929   0.90387   0.00000  Uiso   1.00
O1369  O     0.25000   0.79071   0.90387   0.00000  Uiso   1.00
O1370  O     0.25000   0.70929   0.76280   0.00000  Uiso   1.00
C1371  C     0.27462   0.55385   0.86899   0.00000  Uiso   1.00
C1372  C     0.21040   0.94657   0.83619   0.00000  Uiso   1.00
C1373  C     0.22622   0.55366   0.79679   0.00000  Uiso   1.00
C1374  C     0.28994   0.94642   0.82932   0.00000  Uiso   1.00
C1375  C     0.25000   0.74994   0.74015   0.00000  Uiso   1.00
C1376  C     0.25009   0.75004   0.92651   0.00000  Uiso   1.00
Cu1377 Cu    0.25000   0.79822   0.83333   0.00000  Uiso   1.00
Cu1378 Cu    0.25000   0.70179   0.83333   0.00000  Uiso   1.00
H1379  H     0.29501   0.62580   0.89258   0.00000  Uiso   1.00
H1380  H     0.18015   0.87655   0.83592   0.00000  Uiso   1.00
H1381  H     0.20560   0.62519   0.77342   0.00000  Uiso   1.00
H1382  H     0.31990   0.87646   0.83043   0.00000  Uiso   1.00
N1383  N     0.25000   0.62935   0.83333   0.00000  Uiso   1.00
N1384  N     0.25000   0.87066   0.83333   0.00000  Uiso   1.00
C1385  C     0.25035   0.52762   0.83287   0.00000  Uiso   1.00
C1386  C     0.25024   0.97299   0.83279   0.00000  Uiso   1.00
C1387  C     0.25007   0.74989   0.68849   0.00000  Uiso   1.00
C1388  C     0.25010   0.75002   0.97818   0.00000  Uiso   1.00
C1389  C     0.04751   0.79299   0.81988   0.00000  Uiso   1.00
C1390  C     0.45002   0.71819   0.80021   0.00000  Uiso   1.00
C1391  C     0.45364   0.78295   0.86200   0.00000  Uiso   1.00
C1392  C     0.04733   0.70626   0.83590   0.00000  Uiso   1.00
C1393  C     0.09351   0.79279   0.82214   0.00000  Uiso   1.00
C1394  C     0.40445   0.71627   0.80481   0.00000  Uiso   1.00
C1395  C     0.40691   0.78402   0.86087   0.00000  Uiso   1.00
C1396  C     0.09334   0.70647   0.83546   0.00000  Uiso   1.00
H1397  H     0.11100   0.82662   0.81780   0.00000  Uiso   1.00
H1398  H     0.38561   0.68970   0.78395   0.00000  Uiso   1.00
H1399  H     0.38841   0.80979   0.88198   0.00000  Uiso   1.00
H1400  H     0.11082   0.67273   0.84037   0.00000  Uiso   1.00
C1401  C     0.11659   0.74974   0.83000   0.00000  Uiso   1.00
C1402  C     0.38289   0.75012   0.83333   0.00000  Uiso   1.00
C1403  C     0.02388   0.74977   0.82818   0.00000  Uiso   1.00
C1404  C     0.47507   0.75040   0.83000   0.00000  Uiso   1.00
C1405  C     0.27499   0.60506   0.86698   0.00000  Uiso   1.00
C1406  C     0.21117   0.89567   0.83506   0.00000  Uiso   1.00
C1407  C     0.22543   0.60478   0.79925   0.00000  Uiso   1.00
C1408  C     0.28893   0.89560   0.83144   0.00000  Uiso   1.00
O1409  O     0.02615   0.83682   0.81576   0.00000  Uiso   1.00
C1410  C     0.01820   0.84750   0.76600   0.00000  Uiso   1.00
H1411  H     0.49155   0.82363   0.75097   0.00000  Uiso   1.00
H1412  H     0.04867   0.84318   0.74398   0.00000  Uiso   1.00
C1413  C     0.00295   0.89995   0.76246   0.00000  Uiso   1.00
H1414  H     0.47321   0.90509   0.78520   0.00000  Uiso   1.00
H1415  H     0.02962   0.92409   0.77688   0.00000  Uiso   1.00
C1416  C     0.49166   0.91393   0.70982   0.00000  Uiso   1.00
H1417  H     0.02071   0.90837   0.68623   0.00000  Uiso   1.00
H1418  H     0.48206   0.95256   0.70835   0.00000  Uiso   1.00
H1419  H     0.46354   0.89174   0.69587   0.00000  Uiso   1.00
O1420  O     0.46976   0.68555   0.76904   0.00000  Uiso   1.00
C1421  C     0.47598   0.70679   0.72260   0.00000  Uiso   1.00
H1422  H     0.49770   0.68216   0.70184   0.00000  Uiso   1.00
H1423  H     0.49392   0.74181   0.72553   0.00000  Uiso   1.00
C1424  C     0.43204   0.71289   0.69392   0.00000  Uiso   1.00
H1425  H     0.41001   0.68163   0.70078   0.00000  Uiso   1.00
H1426  H     0.41532   0.74631   0.70639   0.00000  Uiso   1.00
C1427  C     0.43916   0.71617   0.97235   0.00000  Uiso   1.00
H1428  H     0.46574   0.74250   0.96437   0.00000  Uiso   1.00
H1429  H     0.40804   0.72755   0.95359   0.00000  Uiso   1.00
H1430  H     0.44840   0.68018   0.95819   0.00000  Uiso   1.00
O1431  O     0.48052   0.81184   0.89261   0.00000  Uiso   1.00
C1432  C     0.45851   0.84095   0.92709   0.00000  Uiso   1.00
H1433  H     0.48234   0.84827   0.95759   0.00000  Uiso   1.00
H1434  H     0.43080   0.82197   0.94501   0.00000  Uiso   1.00
C1435  C     0.44402   0.88935   0.90462   0.00000  Uiso   1.00
H1436  H     0.42761   0.88346   0.86835   0.00000  Uiso   1.00
H1437  H     0.41966   0.90667   0.92898   0.00000  Uiso   1.00
C1438  C     0.48298   0.92386   0.89849   0.00000  Uiso   1.00
H1439  H     0.49719   0.93423   0.93480   0.00000  Uiso   1.00
H1440  H     0.47150   0.95708   0.87955   0.00000  Uiso   1.00
H1441  H     0.00916   0.90688   0.87643   0.00000  Uiso   1.00
O1442  O     0.02556   0.66280   0.84201   0.00000  Uiso   1.00
C1443  C     0.01886   0.65406   0.89233   0.00000  Uiso   1.00
H1444  H     0.48405   0.64212   0.89602   0.00000  Uiso   1.00
H1445  H     0.02355   0.68652   0.91637   0.00000  Uiso   1.00
C1446  C     0.04893   0.61311   0.91005   0.00000  Uiso   1.00
H1447  H     0.04165   0.57996   0.88827   0.00000  Uiso   1.00
H1448  H     0.08400   0.62316   0.90458   0.00000  Uiso   1.00
C1449  C     0.04226   0.60247   0.96423   0.00000  Uiso   1.00
H1450  H     0.05165   0.63445   0.98678   0.00000  Uiso   1.00
H1451  H     0.06349   0.57174   0.97562   0.00000  Uiso   1.00
H1452  H     0.00721   0.59289   0.97091   0.00000  Uiso   1.00
O1453  O     0.29998   0.52848   0.90328   0.00000  Uiso   1.00
C1454  C     0.29644   0.54738   0.95135   0.00000  Uiso   1.00
H1455  H     0.28839   0.51692   0.97596   0.00000  Uiso   1.00
H1456  H     0.26932   0.57406   0.95579   0.00000  Uiso   1.00
C1457  C     0.34076   0.56911   0.96831   0.00000  Uiso   1.00
H1458  H     0.36614   0.54024   0.96986   0.00000  Uiso   1.00
H1459  H     0.35196   0.59664   0.94179   0.00000  Uiso   1.00
C1460  C     0.33725   0.59263   0.68538   0.00000  Uiso   1.00
H1461  H     0.31501   0.62445   0.68341   0.00000  Uiso   1.00
H1462  H     0.37048   0.60466   0.69834   0.00000  Uiso   1.00
H1463  H     0.32409   0.56656   0.71221   0.00000  Uiso   1.00
O1464  O     0.17019   0.97009   0.83791   0.00000  Uiso   1.00
C1465  C     0.15893   0.97901   0.88721   0.00000  Uiso   1.00
H1466  H     0.14353   0.51535   0.88865   0.00000  Uiso   1.00
H1467  H     0.18794   0.98001   0.91321   0.00000  Uiso   1.00
C1468  C     0.12503   0.94169   0.90404   0.00000  Uiso   1.00
H1469  H     0.09656   0.94069   0.87769   0.00000  Uiso   1.00
H1470  H     0.14038   0.90534   0.90508   0.00000  Uiso   1.00
C1471  C     0.10823   0.95366   0.95497   0.00000  Uiso   1.00
H1472  H     0.13613   0.95448   0.98202   0.00000  Uiso   1.00
H1473  H     0.08427   0.92559   0.96620   0.00000  Uiso   1.00
H1474  H     0.09133   0.98918   0.95472   0.00000  Uiso   1.00
O1475  O     0.20168   0.52836   0.76154   0.00000  Uiso   1.00
C1476  C     0.20948   0.54535   0.71352   0.00000  Uiso   1.00
H1477  H     0.21803   0.51371   0.69050   0.00000  Uiso   1.00
H1478  H     0.23796   0.57086   0.71099   0.00000  Uiso   1.00
C1479  C     0.16730   0.56810   0.69203   0.00000  Uiso   1.00
H1480  H     0.14155   0.53976   0.68707   0.00000  Uiso   1.00
H1481  H     0.15430   0.59565   0.71758   0.00000  Uiso   1.00
C1482  C     0.17583   0.59201   0.97615   0.00000  Uiso   1.00
H1483  H     0.20052   0.62153   0.98065   0.00000  Uiso   1.00
H1484  H     0.14466   0.60770   0.96143   0.00000  Uiso   1.00
H1485  H     0.18813   0.56511   0.94950   0.00000  Uiso   1.00
O1486  O     0.33027   0.96955   0.82529   0.00000  Uiso   1.00
C1487  C     0.33801   0.98002   0.77544   0.00000  Uiso   1.00
H1488  H     0.36009   0.51210   0.77451   0.00000  Uiso   1.00
H1489  H     0.30731   0.98995   0.75449   0.00000  Uiso   1.00
C1490  C     0.36137   0.93780   0.75035   0.00000  Uiso   1.00
H1491  H     0.39181   0.92827   0.77157   0.00000  Uiso   1.00
H1492  H     0.33926   0.90578   0.74900   0.00000  Uiso   1.00
C1493  C     0.37364   0.95043   0.69803   0.00000  Uiso   1.00
H1494  H     0.34362   0.96026   0.67636   0.00000  Uiso   1.00
H1495  H     0.38899   0.91865   0.68040   0.00000  Uiso   1.00
H1496  H     0.39753   0.98093   0.69797   0.00000  Uiso   1.00
O1497  O     0.68573   0.79072   0.83334   0.00000  Uiso   1.00
O1498  O     0.81427   0.70929   0.83333   0.00000  Uiso   1.00
O1499  O     0.81427   0.79072   0.83333   0.00000  Uiso   1.00
O1500  O     0.68573   0.70929   0.83334   0.00000  Uiso   1.00
C1501  C     0.66489   0.74994   0.83236   0.00000  Uiso   1.00
C1502  C     0.83493   0.75007   0.83382   0.00000  Uiso   1.00
O1503  O     0.75000   0.79071   0.76280   0.00000  Uiso   1.00
O1504  O     0.75000   0.70929   0.90387   0.00000  Uiso   1.00
O1505  O     0.75000   0.79071   0.90387   0.00000  Uiso   1.00
O1506  O     0.75000   0.70929   0.76280   0.00000  Uiso   1.00
C1507  C     0.77462   0.55385   0.86899   0.00000  Uiso   1.00
C1508  C     0.71040   0.94657   0.83619   0.00000  Uiso   1.00
C1509  C     0.72622   0.55366   0.79679   0.00000  Uiso   1.00
C1510  C     0.78994   0.94642   0.82932   0.00000  Uiso   1.00
C1511  C     0.75000   0.74994   0.74015   0.00000  Uiso   1.00
C1512  C     0.75009   0.75004   0.92651   0.00000  Uiso   1.00
Cu1513 Cu    0.75000   0.79822   0.83333   0.00000  Uiso   1.00
Cu1514 Cu    0.75000   0.70179   0.83333   0.00000  Uiso   1.00
H1515  H     0.79501   0.62580   0.89258   0.00000  Uiso   1.00
H1516  H     0.68015   0.87655   0.83592   0.00000  Uiso   1.00
H1517  H     0.70560   0.62519   0.77342   0.00000  Uiso   1.00
H1518  H     0.81990   0.87646   0.83043   0.00000  Uiso   1.00
N1519  N     0.75000   0.62935   0.83333   0.00000  Uiso   1.00
N1520  N     0.75000   0.87066   0.83333   0.00000  Uiso   1.00
C1521  C     0.75035   0.52762   0.83287   0.00000  Uiso   1.00
C1522  C     0.75024   0.97299   0.83279   0.00000  Uiso   1.00
C1523  C     0.75007   0.74989   0.68849   0.00000  Uiso   1.00
C1524  C     0.75010   0.75002   0.97818   0.00000  Uiso   1.00
C1525  C     0.54751   0.79299   0.81988   0.00000  Uiso   1.00
C1526  C     0.95002   0.71819   0.80021   0.00000  Uiso   1.00
C1527  C     0.95364   0.78295   0.86200   0.00000  Uiso   1.00
C1528  C     0.54733   0.70626   0.83590   0.00000  Uiso   1.00
C1529  C     0.59351   0.79279   0.82214   0.00000  Uiso   1.00
C1530  C     0.90445   0.71627   0.80481   0.00000  Uiso   1.00
C1531  C     0.90691   0.78402   0.86087   0.00000  Uiso   1.00
C1532  C     0.59334   0.70647   0.83546   0.00000  Uiso   1.00
H1533  H     0.61100   0.82662   0.81780   0.00000  Uiso   1.00
H1534  H     0.88561   0.68970   0.78395   0.00000  Uiso   1.00
H1535  H     0.88841   0.80979   0.88198   0.00000  Uiso   1.00
H1536  H     0.61082   0.67273   0.84037   0.00000  Uiso   1.00
C1537  C     0.61659   0.74974   0.83000   0.00000  Uiso   1.00
C1538  C     0.88289   0.75012   0.83333   0.00000  Uiso   1.00
C1539  C     0.52388   0.74977   0.82818   0.00000  Uiso   1.00
C1540  C     0.97507   0.75040   0.83000   0.00000  Uiso   1.00
C1541  C     0.77499   0.60506   0.86698   0.00000  Uiso   1.00
C1542  C     0.71117   0.89567   0.83506   0.00000  Uiso   1.00
C1543  C     0.72543   0.60478   0.79925   0.00000  Uiso   1.00
C1544  C     0.78893   0.89560   0.83144   0.00000  Uiso   1.00
O1545  O     0.52615   0.83682   0.81576   0.00000  Uiso   1.00
C1546  C     0.51820   0.84750   0.76600   0.00000  Uiso   1.00
H1547  H     0.99155   0.82363   0.75097   0.00000  Uiso   1.00
H1548  H     0.54867   0.84318   0.74398   0.00000  Uiso   1.00
C1549  C     0.50295   0.89995   0.76246   0.00000  Uiso   1.00
H1550  H     0.97321   0.90509   0.78520   0.00000  Uiso   1.00
H1551  H     0.52962   0.92409   0.77688   0.00000  Uiso   1.00
C1552  C     0.99166   0.91393   0.70982   0.00000  Uiso   1.00
H1553  H     0.52071   0.90837   0.68623   0.00000  Uiso   1.00
H1554  H     0.98206   0.95256   0.70835   0.00000  Uiso   1.00
H1555  H     0.96354   0.89174   0.69587   0.00000  Uiso   1.00
O1556  O     0.96976   0.68555   0.76904   0.00000  Uiso   1.00
C1557  C     0.97598   0.70679   0.72260   0.00000  Uiso   1.00
H1558  H     0.99770   0.68216   0.70184   0.00000  Uiso   1.00
H1559  H     0.99392   0.74181   0.72553   0.00000  Uiso   1.00
C1560  C     0.93204   0.71289   0.69392   0.00000  Uiso   1.00
H1561  H     0.91001   0.68163   0.70078   0.00000  Uiso   1.00
H1562  H     0.91532   0.74631   0.70639   0.00000  Uiso   1.00
C1563  C     0.93916   0.71617   0.97235   0.00000  Uiso   1.00
H1564  H     0.96574   0.74250   0.96437   0.00000  Uiso   1.00
H1565  H     0.90804   0.72755   0.95359   0.00000  Uiso   1.00
H1566  H     0.94840   0.68018   0.95819   0.00000  Uiso   1.00
O1567  O     0.98052   0.81184   0.89261   0.00000  Uiso   1.00
C1568  C     0.95851   0.84095   0.92709   0.00000  Uiso   1.00
H1569  H     0.98234   0.84827   0.95759   0.00000  Uiso   1.00
H1570  H     0.93080   0.82197   0.94501   0.00000  Uiso   1.00
C1571  C     0.94402   0.88935   0.90462   0.00000  Uiso   1.00
H1572  H     0.92761   0.88346   0.86835   0.00000  Uiso   1.00
H1573  H     0.91966   0.90667   0.92898   0.00000  Uiso   1.00
C1574  C     0.98298   0.92386   0.89849   0.00000  Uiso   1.00
H1575  H     0.99719   0.93423   0.93480   0.00000  Uiso   1.00
H1576  H     0.97150   0.95708   0.87955   0.00000  Uiso   1.00
H1577  H     0.50916   0.90688   0.87643   0.00000  Uiso   1.00
O1578  O     0.52556   0.66280   0.84201   0.00000  Uiso   1.00
C1579  C     0.51886   0.65406   0.89233   0.00000  Uiso   1.00
H1580  H     0.98405   0.64212   0.89602   0.00000  Uiso   1.00
H1581  H     0.52355   0.68652   0.91637   0.00000  Uiso   1.00
C1582  C     0.54893   0.61311   0.91005   0.00000  Uiso   1.00
H1583  H     0.54165   0.57996   0.88827   0.00000  Uiso   1.00
H1584  H     0.58400   0.62316   0.90458   0.00000  Uiso   1.00
C1585  C     0.54226   0.60247   0.96423   0.00000  Uiso   1.00
H1586  H     0.55165   0.63445   0.98678   0.00000  Uiso   1.00
H1587  H     0.56349   0.57174   0.97562   0.00000  Uiso   1.00
H1588  H     0.50721   0.59289   0.97091   0.00000  Uiso   1.00
O1589  O     0.79998   0.52848   0.90328   0.00000  Uiso   1.00
C1590  C     0.79644   0.54738   0.95135   0.00000  Uiso   1.00
H1591  H     0.78839   0.51692   0.97596   0.00000  Uiso   1.00
H1592  H     0.76932   0.57406   0.95579   0.00000  Uiso   1.00
C1593  C     0.84076   0.56911   0.96831   0.00000  Uiso   1.00
H1594  H     0.86614   0.54024   0.96986   0.00000  Uiso   1.00
H1595  H     0.85196   0.59664   0.94179   0.00000  Uiso   1.00
C1596  C     0.83725   0.59263   0.68538   0.00000  Uiso   1.00
H1597  H     0.81501   0.62445   0.68341   0.00000  Uiso   1.00
H1598  H     0.87048   0.60466   0.69834   0.00000  Uiso   1.00
H1599  H     0.82409   0.56656   0.71221   0.00000  Uiso   1.00
O1600  O     0.67019   0.97009   0.83791   0.00000  Uiso   1.00
C1601  C     0.65893   0.97901   0.88721   0.00000  Uiso   1.00
H1602  H     0.64353   0.51535   0.88865   0.00000  Uiso   1.00
H1603  H     0.68794   0.98001   0.91321   0.00000  Uiso   1.00
C1604  C     0.62503   0.94169   0.90404   0.00000  Uiso   1.00
H1605  H     0.59656   0.94069   0.87769   0.00000  Uiso   1.00
H1606  H     0.64038   0.90534   0.90508   0.00000  Uiso   1.00
C1607  C     0.60823   0.95366   0.95497   0.00000  Uiso   1.00
H1608  H     0.63613   0.95448   0.98202   0.00000  Uiso   1.00
H1609  H     0.58427   0.92559   0.96620   0.00000  Uiso   1.00
H1610  H     0.59133   0.98918   0.95472   0.00000  Uiso   1.00
O1611  O     0.70168   0.52836   0.76154   0.00000  Uiso   1.00
C1612  C     0.70948   0.54535   0.71352   0.00000  Uiso   1.00
H1613  H     0.71803   0.51371   0.69050   0.00000  Uiso   1.00
H1614  H     0.73796   0.57086   0.71099   0.00000  Uiso   1.00
C1615  C     0.66730   0.56810   0.69203   0.00000  Uiso   1.00
H1616  H     0.64155   0.53976   0.68707   0.00000  Uiso   1.00
H1617  H     0.65430   0.59565   0.71758   0.00000  Uiso   1.00
C1618  C     0.67583   0.59201   0.97615   0.00000  Uiso   1.00
H1619  H     0.70052   0.62153   0.98065   0.00000  Uiso   1.00
H1620  H     0.64466   0.60770   0.96143   0.00000  Uiso   1.00
H1621  H     0.68813   0.56511   0.94950   0.00000  Uiso   1.00
O1622  O     0.83027   0.96955   0.82529   0.00000  Uiso   1.00
C1623  C     0.83801   0.98002   0.77544   0.00000  Uiso   1.00
H1624  H     0.86009   0.51210   0.77451   0.00000  Uiso   1.00
H1625  H     0.80731   0.98995   0.75449   0.00000  Uiso   1.00
C1626  C     0.86137   0.93780   0.75035   0.00000  Uiso   1.00
H1627  H     0.89181   0.92827   0.77157   0.00000  Uiso   1.00
H1628  H     0.83926   0.90578   0.74900   0.00000  Uiso   1.00
C1629  C     0.87364   0.95043   0.69803   0.00000  Uiso   1.00
H1630  H     0.84362   0.96026   0.67636   0.00000  Uiso   1.00
H1631  H     0.88899   0.91865   0.68040   0.00000  Uiso   1.00
H1632  H     0.89753   0.98093   0.69797   0.00000  Uiso   1.00
loop_
_geom_bond_atom_site_label_1
_geom_bond_atom_site_label_2
_geom_bond_distance
_geom_bond_site_symmetry_2
_ccdc_geom_bond_type
O1     C5      1.292   .     A
O1     Cu17    1.955   .     S
O2     Cu18    1.955   .     S
O2     C6      1.290   .     A
O3     C6      1.289   .     A
O3     Cu17    1.956   .     S
O4     Cu18    1.956   .     S
O4     C5      1.292   .     A
C5     C41     1.461   .     S
C6     C42     1.451   .     S
O7     Cu17    1.936   .     S
O7     C15     1.286   .     A
O8     C16     1.285   .     A
O8     Cu18    1.936   .     S
O9     C16     1.287   .     A
O9     Cu17    1.937   .     S
O10    C15     1.287   .     A
O10    Cu18    1.937   .     S
C11    C25     1.416   .     A
C11    O93     1.392   .     S
C11    C45     1.420   .     A
C12    O104    1.383   .     S
C12    C26     1.413   .     A
C12    C46     1.411   .     A
C13    C25     1.415   .     A
C13    C47     1.418   .     A
C13    O115    1.391   .     S
C14    C48     1.410   .     A
C14    C26     1.415   .     A
C14    O126    1.383   .     S
C15    C27     1.410   .     S
C16    C28     1.410   .     S
Cu17   Cu18    2.672   .     S
Cu17   N24     2.007   .     S
Cu18   N23     2.007   .     S
H19    C45     1.079   .     S
H20    C46     1.077   .     S
H21    C47     1.079   .     S
H22    C48     1.078   .     S
N23    C45     1.359   .     A
N23    C47     1.360   .     A
N24    C48     1.366   .     A
N24    C46     1.367   .     A
C25    C298    1.514   1_545 S
C26    C297    1.514   .     S
C27    C1116   1.191   1_554 S
C28    C571    1.191   .     S
C29    O49     1.381   .     S
C29    C33     1.392   .     A
C29    C43     1.414   .     A
C30    C44     1.414   .     A
C30    O60     1.384   .     S
C30    C34     1.387   .     A
C31    C44     1.420   .     A
C31    C35     1.414   .     A
C31    O71     1.403   .     S
C32    C36     1.392   .     A
C32    O82     1.383   .     S
C32    C43     1.415   .     A
C33    H37     1.083   .     S
C33    C41     1.398   .     A
C34    C42     1.389   .     A
C34    H38     1.084   .     S
C35    H39     1.080   .     S
C35    C42     1.395   .     A
C36    C41     1.398   .     A
C36    H40     1.083   .     S
C43    C180    1.478   1_455 S
C44    C179    1.478   .     S
O49    C50     1.408   .     S
C50    H52     1.117   .     S
C50    C53     1.528   .     S
C50    H187    1.113   1_455 S
H51    C186    1.113   .     S
C53    H55     1.112   .     S
C53    H190    1.112   1_455 S
C53    C192    1.522   1_455 S
H54    C189    1.112   .     S
C56    H59     1.109   .     S
C56    H58     1.111   .     S
C56    C189    1.522   .     S
C56    H193    1.110   .     S
H57    C192    1.110   1_455 S
O60    C61     1.415   .     S
C61    H63     1.113   .     S
C61    H62     1.110   .     S
C61    C64     1.540   .     S
C64    H66     1.112   .     S
C64    H65     1.110   .     S
C64    C1155   1.521   1_554 S
C67    H68     1.109   .     S
C67    H69     1.110   .     S
C67    H70     1.107   .     S
C67    C608    1.521   .     S
O71    C72     1.415   .     S
C72    C75     1.538   .     S
C72    H74     1.111   .     S
C72    H73     1.109   .     S
C75    H76     1.111   .     S
C75    H77     1.111   .     S
C75    C78     1.528   .     S
C78    H80     1.110   .     S
C78    H79     1.110   .     S
C78    H217    1.109   .     S
H81    C214    1.109   1_455 S
O82    C83     1.414   .     S
C83    H85     1.119   .     S
C83    C86     1.530   .     S
C83    H220    1.110   1_455 S
H84    C219    1.110   .     S
C86    H87     1.112   .     S
C86    C89     1.526   .     S
C86    H88     1.109   .     S
C89    H91     1.110   .     S
C89    H92     1.111   .     S
C89    H90     1.110   .     S
O93    C94     1.417   .     S
C94    C97     1.531   .     S
C94    H96     1.114   .     S
C94    H95     1.110   .     S
C97    H98     1.110   .     S
C97    H99     1.110   .     S
C97    C644    1.526   .     S
C100   H103    1.109   .     S
C100   H102    1.109   .     S
C100   H101    1.111   .     S
C100   C1185   1.526   1_554 S
O104   C105    1.416   .     S
C105   H107    1.118   .     S
C105   C108    1.532   .     S
C105   H378    1.111   .     S
H106   C377    1.111   1_545 S
C108   H109    1.112   .     S
C108   H110    1.110   .     S
C108   C111    1.525   .     S
C111   H112    1.111   .     S
C111   H113    1.110   .     S
C111   H114    1.110   .     S
O115   C116    1.418   .     S
C116   H118    1.116   .     S
C116   C119    1.532   .     S
C116   H117    1.111   .     S
C119   H121    1.110   .     S
C119   H120    1.111   .     S
C119   C1210   1.526   1_554 S
C122   H124    1.108   .     S
C122   H125    1.109   .     S
C122   H123    1.111   .     S
C122   C663    1.526   .     S
O126   C127    1.416   .     S
C127   H129    1.117   .     S
C127   C130    1.534   .     S
C127   H400    1.111   .     S
H128   C399    1.111   1_545 S
C130   H132    1.110   .     S
C130   C133    1.524   .     S
C130   H131    1.111   .     S
C133   H136    1.111   .     S
C133   H134    1.110   .     S
C133   H135    1.109   .     S
O137   C141    1.292   .     A
O137   Cu153   1.955   .     S
O138   Cu154   1.955   .     S
O138   C142    1.290   .     A
O139   C142    1.289   .     A
O139   Cu153   1.956   .     S
O140   Cu154   1.956   .     S
O140   C141    1.292   .     A
C141   C177    1.461   .     S
C142   C178    1.451   .     S
O143   Cu153   1.936   .     S
O143   C151    1.286   .     A
O144   C152    1.285   .     A
O144   Cu154   1.936   .     S
O145   C152    1.287   .     A
O145   Cu153   1.937   .     S
O146   C151    1.287   .     A
O146   Cu154   1.937   .     S
C147   C161    1.416   .     A
C147   O229    1.392   .     S
C147   C181    1.420   .     A
C148   O240    1.383   .     S
C148   C162    1.413   .     A
C148   C182    1.411   .     A
C149   C161    1.415   .     A
C149   C183    1.418   .     A
C149   O251    1.391   .     S
C150   C184    1.410   .     A
C150   C162    1.415   .     A
C150   O262    1.383   .     S
C151   C163    1.410   .     S
C152   C164    1.410   .     S
Cu153  Cu154   2.672   .     S
Cu153  N160    2.007   .     S
Cu154  N159    2.007   .     S
H155   C181    1.079   .     S
H156   C182    1.077   .     S
H157   C183    1.079   .     S
H158   C184    1.078   .     S
N159   C181    1.359   .     A
N159   C183    1.360   .     A
N160   C184    1.366   .     A
N160   C182    1.367   .     A
C161   C434    1.514   1_545 S
C162   C433    1.514   .     S
C163   C1252   1.191   1_554 S
C164   C707    1.191   .     S
C165   O185    1.381   .     S
C165   C169    1.392   .     A
C165   C179    1.414   .     A
C166   C180    1.414   .     A
C166   O196    1.384   .     S
C166   C170    1.387   .     A
C167   C180    1.420   .     A
C167   C171    1.414   .     A
C167   O207    1.403   .     S
C168   C172    1.392   .     A
C168   O218    1.383   .     S
C168   C179    1.415   .     A
C169   H173    1.083   .     S
C169   C177    1.398   .     A
C170   C178    1.389   .     A
C170   H174    1.084   .     S
C171   H175    1.080   .     S
C171   C178    1.395   .     A
C172   C177    1.398   .     A
C172   H176    1.083   .     S
C180   C43     1.478   1_655 S
O185   C186    1.408   .     S
C186   H188    1.117   .     S
C186   C189    1.528   .     S
H187   C50     1.113   1_655 S
C189   H191    1.112   .     S
H190   C53     1.112   1_655 S
C192   H195    1.109   .     S
C192   H194    1.111   .     S
C192   C53     1.522   1_655 S
C192   H57     1.110   1_655 S
O196   C197    1.415   .     S
C197   H199    1.113   .     S
C197   H198    1.110   .     S
C197   C200    1.540   .     S
C200   H202    1.112   .     S
C200   H201    1.110   .     S
C200   C1291   1.521   1_554 S
C203   H204    1.109   .     S
C203   H205    1.110   .     S
C203   H206    1.107   .     S
C203   C744    1.521   .     S
O207   C208    1.415   .     S
C208   C211    1.538   .     S
C208   H210    1.111   .     S
C208   H209    1.109   .     S
C211   H212    1.111   .     S
C211   H213    1.111   .     S
C211   C214    1.528   .     S
C214   H216    1.110   .     S
C214   H215    1.110   .     S
C214   H81     1.109   1_655 S
O218   C219    1.414   .     S
C219   H221    1.119   .     S
C219   C222    1.530   .     S
H220   C83     1.110   1_655 S
C222   H223    1.112   .     S
C222   C225    1.526   .     S
C222   H224    1.109   .     S
C225   H227    1.110   .     S
C225   H228    1.111   .     S
C225   H226    1.110   .     S
O229   C230    1.417   .     S
C230   C233    1.531   .     S
C230   H232    1.114   .     S
C230   H231    1.110   .     S
C233   H234    1.110   .     S
C233   H235    1.110   .     S
C233   C780    1.526   .     S
C236   H239    1.109   .     S
C236   H238    1.109   .     S
C236   H237    1.111   .     S
C236   C1321   1.526   1_554 S
O240   C241    1.416   .     S
C241   H243    1.118   .     S
C241   C244    1.532   .     S
C241   H514    1.111   .     S
H242   C513    1.111   1_545 S
C244   H245    1.112   .     S
C244   H246    1.110   .     S
C244   C247    1.525   .     S
C247   H248    1.111   .     S
C247   H249    1.110   .     S
C247   H250    1.110   .     S
O251   C252    1.418   .     S
C252   H254    1.116   .     S
C252   C255    1.532   .     S
C252   H253    1.111   .     S
C255   H257    1.110   .     S
C255   H256    1.111   .     S
C255   C1346   1.526   1_554 S
C258   H260    1.108   .     S
C258   H261    1.109   .     S
C258   H259    1.111   .     S
C258   C799    1.526   .     S
O262   C263    1.416   .     S
C263   H265    1.117   .     S
C263   C266    1.534   .     S
C263   H536    1.111   .     S
H264   C535    1.111   1_545 S
C266   H268    1.110   .     S
C266   C269    1.524   .     S
C266   H267    1.111   .     S
C269   H272    1.111   .     S
C269   H270    1.110   .     S
C269   H271    1.109   .     S
O273   C277    1.292   .     A
O273   Cu289   1.955   .     S
O274   Cu290   1.955   .     S
O274   C278    1.290   .     A
O275   C278    1.289   .     A
O275   Cu289   1.956   .     S
O276   Cu290   1.956   .     S
O276   C277    1.292   .     A
C277   C313    1.461   .     S
C278   C314    1.451   .     S
O279   Cu289   1.936   .     S
O279   C287    1.286   .     A
O280   C288    1.285   .     A
O280   Cu290   1.936   .     S
O281   C288    1.287   .     A
O281   Cu289   1.937   .     S
O282   C287    1.287   .     A
O282   Cu290   1.937   .     S
C283   C297    1.416   .     A
C283   O365    1.392   .     S
C283   C317    1.420   .     A
C284   O376    1.383   .     S
C284   C298    1.413   .     A
C284   C318    1.411   .     A
C285   C297    1.415   .     A
C285   C319    1.418   .     A
C285   O387    1.391   .     S
C286   C320    1.410   .     A
C286   C298    1.415   .     A
C286   O398    1.383   .     S
C287   C299    1.410   .     S
C288   C300    1.410   .     S
Cu289  Cu290   2.672   .     S
Cu289  N296    2.007   .     S
Cu290  N295    2.007   .     S
H291   C317    1.079   .     S
H292   C318    1.077   .     S
H293   C319    1.079   .     S
H294   C320    1.078   .     S
N295   C317    1.359   .     A
N295   C319    1.360   .     A
N296   C320    1.366   .     A
N296   C318    1.367   .     A
C298   C25     1.514   1_565 S
C299   C1388   1.191   1_554 S
C300   C843    1.191   .     S
C301   O321    1.381   .     S
C301   C305    1.392   .     A
C301   C315    1.414   .     A
C302   C316    1.414   .     A
C302   O332    1.384   .     S
C302   C306    1.387   .     A
C303   C316    1.420   .     A
C303   C307    1.414   .     A
C303   O343    1.403   .     S
C304   C308    1.392   .     A
C304   O354    1.383   .     S
C304   C315    1.415   .     A
C305   H309    1.083   .     S
C305   C313    1.398   .     A
C306   C314    1.389   .     A
C306   H310    1.084   .     S
C307   H311    1.080   .     S
C307   C314    1.395   .     A
C308   C313    1.398   .     A
C308   H312    1.083   .     S
C315   C452    1.478   1_455 S
C316   C451    1.478   .     S
O321   C322    1.408   .     S
C322   H324    1.117   .     S
C322   C325    1.528   .     S
C322   H459    1.113   1_455 S
H323   C458    1.113   .     S
C325   H327    1.112   .     S
C325   H462    1.112   1_455 S
C325   C464    1.522   1_455 S
H326   C461    1.112   .     S
C328   H331    1.109   .     S
C328   H330    1.111   .     S
C328   C461    1.522   .     S
C328   H465    1.110   .     S
H329   C464    1.110   1_455 S
O332   C333    1.415   .     S
C333   H335    1.113   .     S
C333   H334    1.110   .     S
C333   C336    1.540   .     S
C336   H338    1.112   .     S
C336   H337    1.110   .     S
C336   C1427   1.521   1_554 S
C339   H340    1.109   .     S
C339   H341    1.110   .     S
C339   H342    1.107   .     S
C339   C880    1.521   .     S
O343   C344    1.415   .     S
C344   C347    1.538   .     S
C344   H346    1.111   .     S
C344   H345    1.109   .     S
C347   H348    1.111   .     S
C347   H349    1.111   .     S
C347   C350    1.528   .     S
C350   H352    1.110   .     S
C350   H351    1.110   .     S
C350   H489    1.109   .     S
H353   C486    1.109   1_455 S
O354   C355    1.414   .     S
C355   H357    1.119   .     S
C355   C358    1.530   .     S
C355   H492    1.110   1_455 S
H356   C491    1.110   .     S
C358   H359    1.112   .     S
C358   C361    1.526   .     S
C358   H360    1.109   .     S
C361   H363    1.110   .     S
C361   H364    1.111   .     S
C361   H362    1.110   .     S
O365   C366    1.417   .     S
C366   C369    1.531   .     S
C366   H368    1.114   .     S
C366   H367    1.110   .     S
C369   H370    1.110   .     S
C369   H371    1.110   .     S
C369   C916    1.526   .     S
C372   H375    1.109   .     S
C372   H374    1.109   .     S
C372   H373    1.111   .     S
C372   C1457   1.526   1_554 S
O376   C377    1.416   .     S
C377   H379    1.118   .     S
C377   C380    1.532   .     S
C377   H106    1.111   1_565 S
C380   H381    1.112   .     S
C380   H382    1.110   .     S
C380   C383    1.525   .     S
C383   H384    1.111   .     S
C383   H385    1.110   .     S
C383   H386    1.110   .     S
O387   C388    1.418   .     S
C388   H390    1.116   .     S
C388   C391    1.532   .     S
C388   H389    1.111   .     S
C391   H393    1.110   .     S
C391   H392    1.111   .     S
C391   C1482   1.526   1_554 S
C394   H396    1.108   .     S
C394   H397    1.109   .     S
C394   H395    1.111   .     S
C394   C935    1.526   .     S
O398   C399    1.416   .     S
C399   H401    1.117   .     S
C399   C402    1.534   .     S
C399   H128    1.111   1_565 S
C402   H404    1.110   .     S
C402   C405    1.524   .     S
C402   H403    1.111   .     S
C405   H408    1.111   .     S
C405   H406    1.110   .     S
C405   H407    1.109   .     S
O409   C413    1.292   .     A
O409   Cu425   1.955   .     S
O410   Cu426   1.955   .     S
O410   C414    1.290   .     A
O411   C414    1.289   .     A
O411   Cu425   1.956   .     S
O412   Cu426   1.956   .     S
O412   C413    1.292   .     A
C413   C449    1.461   .     S
C414   C450    1.451   .     S
O415   Cu425   1.936   .     S
O415   C423    1.286   .     A
O416   C424    1.285   .     A
O416   Cu426   1.936   .     S
O417   C424    1.287   .     A
O417   Cu425   1.937   .     S
O418   C423    1.287   .     A
O418   Cu426   1.937   .     S
C419   C433    1.416   .     A
C419   O501    1.392   .     S
C419   C453    1.420   .     A
C420   O512    1.383   .     S
C420   C434    1.413   .     A
C420   C454    1.411   .     A
C421   C433    1.415   .     A
C421   C455    1.418   .     A
C421   O523    1.391   .     S
C422   C456    1.410   .     A
C422   C434    1.415   .     A
C422   O534    1.383   .     S
C423   C435    1.410   .     S
C424   C436    1.410   .     S
Cu425  Cu426   2.672   .     S
Cu425  N432    2.007   .     S
Cu426  N431    2.007   .     S
H427   C453    1.079   .     S
H428   C454    1.077   .     S
H429   C455    1.079   .     S
H430   C456    1.078   .     S
N431   C453    1.359   .     A
N431   C455    1.360   .     A
N432   C456    1.366   .     A
N432   C454    1.367   .     A
C434   C161    1.514   1_565 S
C435   C1524   1.191   1_554 S
C436   C979    1.191   .     S
C437   O457    1.381   .     S
C437   C441    1.392   .     A
C437   C451    1.414   .     A
C438   C452    1.414   .     A
C438   O468    1.384   .     S
C438   C442    1.387   .     A
C439   C452    1.420   .     A
C439   C443    1.414   .     A
C439   O479    1.403   .     S
C440   C444    1.392   .     A
C440   O490    1.383   .     S
C440   C451    1.415   .     A
C441   H445    1.083   .     S
C441   C449    1.398   .     A
C442   C450    1.389   .     A
C442   H446    1.084   .     S
C443   H447    1.080   .     S
C443   C450    1.395   .     A
C444   C449    1.398   .     A
C444   H448    1.083   .     S
C452   C315    1.478   1_655 S
O457   C458    1.408   .     S
C458   H460    1.117   .     S
C458   C461    1.528   .     S
H459   C322    1.113   1_655 S
C461   H463    1.112   .     S
H462   C325    1.112   1_655 S
C464   H467    1.109   .     S
C464   H466    1.111   .     S
C464   C325    1.522   1_655 S
C464   H329    1.110   1_655 S
O468   C469    1.415   .     S
C469   H471    1.113   .     S
C469   H470    1.110   .     S
C469   C472    1.540   .     S
C472   H474    1.112   .     S
C472   H473    1.110   .     S
C472   C1563   1.521   1_554 S
C475   H476    1.109   .     S
C475   H477    1.110   .     S
C475   H478    1.107   .     S
C475   C1016   1.521   .     S
O479   C480    1.415   .     S
C480   C483    1.538   .     S
C480   H482    1.111   .     S
C480   H481    1.109   .     S
C483   H484    1.111   .     S
C483   H485    1.111   .     S
C483   C486    1.528   .     S
C486   H488    1.110   .     S
C486   H487    1.110   .     S
C486   H353    1.109   1_655 S
O490   C491    1.414   .     S
C491   H493    1.119   .     S
C491   C494    1.530   .     S
H492   C355    1.110   1_655 S
C494   H495    1.112   .     S
C494   C497    1.526   .     S
C494   H496    1.109   .     S
C497   H499    1.110   .     S
C497   H500    1.111   .     S
C497   H498    1.110   .     S
O501   C502    1.417   .     S
C502   C505    1.531   .     S
C502   H504    1.114   .     S
C502   H503    1.110   .     S
C505   H506    1.110   .     S
C505   H507    1.110   .     S
C505   C1052   1.526   .     S
C508   H511    1.109   .     S
C508   H510    1.109   .     S
C508   H509    1.111   .     S
C508   C1593   1.526   1_554 S
O512   C513    1.416   .     S
C513   H515    1.118   .     S
C513   C516    1.532   .     S
C513   H242    1.111   1_565 S
C516   H517    1.112   .     S
C516   H518    1.110   .     S
C516   C519    1.525   .     S
C519   H520    1.111   .     S
C519   H521    1.110   .     S
C519   H522    1.110   .     S
O523   C524    1.418   .     S
C524   H526    1.116   .     S
C524   C527    1.532   .     S
C524   H525    1.111   .     S
C527   H529    1.110   .     S
C527   H528    1.111   .     S
C527   C1618   1.526   1_554 S
C530   H532    1.108   .     S
C530   H533    1.109   .     S
C530   H531    1.111   .     S
C530   C1071   1.526   .     S
O534   C535    1.416   .     S
C535   H537    1.117   .     S
C535   C538    1.534   .     S
C535   H264    1.111   1_565 S
C538   H540    1.110   .     S
C538   C541    1.524   .     S
C538   H539    1.111   .     S
C541   H544    1.111   .     S
C541   H542    1.110   .     S
C541   H543    1.109   .     S
O545   C549    1.292   .     A
O545   Cu561   1.955   .     S
O546   Cu562   1.955   .     S
O546   C550    1.290   .     A
O547   C550    1.289   .     A
O547   Cu561   1.956   .     S
O548   Cu562   1.956   .     S
O548   C549    1.292   .     A
C549   C585    1.461   .     S
C550   C586    1.451   .     S
O551   Cu561   1.936   .     S
O551   C559    1.286   .     A
O552   C560    1.285   .     A
O552   Cu562   1.936   .     S
O553   C560    1.287   .     A
O553   Cu561   1.937   .     S
O554   C559    1.287   .     A
O554   Cu562   1.937   .     S
C555   C569    1.416   .     A
C555   O637    1.392   .     S
C555   C589    1.420   .     A
C556   O648    1.383   .     S
C556   C570    1.413   .     A
C556   C590    1.411   .     A
C557   C569    1.415   .     A
C557   C591    1.418   .     A
C557   O659    1.391   .     S
C558   C592    1.410   .     A
C558   C570    1.415   .     A
C558   O670    1.383   .     S
C559   C571    1.410   .     S
C560   C572    1.410   .     S
Cu561  Cu562   2.672   .     S
Cu561  N568    2.007   .     S
Cu562  N567    2.007   .     S
H563   C589    1.079   .     S
H564   C590    1.077   .     S
H565   C591    1.079   .     S
H566   C592    1.078   .     S
N567   C589    1.359   .     A
N567   C591    1.360   .     A
N568   C592    1.366   .     A
N568   C590    1.367   .     A
C569   C842    1.514   1_545 S
C570   C841    1.514   .     S
C572   C1115   1.191   .     S
C573   O593    1.381   .     S
C573   C577    1.392   .     A
C573   C587    1.414   .     A
C574   C588    1.414   .     A
C574   O604    1.384   .     S
C574   C578    1.387   .     A
C575   C588    1.420   .     A
C575   C579    1.414   .     A
C575   O615    1.403   .     S
C576   C580    1.392   .     A
C576   O626    1.383   .     S
C576   C587    1.415   .     A
C577   H581    1.083   .     S
C577   C585    1.398   .     A
C578   C586    1.389   .     A
C578   H582    1.084   .     S
C579   H583    1.080   .     S
C579   C586    1.395   .     A
C580   C585    1.398   .     A
C580   H584    1.083   .     S
C587   C724    1.478   1_455 S
C588   C723    1.478   .     S
O593   C594    1.408   .     S
C594   H596    1.117   .     S
C594   C597    1.528   .     S
C594   H731    1.113   1_455 S
H595   C730    1.113   .     S
C597   H599    1.112   .     S
C597   H734    1.112   1_455 S
C597   C736    1.522   1_455 S
H598   C733    1.112   .     S
C600   H603    1.109   .     S
C600   H602    1.111   .     S
C600   C733    1.522   .     S
C600   H737    1.110   .     S
H601   C736    1.110   1_455 S
O604   C605    1.415   .     S
C605   H607    1.113   .     S
C605   H606    1.110   .     S
C605   C608    1.540   .     S
C608   H610    1.112   .     S
C608   H609    1.110   .     S
C611   H612    1.109   .     S
C611   H613    1.110   .     S
C611   H614    1.107   .     S
C611   C1152   1.521   .     S
O615   C616    1.415   .     S
C616   C619    1.538   .     S
C616   H618    1.111   .     S
C616   H617    1.109   .     S
C619   H620    1.111   .     S
C619   H621    1.111   .     S
C619   C622    1.528   .     S
C622   H624    1.110   .     S
C622   H623    1.110   .     S
C622   H761    1.109   .     S
H625   C758    1.109   1_455 S
O626   C627    1.414   .     S
C627   H629    1.119   .     S
C627   C630    1.530   .     S
C627   H764    1.110   1_455 S
H628   C763    1.110   .     S
C630   H631    1.112   .     S
C630   C633    1.526   .     S
C630   H632    1.109   .     S
C633   H635    1.110   .     S
C633   H636    1.111   .     S
C633   H634    1.110   .     S
O637   C638    1.417   .     S
C638   C641    1.531   .     S
C638   H640    1.114   .     S
C638   H639    1.110   .     S
C641   H642    1.110   .     S
C641   H643    1.110   .     S
C641   C1188   1.526   .     S
C644   H647    1.109   .     S
C644   H646    1.109   .     S
C644   H645    1.111   .     S
O648   C649    1.416   .     S
C649   H651    1.118   .     S
C649   C652    1.532   .     S
C649   H922    1.111   .     S
H650   C921    1.111   1_545 S
C652   H653    1.112   .     S
C652   H654    1.110   .     S
C652   C655    1.525   .     S
C655   H656    1.111   .     S
C655   H657    1.110   .     S
C655   H658    1.110   .     S
O659   C660    1.418   .     S
C660   H662    1.116   .     S
C660   C663    1.532   .     S
C660   H661    1.111   .     S
C663   H665    1.110   .     S
C663   H664    1.111   .     S
C666   H668    1.108   .     S
C666   H669    1.109   .     S
C666   H667    1.111   .     S
C666   C1207   1.526   .     S
O670   C671    1.416   .     S
C671   H673    1.117   .     S
C671   C674    1.534   .     S
C671   H944    1.111   .     S
H672   C943    1.111   1_545 S
C674   H676    1.110   .     S
C674   C677    1.524   .     S
C674   H675    1.111   .     S
C677   H680    1.111   .     S
C677   H678    1.110   .     S
C677   H679    1.109   .     S
O681   C685    1.292   .     A
O681   Cu697   1.955   .     S
O682   Cu698   1.955   .     S
O682   C686    1.290   .     A
O683   C686    1.289   .     A
O683   Cu697   1.956   .     S
O684   Cu698   1.956   .     S
O684   C685    1.292   .     A
C685   C721    1.461   .     S
C686   C722    1.451   .     S
O687   Cu697   1.936   .     S
O687   C695    1.286   .     A
O688   C696    1.285   .     A
O688   Cu698   1.936   .     S
O689   C696    1.287   .     A
O689   Cu697   1.937   .     S
O690   C695    1.287   .     A
O690   Cu698   1.937   .     S
C691   C705    1.416   .     A
C691   O773    1.392   .     S
C691   C725    1.420   .     A
C692   O784    1.383   .     S
C692   C706    1.413   .     A
C692   C726    1.411   .     A
C693   C705    1.415   .     A
C693   C727    1.418   .     A
C693   O795    1.391   .     S
C694   C728    1.410   .     A
C694   C706    1.415   .     A
C694   O806    1.383   .     S
C695   C707    1.410   .     S
C696   C708    1.410   .     S
Cu697  Cu698   2.672   .     S
Cu697  N704    2.007   .     S
Cu698  N703    2.007   .     S
H699   C725    1.079   .     S
H700   C726    1.077   .     S
H701   C727    1.079   .     S
H702   C728    1.078   .     S
N703   C725    1.359   .     A
N703   C727    1.360   .     A
N704   C728    1.366   .     A
N704   C726    1.367   .     A
C705   C978    1.514   1_545 S
C706   C977    1.514   .     S
C708   C1251   1.191   .     S
C709   O729    1.381   .     S
C709   C713    1.392   .     A
C709   C723    1.414   .     A
C710   C724    1.414   .     A
C710   O740    1.384   .     S
C710   C714    1.387   .     A
C711   C724    1.420   .     A
C711   C715    1.414   .     A
C711   O751    1.403   .     S
C712   C716    1.392   .     A
C712   O762    1.383   .     S
C712   C723    1.415   .     A
C713   H717    1.083   .     S
C713   C721    1.398   .     A
C714   C722    1.389   .     A
C714   H718    1.084   .     S
C715   H719    1.080   .     S
C715   C722    1.395   .     A
C716   C721    1.398   .     A
C716   H720    1.083   .     S
C724   C587    1.478   1_655 S
O729   C730    1.408   .     S
C730   H732    1.117   .     S
C730   C733    1.528   .     S
H731   C594    1.113   1_655 S
C733   H735    1.112   .     S
H734   C597    1.112   1_655 S
C736   H739    1.109   .     S
C736   H738    1.111   .     S
C736   C597    1.522   1_655 S
C736   H601    1.110   1_655 S
O740   C741    1.415   .     S
C741   H743    1.113   .     S
C741   H742    1.110   .     S
C741   C744    1.540   .     S
C744   H746    1.112   .     S
C744   H745    1.110   .     S
C747   H748    1.109   .     S
C747   H749    1.110   .     S
C747   H750    1.107   .     S
C747   C1288   1.521   .     S
O751   C752    1.415   .     S
C752   C755    1.538   .     S
C752   H754    1.111   .     S
C752   H753    1.109   .     S
C755   H756    1.111   .     S
C755   H757    1.111   .     S
C755   C758    1.528   .     S
C758   H760    1.110   .     S
C758   H759    1.110   .     S
C758   H625    1.109   1_655 S
O762   C763    1.414   .     S
C763   H765    1.119   .     S
C763   C766    1.530   .     S
H764   C627    1.110   1_655 S
C766   H767    1.112   .     S
C766   C769    1.526   .     S
C766   H768    1.109   .     S
C769   H771    1.110   .     S
C769   H772    1.111   .     S
C769   H770    1.110   .     S
O773   C774    1.417   .     S
C774   C777    1.531   .     S
C774   H776    1.114   .     S
C774   H775    1.110   .     S
C777   H778    1.110   .     S
C777   H779    1.110   .     S
C777   C1324   1.526   .     S
C780   H783    1.109   .     S
C780   H782    1.109   .     S
C780   H781    1.111   .     S
O784   C785    1.416   .     S
C785   H787    1.118   .     S
C785   C788    1.532   .     S
C785   H1058   1.111   .     S
H786   C1057   1.111   1_545 S
C788   H789    1.112   .     S
C788   H790    1.110   .     S
C788   C791    1.525   .     S
C791   H792    1.111   .     S
C791   H793    1.110   .     S
C791   H794    1.110   .     S
O795   C796    1.418   .     S
C796   H798    1.116   .     S
C796   C799    1.532   .     S
C796   H797    1.111   .     S
C799   H801    1.110   .     S
C799   H800    1.111   .     S
C802   H804    1.108   .     S
C802   H805    1.109   .     S
C802   H803    1.111   .     S
C802   C1343   1.526   .     S
O806   C807    1.416   .     S
C807   H809    1.117   .     S
C807   C810    1.534   .     S
C807   H1080   1.111   .     S
H808   C1079   1.111   1_545 S
C810   H812    1.110   .     S
C810   C813    1.524   .     S
C810   H811    1.111   .     S
C813   H816    1.111   .     S
C813   H814    1.110   .     S
C813   H815    1.109   .     S
O817   C821    1.292   .     A
O817   Cu833   1.955   .     S
O818   Cu834   1.955   .     S
O818   C822    1.290   .     A
O819   C822    1.289   .     A
O819   Cu833   1.956   .     S
O820   Cu834   1.956   .     S
O820   C821    1.292   .     A
C821   C857    1.461   .     S
C822   C858    1.451   .     S
O823   Cu833   1.936   .     S
O823   C831    1.286   .     A
O824   C832    1.285   .     A
O824   Cu834   1.936   .     S
O825   C832    1.287   .     A
O825   Cu833   1.937   .     S
O826   C831    1.287   .     A
O826   Cu834   1.937   .     S
C827   C841    1.416   .     A
C827   O909    1.392   .     S
C827   C861    1.420   .     A
C828   O920    1.383   .     S
C828   C842    1.413   .     A
C828   C862    1.411   .     A
C829   C841    1.415   .     A
C829   C863    1.418   .     A
C829   O931    1.391   .     S
C830   C864    1.410   .     A
C830   C842    1.415   .     A
C830   O942    1.383   .     S
C831   C843    1.410   .     S
C832   C844    1.410   .     S
Cu833  Cu834   2.672   .     S
Cu833  N840    2.007   .     S
Cu834  N839    2.007   .     S
H835   C861    1.079   .     S
H836   C862    1.077   .     S
H837   C863    1.079   .     S
H838   C864    1.078   .     S
N839   C861    1.359   .     A
N839   C863    1.360   .     A
N840   C864    1.366   .     A
N840   C862    1.367   .     A
C842   C569    1.514   1_565 S
C844   C1387   1.191   .     S
C845   O865    1.381   .     S
C845   C849    1.392   .     A
C845   C859    1.414   .     A
C846   C860    1.414   .     A
C846   O876    1.384   .     S
C846   C850    1.387   .     A
C847   C860    1.420   .     A
C847   C851    1.414   .     A
C847   O887    1.403   .     S
C848   C852    1.392   .     A
C848   O898    1.383   .     S
C848   C859    1.415   .     A
C849   H853    1.083   .     S
C849   C857    1.398   .     A
C850   C858    1.389   .     A
C850   H854    1.084   .     S
C851   H855    1.080   .     S
C851   C858    1.395   .     A
C852   C857    1.398   .     A
C852   H856    1.083   .     S
C859   C996    1.478   1_455 S
C860   C995    1.478   .     S
O865   C866    1.408   .     S
C866   H868    1.117   .     S
C866   C869    1.528   .     S
C866   H1003   1.113   1_455 S
H867   C1002   1.113   .     S
C869   H871    1.112   .     S
C869   H1006   1.112   1_455 S
C869   C1008   1.522   1_455 S
H870   C1005   1.112   .     S
C872   H875    1.109   .     S
C872   H874    1.111   .     S
C872   C1005   1.522   .     S
C872   H1009   1.110   .     S
H873   C1008   1.110   1_455 S
O876   C877    1.415   .     S
C877   H879    1.113   .     S
C877   H878    1.110   .     S
C877   C880    1.540   .     S
C880   H882    1.112   .     S
C880   H881    1.110   .     S
C883   H884    1.109   .     S
C883   H885    1.110   .     S
C883   H886    1.107   .     S
C883   C1424   1.521   .     S
O887   C888    1.415   .     S
C888   C891    1.538   .     S
C888   H890    1.111   .     S
C888   H889    1.109   .     S
C891   H892    1.111   .     S
C891   H893    1.111   .     S
C891   C894    1.528   .     S
C894   H896    1.110   .     S
C894   H895    1.110   .     S
C894   H1033   1.109   .     S
H897   C1030   1.109   1_455 S
O898   C899    1.414   .     S
C899   H901    1.119   .     S
C899   C902    1.530   .     S
C899   H1036   1.110   1_455 S
H900   C1035   1.110   .     S
C902   H903    1.112   .     S
C902   C905    1.526   .     S
C902   H904    1.109   .     S
C905   H907    1.110   .     S
C905   H908    1.111   .     S
C905   H906    1.110   .     S
O909   C910    1.417   .     S
C910   C913    1.531   .     S
C910   H912    1.114   .     S
C910   H911    1.110   .     S
C913   H914    1.110   .     S
C913   H915    1.110   .     S
C913   C1460   1.526   .     S
C916   H919    1.109   .     S
C916   H918    1.109   .     S
C916   H917    1.111   .     S
O920   C921    1.416   .     S
C921   H923    1.118   .     S
C921   C924    1.532   .     S
C921   H650    1.111   1_565 S
C924   H925    1.112   .     S
C924   H926    1.110   .     S
C924   C927    1.525   .     S
C927   H928    1.111   .     S
C927   H929    1.110   .     S
C927   H930    1.110   .     S
O931   C932    1.418   .     S
C932   H934    1.116   .     S
C932   C935    1.532   .     S
C932   H933    1.111   .     S
C935   H937    1.110   .     S
C935   H936    1.111   .     S
C938   H940    1.108   .     S
C938   H941    1.109   .     S
C938   H939    1.111   .     S
C938   C1479   1.526   .     S
O942   C943    1.416   .     S
C943   H945    1.117   .     S
C943   C946    1.534   .     S
C943   H672    1.111   1_565 S
C946   H948    1.110   .     S
C946   C949    1.524   .     S
C946   H947    1.111   .     S
C949   H952    1.111   .     S
C949   H950    1.110   .     S
C949   H951    1.109   .     S
O953   C957    1.292   .     A
O953   Cu969   1.955   .     S
O954   Cu970   1.955   .     S
O954   C958    1.290   .     A
O955   C958    1.289   .     A
O955   Cu969   1.956   .     S
O956   Cu970   1.956   .     S
O956   C957    1.292   .     A
C957   C993    1.461   .     S
C958   C994    1.451   .     S
O959   Cu969   1.936   .     S
O959   C967    1.286   .     A
O960   C968    1.285   .     A
O960   Cu970   1.936   .     S
O961   C968    1.287   .     A
O961   Cu969   1.937   .     S
O962   C967    1.287   .     A
O962   Cu970   1.937   .     S
C963   C977    1.416   .     A
C963   O1045   1.392   .     S
C963   C997    1.420   .     A
C964   O1056   1.383   .     S
C964   C978    1.413   .     A
C964   C998    1.411   .     A
C965   C977    1.415   .     A
C965   C999    1.418   .     A
C965   O1067   1.391   .     S
C966   C1000   1.410   .     A
C966   C978    1.415   .     A
C966   O1078   1.383   .     S
C967   C979    1.410   .     S
C968   C980    1.410   .     S
Cu969  Cu970   2.672   .     S
Cu969  N976    2.007   .     S
Cu970  N975    2.007   .     S
H971   C997    1.079   .     S
H972   C998    1.077   .     S
H973   C999    1.079   .     S
H974   C1000   1.078   .     S
N975   C997    1.359   .     A
N975   C999    1.360   .     A
N976   C1000   1.366   .     A
N976   C998    1.367   .     A
C978   C705    1.514   1_565 S
C980   C1523   1.191   .     S
C981   O1001   1.381   .     S
C981   C985    1.392   .     A
C981   C995    1.414   .     A
C982   C996    1.414   .     A
C982   O1012   1.384   .     S
C982   C986    1.387   .     A
C983   C996    1.420   .     A
C983   C987    1.414   .     A
C983   O1023   1.403   .     S
C984   C988    1.392   .     A
C984   O1034   1.383   .     S
C984   C995    1.415   .     A
C985   H989    1.083   .     S
C985   C993    1.398   .     A
C986   C994    1.389   .     A
C986   H990    1.084   .     S
C987   H991    1.080   .     S
C987   C994    1.395   .     A
C988   C993    1.398   .     A
C988   H992    1.083   .     S
C996   C859    1.478   1_655 S
O1001  C1002   1.408   .     S
C1002  H1004   1.117   .     S
C1002  C1005   1.528   .     S
H1003  C866    1.113   1_655 S
C1005  H1007   1.112   .     S
H1006  C869    1.112   1_655 S
C1008  H1011   1.109   .     S
C1008  H1010   1.111   .     S
C1008  C869    1.522   1_655 S
C1008  H873    1.110   1_655 S
O1012  C1013   1.415   .     S
C1013  H1015   1.113   .     S
C1013  H1014   1.110   .     S
C1013  C1016   1.540   .     S
C1016  H1018   1.112   .     S
C1016  H1017   1.110   .     S
C1019  H1020   1.109   .     S
C1019  H1021   1.110   .     S
C1019  H1022   1.107   .     S
C1019  C1560   1.521   .     S
O1023  C1024   1.415   .     S
C1024  C1027   1.538   .     S
C1024  H1026   1.111   .     S
C1024  H1025   1.109   .     S
C1027  H1028   1.111   .     S
C1027  H1029   1.111   .     S
C1027  C1030   1.528   .     S
C1030  H1032   1.110   .     S
C1030  H1031   1.110   .     S
C1030  H897    1.109   1_655 S
O1034  C1035   1.414   .     S
C1035  H1037   1.119   .     S
C1035  C1038   1.530   .     S
H1036  C899    1.110   1_655 S
C1038  H1039   1.112   .     S
C1038  C1041   1.526   .     S
C1038  H1040   1.109   .     S
C1041  H1043   1.110   .     S
C1041  H1044   1.111   .     S
C1041  H1042   1.110   .     S
O1045  C1046   1.417   .     S
C1046  C1049   1.531   .     S
C1046  H1048   1.114   .     S
C1046  H1047   1.110   .     S
C1049  H1050   1.110   .     S
C1049  H1051   1.110   .     S
C1049  C1596   1.526   .     S
C1052  H1055   1.109   .     S
C1052  H1054   1.109   .     S
C1052  H1053   1.111   .     S
O1056  C1057   1.416   .     S
C1057  H1059   1.118   .     S
C1057  C1060   1.532   .     S
C1057  H786    1.111   1_565 S
C1060  H1061   1.112   .     S
C1060  H1062   1.110   .     S
C1060  C1063   1.525   .     S
C1063  H1064   1.111   .     S
C1063  H1065   1.110   .     S
C1063  H1066   1.110   .     S
O1067  C1068   1.418   .     S
C1068  H1070   1.116   .     S
C1068  C1071   1.532   .     S
C1068  H1069   1.111   .     S
C1071  H1073   1.110   .     S
C1071  H1072   1.111   .     S
C1074  H1076   1.108   .     S
C1074  H1077   1.109   .     S
C1074  H1075   1.111   .     S
C1074  C1615   1.526   .     S
O1078  C1079   1.416   .     S
C1079  H1081   1.117   .     S
C1079  C1082   1.534   .     S
C1079  H808    1.111   1_565 S
C1082  H1084   1.110   .     S
C1082  C1085   1.524   .     S
C1082  H1083   1.111   .     S
C1085  H1088   1.111   .     S
C1085  H1086   1.110   .     S
C1085  H1087   1.109   .     S
O1089  C1093   1.292   .     A
O1089  Cu1105  1.955   .     S
O1090  Cu1106  1.955   .     S
O1090  C1094   1.290   .     A
O1091  C1094   1.289   .     A
O1091  Cu1105  1.956   .     S
O1092  Cu1106  1.956   .     S
O1092  C1093   1.292   .     A
C1093  C1129   1.461   .     S
C1094  C1130   1.451   .     S
O1095  Cu1105  1.936   .     S
O1095  C1103   1.286   .     A
O1096  C1104   1.285   .     A
O1096  Cu1106  1.936   .     S
O1097  C1104   1.287   .     A
O1097  Cu1105  1.937   .     S
O1098  C1103   1.287   .     A
O1098  Cu1106  1.937   .     S
C1099  C1113   1.416   .     A
C1099  O1181   1.392   .     S
C1099  C1133   1.420   .     A
C1100  O1192   1.383   .     S
C1100  C1114   1.413   .     A
C1100  C1134   1.411   .     A
C1101  C1113   1.415   .     A
C1101  C1135   1.418   .     A
C1101  O1203   1.391   .     S
C1102  C1136   1.410   .     A
C1102  C1114   1.415   .     A
C1102  O1214   1.383   .     S
C1103  C1115   1.410   .     S
C1104  C1116   1.410   .     S
Cu1105 Cu1106  2.672   .     S
Cu1105 N1112   2.007   .     S
Cu1106 N1111   2.007   .     S
H1107  C1133   1.079   .     S
H1108  C1134   1.077   .     S
H1109  C1135   1.079   .     S
H1110  C1136   1.078   .     S
N1111  C1133   1.359   .     A
N1111  C1135   1.360   .     A
N1112  C1136   1.366   .     A
N1112  C1134   1.367   .     A
C1113  C1386   1.514   1_545 S
C1114  C1385   1.514   .     S
C1116  C27     1.191   1_556 S
C1117  O1137   1.381   .     S
C1117  C1121   1.392   .     A
C1117  C1131   1.414   .     A
C1118  C1132   1.414   .     A
C1118  O1148   1.384   .     S
C1118  C1122   1.387   .     A
C1119  C1132   1.420   .     A
C1119  C1123   1.414   .     A
C1119  O1159   1.403   .     S
C1120  C1124   1.392   .     A
C1120  O1170   1.383   .     S
C1120  C1131   1.415   .     A
C1121  H1125   1.083   .     S
C1121  C1129   1.398   .     A
C1122  C1130   1.389   .     A
C1122  H1126   1.084   .     S
C1123  H1127   1.080   .     S
C1123  C1130   1.395   .     A
C1124  C1129   1.398   .     A
C1124  H1128   1.083   .     S
C1131  C1268   1.478   1_455 S
C1132  C1267   1.478   .     S
O1137  C1138   1.408   .     S
C1138  H1140   1.117   .     S
C1138  C1141   1.528   .     S
C1138  H1275   1.113   1_455 S
H1139  C1274   1.113   .     S
C1141  H1143   1.112   .     S
C1141  H1278   1.112   1_455 S
C1141  C1280   1.522   1_455 S
H1142  C1277   1.112   .     S
C1144  H1147   1.109   .     S
C1144  H1146   1.111   .     S
C1144  C1277   1.522   .     S
C1144  H1281   1.110   .     S
H1145  C1280   1.110   1_455 S
O1148  C1149   1.415   .     S
C1149  H1151   1.113   .     S
C1149  H1150   1.110   .     S
C1149  C1152   1.540   .     S
C1152  H1154   1.112   .     S
C1152  H1153   1.110   .     S
C1155  H1156   1.109   .     S
C1155  H1157   1.110   .     S
C1155  H1158   1.107   .     S
C1155  C64     1.521   1_556 S
O1159  C1160   1.415   .     S
C1160  C1163   1.538   .     S
C1160  H1162   1.111   .     S
C1160  H1161   1.109   .     S
C1163  H1164   1.111   .     S
C1163  H1165   1.111   .     S
C1163  C1166   1.528   .     S
C1166  H1168   1.110   .     S
C1166  H1167   1.110   .     S
C1166  H1305   1.109   .     S
H1169  C1302   1.109   1_455 S
O1170  C1171   1.414   .     S
C1171  H1173   1.119   .     S
C1171  C1174   1.530   .     S
C1171  H1308   1.110   1_455 S
H1172  C1307   1.110   .     S
C1174  H1175   1.112   .     S
C1174  C1177   1.526   .     S
C1174  H1176   1.109   .     S
C1177  H1179   1.110   .     S
C1177  H1180   1.111   .     S
C1177  H1178   1.110   .     S
O1181  C1182   1.417   .     S
C1182  C1185   1.531   .     S
C1182  H1184   1.114   .     S
C1182  H1183   1.110   .     S
C1185  H1186   1.110   .     S
C1185  H1187   1.110   .     S
C1185  C100    1.526   1_556 S
C1188  H1191   1.109   .     S
C1188  H1190   1.109   .     S
C1188  H1189   1.111   .     S
O1192  C1193   1.416   .     S
C1193  H1195   1.118   .     S
C1193  C1196   1.532   .     S
C1193  H1466   1.111   .     S
H1194  C1465   1.111   1_545 S
C1196  H1197   1.112   .     S
C1196  H1198   1.110   .     S
C1196  C1199   1.525   .     S
C1199  H1200   1.111   .     S
C1199  H1201   1.110   .     S
C1199  H1202   1.110   .     S
O1203  C1204   1.418   .     S
C1204  H1206   1.116   .     S
C1204  C1207   1.532   .     S
C1204  H1205   1.111   .     S
C1207  H1209   1.110   .     S
C1207  H1208   1.111   .     S
C1210  H1212   1.108   .     S
C1210  H1213   1.109   .     S
C1210  H1211   1.111   .     S
C1210  C119    1.526   1_556 S
O1214  C1215   1.416   .     S
C1215  H1217   1.117   .     S
C1215  C1218   1.534   .     S
C1215  H1488   1.111   .     S
H1216  C1487   1.111   1_545 S
C1218  H1220   1.110   .     S
C1218  C1221   1.524   .     S
C1218  H1219   1.111   .     S
C1221  H1224   1.111   .     S
C1221  H1222   1.110   .     S
C1221  H1223   1.109   .     S
O1225  C1229   1.292   .     A
O1225  Cu1241  1.955   .     S
O1226  Cu1242  1.955   .     S
O1226  C1230   1.290   .     A
O1227  C1230   1.289   .     A
O1227  Cu1241  1.956   .     S
O1228  Cu1242  1.956   .     S
O1228  C1229   1.292   .     A
C1229  C1265   1.461   .     S
C1230  C1266   1.451   .     S
O1231  Cu1241  1.936   .     S
O1231  C1239   1.286   .     A
O1232  C1240   1.285   .     A
O1232  Cu1242  1.936   .     S
O1233  C1240   1.287   .     A
O1233  Cu1241  1.937   .     S
O1234  C1239   1.287   .     A
O1234  Cu1242  1.937   .     S
C1235  C1249   1.416   .     A
C1235  O1317   1.392   .     S
C1235  C1269   1.420   .     A
C1236  O1328   1.383   .     S
C1236  C1250   1.413   .     A
C1236  C1270   1.411   .     A
C1237  C1249   1.415   .     A
C1237  C1271   1.418   .     A
C1237  O1339   1.391   .     S
C1238  C1272   1.410   .     A
C1238  C1250   1.415   .     A
C1238  O1350   1.383   .     S
C1239  C1251   1.410   .     S
C1240  C1252   1.410   .     S
Cu1241 Cu1242  2.672   .     S
Cu1241 N1248   2.007   .     S
Cu1242 N1247   2.007   .     S
H1243  C1269   1.079   .     S
H1244  C1270   1.077   .     S
H1245  C1271   1.079   .     S
H1246  C1272   1.078   .     S
N1247  C1269   1.359   .     A
N1247  C1271   1.360   .     A
N1248  C1272   1.366   .     A
N1248  C1270   1.367   .     A
C1249  C1522   1.514   1_545 S
C1250  C1521   1.514   .     S
C1252  C163    1.191   1_556 S
C1253  O1273   1.381   .     S
C1253  C1257   1.392   .     A
C1253  C1267   1.414   .     A
C1254  C1268   1.414   .     A
C1254  O1284   1.384   .     S
C1254  C1258   1.387   .     A
C1255  C1268   1.420   .     A
C1255  C1259   1.414   .     A
C1255  O1295   1.403   .     S
C1256  C1260   1.392   .     A
C1256  O1306   1.383   .     S
C1256  C1267   1.415   .     A
C1257  H1261   1.083   .     S
C1257  C1265   1.398   .     A
C1258  C1266   1.389   .     A
C1258  H1262   1.084   .     S
C1259  H1263   1.080   .     S
C1259  C1266   1.395   .     A
C1260  C1265   1.398   .     A
C1260  H1264   1.083   .     S
C1268  C1131   1.478   1_655 S
O1273  C1274   1.408   .     S
C1274  H1276   1.117   .     S
C1274  C1277   1.528   .     S
H1275  C1138   1.113   1_655 S
C1277  H1279   1.112   .     S
H1278  C1141   1.112   1_655 S
C1280  H1283   1.109   .     S
C1280  H1282   1.111   .     S
C1280  C1141   1.522   1_655 S
C1280  H1145   1.110   1_655 S
O1284  C1285   1.415   .     S
C1285  H1287   1.113   .     S
C1285  H1286   1.110   .     S
C1285  C1288   1.540   .     S
C1288  H1290   1.112   .     S
C1288  H1289   1.110   .     S
C1291  H1292   1.109   .     S
C1291  H1293   1.110   .     S
C1291  H1294   1.107   .     S
C1291  C200    1.521   1_556 S
O1295  C1296   1.415   .     S
C1296  C1299   1.538   .     S
C1296  H1298   1.111   .     S
C1296  H1297   1.109   .     S
C1299  H1300   1.111   .     S
C1299  H1301   1.111   .     S
C1299  C1302   1.528   .     S
C1302  H1304   1.110   .     S
C1302  H1303   1.110   .     S
C1302  H1169   1.109   1_655 S
O1306  C1307   1.414   .     S
C1307  H1309   1.119   .     S
C1307  C1310   1.530   .     S
H1308  C1171   1.110   1_655 S
C1310  H1311   1.112   .     S
C1310  C1313   1.526   .     S
C1310  H1312   1.109   .     S
C1313  H1315   1.110   .     S
C1313  H1316   1.111   .     S
C1313  H1314   1.110   .     S
O1317  C1318   1.417   .     S
C1318  C1321   1.531   .     S
C1318  H1320   1.114   .     S
C1318  H1319   1.110   .     S
C1321  H1322   1.110   .     S
C1321  H1323   1.110   .     S
C1321  C236    1.526   1_556 S
C1324  H1327   1.109   .     S
C1324  H1326   1.109   .     S
C1324  H1325   1.111   .     S
O1328  C1329   1.416   .     S
C1329  H1331   1.118   .     S
C1329  C1332   1.532   .     S
C1329  H1602   1.111   .     S
H1330  C1601   1.111   1_545 S
C1332  H1333   1.112   .     S
C1332  H1334   1.110   .     S
C1332  C1335   1.525   .     S
C1335  H1336   1.111   .     S
C1335  H1337   1.110   .     S
C1335  H1338   1.110   .     S
O1339  C1340   1.418   .     S
C1340  H1342   1.116   .     S
C1340  C1343   1.532   .     S
C1340  H1341   1.111   .     S
C1343  H1345   1.110   .     S
C1343  H1344   1.111   .     S
C1346  H1348   1.108   .     S
C1346  H1349   1.109   .     S
C1346  H1347   1.111   .     S
C1346  C255    1.526   1_556 S
O1350  C1351   1.416   .     S
C1351  H1353   1.117   .     S
C1351  C1354   1.534   .     S
C1351  H1624   1.111   .     S
H1352  C1623   1.111   1_545 S
C1354  H1356   1.110   .     S
C1354  C1357   1.524   .     S
C1354  H1355   1.111   .     S
C1357  H1360   1.111   .     S
C1357  H1358   1.110   .     S
C1357  H1359   1.109   .     S
O1361  C1365   1.292   .     A
O1361  Cu1377  1.955   .     S
O1362  Cu1378  1.955   .     S
O1362  C1366   1.290   .     A
O1363  C1366   1.289   .     A
O1363  Cu1377  1.956   .     S
O1364  Cu1378  1.956   .     S
O1364  C1365   1.292   .     A
C1365  C1401   1.461   .     S
C1366  C1402   1.451   .     S
O1367  Cu1377  1.936   .     S
O1367  C1375   1.286   .     A
O1368  C1376   1.285   .     A
O1368  Cu1378  1.936   .     S
O1369  C1376   1.287   .     A
O1369  Cu1377  1.937   .     S
O1370  C1375   1.287   .     A
O1370  Cu1378  1.937   .     S
C1371  C1385   1.416   .     A
C1371  O1453   1.392   .     S
C1371  C1405   1.420   .     A
C1372  O1464   1.383   .     S
C1372  C1386   1.413   .     A
C1372  C1406   1.411   .     A
C1373  C1385   1.415   .     A
C1373  C1407   1.418   .     A
C1373  O1475   1.391   .     S
C1374  C1408   1.410   .     A
C1374  C1386   1.415   .     A
C1374  O1486   1.383   .     S
C1375  C1387   1.410   .     S
C1376  C1388   1.410   .     S
Cu1377 Cu1378  2.672   .     S
Cu1377 N1384   2.007   .     S
Cu1378 N1383   2.007   .     S
H1379  C1405   1.079   .     S
H1380  C1406   1.077   .     S
H1381  C1407   1.079   .     S
H1382  C1408   1.078   .     S
N1383  C1405   1.359   .     A
N1383  C1407   1.360   .     A
N1384  C1408   1.366   .     A
N1384  C1406   1.367   .     A
C1386  C1113   1.514   1_565 S
C1388  C299    1.191   1_556 S
C1389  O1409   1.381   .     S
C1389  C1393   1.392   .     A
C1389  C1403   1.414   .     A
C1390  C1404   1.414   .     A
C1390  O1420   1.384   .     S
C1390  C1394   1.387   .     A
C1391  C1404   1.420   .     A
C1391  C1395   1.414   .     A
C1391  O1431   1.403   .     S
C1392  C1396   1.392   .     A
C1392  O1442   1.383   .     S
C1392  C1403   1.415   .     A
C1393  H1397   1.083   .     S
C1393  C1401   1.398   .     A
C1394  C1402   1.389   .     A
C1394  H1398   1.084   .     S
C1395  H1399   1.080   .     S
C1395  C1402   1.395   .     A
C1396  C1401   1.398   .     A
C1396  H1400   1.083   .     S
C1403  C1540   1.478   1_455 S
C1404  C1539   1.478   .     S
O1409  C1410   1.408   .     S
C1410  H1412   1.117   .     S
C1410  C1413   1.528   .     S
C1410  H1547   1.113   1_455 S
H1411  C1546   1.113   .     S
C1413  H1415   1.112   .     S
C1413  H1550   1.112   1_455 S
C1413  C1552   1.522   1_455 S
H1414  C1549   1.112   .     S
C1416  H1419   1.109   .     S
C1416  H1418   1.111   .     S
C1416  C1549   1.522   .     S
C1416  H1553   1.110   .     S
H1417  C1552   1.110   1_455 S
O1420  C1421   1.415   .     S
C1421  H1423   1.113   .     S
C1421  H1422   1.110   .     S
C1421  C1424   1.540   .     S
C1424  H1426   1.112   .     S
C1424  H1425   1.110   .     S
C1427  H1428   1.109   .     S
C1427  H1429   1.110   .     S
C1427  H1430   1.107   .     S
C1427  C336    1.521   1_556 S
O1431  C1432   1.415   .     S
C1432  C1435   1.538   .     S
C1432  H1434   1.111   .     S
C1432  H1433   1.109   .     S
C1435  H1436   1.111   .     S
C1435  H1437   1.111   .     S
C1435  C1438   1.528   .     S
C1438  H1440   1.110   .     S
C1438  H1439   1.110   .     S
C1438  H1577   1.109   .     S
H1441  C1574   1.109   1_455 S
O1442  C1443   1.414   .     S
C1443  H1445   1.119   .     S
C1443  C1446   1.530   .     S
C1443  H1580   1.110   1_455 S
H1444  C1579   1.110   .     S
C1446  H1447   1.112   .     S
C1446  C1449   1.526   .     S
C1446  H1448   1.109   .     S
C1449  H1451   1.110   .     S
C1449  H1452   1.111   .     S
C1449  H1450   1.110   .     S
O1453  C1454   1.417   .     S
C1454  C1457   1.531   .     S
C1454  H1456   1.114   .     S
C1454  H1455   1.110   .     S
C1457  H1458   1.110   .     S
C1457  H1459   1.110   .     S
C1457  C372    1.526   1_556 S
C1460  H1463   1.109   .     S
C1460  H1462   1.109   .     S
C1460  H1461   1.111   .     S
O1464  C1465   1.416   .     S
C1465  H1467   1.118   .     S
C1465  C1468   1.532   .     S
C1465  H1194   1.111   1_565 S
C1468  H1469   1.112   .     S
C1468  H1470   1.110   .     S
C1468  C1471   1.525   .     S
C1471  H1472   1.111   .     S
C1471  H1473   1.110   .     S
C1471  H1474   1.110   .     S
O1475  C1476   1.418   .     S
C1476  H1478   1.116   .     S
C1476  C1479   1.532   .     S
C1476  H1477   1.111   .     S
C1479  H1481   1.110   .     S
C1479  H1480   1.111   .     S
C1482  H1484   1.108   .     S
C1482  H1485   1.109   .     S
C1482  H1483   1.111   .     S
C1482  C391    1.526   1_556 S
O1486  C1487   1.416   .     S
C1487  H1489   1.117   .     S
C1487  C1490   1.534   .     S
C1487  H1216   1.111   1_565 S
C1490  H1492   1.110   .     S
C1490  C1493   1.524   .     S
C1490  H1491   1.111   .     S
C1493  H1496   1.111   .     S
C1493  H1494   1.110   .     S
C1493  H1495   1.109   .     S
O1497  C1501   1.292   .     A
O1497  Cu1513  1.955   .     S
O1498  Cu1514  1.955   .     S
O1498  C1502   1.290   .     A
O1499  C1502   1.289   .     A
O1499  Cu1513  1.956   .     S
O1500  Cu1514  1.956   .     S
O1500  C1501   1.292   .     A
C1501  C1537   1.461   .     S
C1502  C1538   1.451   .     S
O1503  Cu1513  1.936   .     S
O1503  C1511   1.286   .     A
O1504  C1512   1.285   .     A
O1504  Cu1514  1.936   .     S
O1505  C1512   1.287   .     A
O1505  Cu1513  1.937   .     S
O1506  C1511   1.287   .     A
O1506  Cu1514  1.937   .     S
C1507  C1521   1.416   .     A
C1507  O1589   1.392   .     S
C1507  C1541   1.420   .     A
C1508  O1600   1.383   .     S
C1508  C1522   1.413   .     A
C1508  C1542   1.411   .     A
C1509  C1521   1.415   .     A
C1509  C1543   1.418   .     A
C1509  O1611   1.391   .     S
C1510  C1544   1.410   .     A
C1510  C1522   1.415   .     A
C1510  O1622   1.383   .     S
C1511  C1523   1.410   .     S
C1512  C1524   1.410   .     S
Cu1513 Cu1514  2.672   .     S
Cu1513 N1520   2.007   .     S
Cu1514 N1519   2.007   .     S
H1515  C1541   1.079   .     S
H1516  C1542   1.077   .     S
H1517  C1543   1.079   .     S
H1518  C1544   1.078   .     S
N1519  C1541   1.359   .     A
N1519  C1543   1.360   .     A
N1520  C1544   1.366   .     A
N1520  C1542   1.367   .     A
C1522  C1249   1.514   1_565 S
C1524  C435    1.191   1_556 S
C1525  O1545   1.381   .     S
C1525  C1529   1.392   .     A
C1525  C1539   1.414   .     A
C1526  C1540   1.414   .     A
C1526  O1556   1.384   .     S
C1526  C1530   1.387   .     A
C1527  C1540   1.420   .     A
C1527  C1531   1.414   .     A
C1527  O1567   1.403   .     S
C1528  C1532   1.392   .     A
C1528  O1578   1.383   .     S
C1528  C1539   1.415   .     A
C1529  H1533   1.083   .     S
C1529  C1537   1.398   .     A
C1530  C1538   1.389   .     A
C1530  H1534   1.084   .     S
C1531  H1535   1.080   .     S
C1531  C1538   1.395   .     A
C1532  C1537   1.398   .     A
C1532  H1536   1.083   .     S
C1540  C1403   1.478   1_655 S
O1545  C1546   1.408   .     S
C1546  H1548   1.117   .     S
C1546  C1549   1.528   .     S
H1547  C1410   1.113   1_655 S
C1549  H1551   1.112   .     S
H1550  C1413   1.112   1_655 S
C1552  H1555   1.109   .     S
C1552  H1554   1.111   .     S
C1552  C1413   1.522   1_655 S
C1552  H1417   1.110   1_655 S
O1556  C1557   1.415   .     S
C1557  H1559   1.113   .     S
C1557  H1558   1.110   .     S
C1557  C1560   1.540   .     S
C1560  H1562   1.112   .     S
C1560  H1561   1.110   .     S
C1563  H1564   1.109   .     S
C1563  H1565   1.110   .     S
C1563  H1566   1.107   .     S
C1563  C472    1.521   1_556 S
O1567  C1568   1.415   .     S
C1568  C1571   1.538   .     S
C1568  H1570   1.111   .     S
C1568  H1569   1.109   .     S
C1571  H1572   1.111   .     S
C1571  H1573   1.111   .     S
C1571  C1574   1.528   .     S
C1574  H1576   1.110   .     S
C1574  H1575   1.110   .     S
C1574  H1441   1.109   1_655 S
O1578  C1579   1.414   .     S
C1579  H1581   1.119   .     S
C1579  C1582   1.530   .     S
H1580  C1443   1.110   1_655 S
C1582  H1583   1.112   .     S
C1582  C1585   1.526   .     S
C1582  H1584   1.109   .     S
C1585  H1587   1.110   .     S
C1585  H1588   1.111   .     S
C1585  H1586   1.110   .     S
O1589  C1590   1.417   .     S
C1590  C1593   1.531   .     S
C1590  H1592   1.114   .     S
C1590  H1591   1.110   .     S
C1593  H1594   1.110   .     S
C1593  H1595   1.110   .     S
C1593  C508    1.526   1_556 S
C1596  H1599   1.109   .     S
C1596  H1598   1.109   .     S
C1596  H1597   1.111   .     S
O1600  C1601   1.416   .     S
C1601  H1603   1.118   .     S
C1601  C1604   1.532   .     S
C1601  H1330   1.111   1_565 S
C1604  H1605   1.112   .     S
C1604  H1606   1.110   .     S
C1604  C1607   1.525   .     S
C1607  H1608   1.111   .     S
C1607  H1609   1.110   .     S
C1607  H1610   1.110   .     S
O1611  C1612   1.418   .     S
C1612  H1614   1.116   .     S
C1612  C1615   1.532   .     S
C1612  H1613   1.111   .     S
C1615  H1617   1.110   .     S
C1615  H1616   1.111   .     S
C1618  H1620   1.108   .     S
C1618  H1621   1.109   .     S
C1618  H1619   1.111   .     S
C1618  C527    1.526   1_556 S
O1622  C1623   1.416   .     S
C1623  H1625   1.117   .     S
C1623  C1626   1.534   .     S
C1623  H1352   1.111   1_565 S
C1626  H1628   1.110   .     S
C1626  C1629   1.524   .     S
C1626  H1627   1.111   .     S
C1629  H1632   1.111   .     S
C1629  H1630   1.110   .     S
C1629  H1631   1.109   .     S
