data_str_m3_o1_o2_pcu_sym.29
_audit_creation_date              2020-01-03
_audit_creation_method            'Materials Studio'
_symmetry_space_group_name_H-M    'P1'
_symmetry_Int_Tables_number       1
_symmetry_cell_setting            triclinic
loop_
_symmetry_equiv_pos_as_xyz
  x,y,z
_cell_length_a                    31.5453
_cell_length_b                    30.1662
_cell_length_c                    29.8577
_cell_angle_alpha                 90.1308
_cell_angle_beta                  95.0619
_cell_angle_gamma                 89.8523
loop_
_atom_site_label
_atom_site_type_symbol
_atom_site_fract_x
_atom_site_fract_y
_atom_site_fract_z
_atom_site_U_iso_or_equiv
_atom_site_adp_type
_atom_site_occupancy
C1     C     0.08756   0.16665   0.25665   0.00000  Uiso   1.00
C2     C     0.31410   0.20561   0.24091   0.00000  Uiso   1.00
C3     C     0.31354   0.12439   0.24670   0.00000  Uiso   1.00
C4     C     0.02096   0.20631   0.26427   0.00000  Uiso   1.00
C5     C     0.17483   0.20382   0.04644   0.00000  Uiso   1.00
C6     C     0.14670   0.13115   0.45251   0.00000  Uiso   1.00
C7     C     0.14540   0.21149   0.44941   0.00000  Uiso   1.00
C8     C     0.12583   0.14180   0.04605   0.00000  Uiso   1.00
C9     C     0.18145   0.20120   0.09280   0.00000  Uiso   1.00
C10    C     0.15140   0.12937   0.40706   0.00000  Uiso   1.00
C11    C     0.15101   0.20959   0.40404   0.00000  Uiso   1.00
C12    C     0.24646   0.16642   0.24522   0.00000  Uiso   1.00
C13    C     0.13354   0.13849   0.09208   0.00000  Uiso   1.00
C14    C     0.16149   0.16784   0.11556   0.00000  Uiso   1.00
C15    C     0.15621   0.16845   0.38303   0.00000  Uiso   1.00
C16    C     0.14728   0.17373   0.02287   0.00000  Uiso   1.00
C17    C     0.14499   0.17225   0.47414   0.00000  Uiso   1.00
C18    C     0.29186   0.16525   0.23968   0.00000  Uiso   1.00
C19    C     0.04352   0.16624   0.26763   0.00000  Uiso   1.00
C20    C     0.20254   0.04105   0.32947   0.00000  Uiso   1.00
C21    C     0.24355   0.06876   0.33742   0.00000  Uiso   1.00
C22    C     0.25576   0.07685   0.38742   0.00000  Uiso   1.00
C23    C     0.16620   0.16676   0.16400   0.00000  Uiso   1.00
C24    C     0.09535   0.28965   0.20232   0.00000  Uiso   1.00
C25    C     0.09854   0.26201   0.15924   0.00000  Uiso   1.00
C26    C     0.06294   0.27159   0.12244   0.00000  Uiso   1.00
C27    C     0.12371   0.04344   0.17341   0.00000  Uiso   1.00
C28    C     0.08227   0.07023   0.17641   0.00000  Uiso   1.00
C29    C     0.04811   0.06074   0.13799   0.00000  Uiso   1.00
C30    C     0.23881   0.29025   0.29592   0.00000  Uiso   1.00
C31    C     0.23730   0.26281   0.33914   0.00000  Uiso   1.00
C32    C     0.27540   0.27136   0.37323   0.00000  Uiso   1.00
C33    C     0.04308   0.08650   0.29075   0.00000  Uiso   1.00
C34    C     0.16450   0.16691   0.33587   0.00000  Uiso   1.00
C35    C     0.29974   0.24240   0.20948   0.00000  Uiso   1.00
C36    C     0.29441   0.08349   0.22530   0.00000  Uiso   1.00
C37    C     0.03622   0.24527   0.29230   0.00000  Uiso   1.00
C38    C     0.19119   0.02335   0.28211   0.00000  Uiso   1.00
C39    C     0.13705   0.30983   0.22293   0.00000  Uiso   1.00
C40    C     0.14220   0.02335   0.21776   0.00000  Uiso   1.00
C41    C     0.19655   0.30993   0.27653   0.00000  Uiso   1.00
C42    C     0.02213   0.12526   0.26646   0.00000  Uiso   1.00
H43    H     0.19226   0.22832   0.02903   0.00000  Uiso   1.00
H44    H     0.25971   0.04509   0.40598   0.00000  Uiso   1.00
H45    H     0.28634   0.09519   0.39171   0.00000  Uiso   1.00
H46    H     0.27070   0.05203   0.32363   0.00000  Uiso   1.00
H47    H     0.23974   0.10146   0.32168   0.00000  Uiso   1.00
H48    H     0.17445   0.05782   0.34019   0.00000  Uiso   1.00
H49    H     0.20562   0.01302   0.35346   0.00000  Uiso   1.00
H50    H     0.03134   0.26953   0.13592   0.00000  Uiso   1.00
H51    H     0.06710   0.30474   0.10760   0.00000  Uiso   1.00
H52    H     0.06412   0.24667   0.09513   0.00000  Uiso   1.00
H53    H     0.12942   0.26796   0.14506   0.00000  Uiso   1.00
H54    H     0.14638   0.10030   0.47096   0.00000  Uiso   1.00
H55    H     0.09530   0.22652   0.16760   0.00000  Uiso   1.00
H56    H     0.08000   0.27133   0.22784   0.00000  Uiso   1.00
H57    H     0.07137   0.31613   0.19540   0.00000  Uiso   1.00
H58    H     0.06182   0.06038   0.10501   0.00000  Uiso   1.00
H59    H     0.03244   0.02857   0.14329   0.00000  Uiso   1.00
H60    H     0.02323   0.08691   0.13727   0.00000  Uiso   1.00
H61    H     0.06843   0.06296   0.20824   0.00000  Uiso   1.00
H62    H     0.08919   0.10605   0.17524   0.00000  Uiso   1.00
H63    H     0.14853   0.06151   0.15755   0.00000  Uiso   1.00
H64    H     0.11763   0.01682   0.14810   0.00000  Uiso   1.00
H65    H     0.14263   0.24351   0.46541   0.00000  Uiso   1.00
H66    H     0.30525   0.26060   0.35940   0.00000  Uiso   1.00
H67    H     0.27768   0.30701   0.38212   0.00000  Uiso   1.00
H68    H     0.27169   0.25213   0.40431   0.00000  Uiso   1.00
H69    H     0.20793   0.27037   0.35541   0.00000  Uiso   1.00
H70    H     0.23827   0.22708   0.33092   0.00000  Uiso   1.00
H71    H     0.25377   0.27210   0.26987   0.00000  Uiso   1.00
H72    H     0.26214   0.31722   0.30243   0.00000  Uiso   1.00
H73    H     0.08500   0.06603   0.34157   0.00000  Uiso   1.00
H74    H     0.25752   0.26404   0.15959   0.00000  Uiso   1.00
H75    H     0.26345   0.05648   0.16983   0.00000  Uiso   1.00
H76    H     0.10376   0.11889   0.02849   0.00000  Uiso   1.00
H77    H     0.07993   0.26993   0.33927   0.00000  Uiso   1.00
H78    H     0.20252   0.22472   0.11075   0.00000  Uiso   1.00
H79    H     0.15225   0.09733   0.39156   0.00000  Uiso   1.00
H80    H     0.15147   0.24042   0.38575   0.00000  Uiso   1.00
H81    H     0.11685   0.11367   0.10907   0.00000  Uiso   1.00
H82    H     0.23117   0.09704   0.40221   0.00000  Uiso   1.00
N83    N     0.16667   0.28573   0.25000   0.00000  Uiso   1.00
N84    N     0.16667   0.04760   0.25000   0.00000  Uiso   1.00
O85    O     0.10559   0.20487   0.25000   0.00000  Uiso   1.00
O86    O     0.07228   0.09436   0.32794   0.00000  Uiso   1.00
O87    O     0.32057   0.27639   0.20798   0.00000  Uiso   1.00
O88    O     0.26374   0.23698   0.17917   0.00000  Uiso   1.00
O89    O     0.29232   0.04905   0.24633   0.00000  Uiso   1.00
O90    O     0.27644   0.08568   0.18084   0.00000  Uiso   1.00
O91    O     0.01557   0.27963   0.29182   0.00000  Uiso   1.00
O92    O     0.07307   0.24161   0.32178   0.00000  Uiso   1.00
O93    O     0.22774   0.12846   0.25001   0.00000  Uiso   1.00
O94    O     0.22774   0.20487   0.25001   0.00000  Uiso   1.00
O95    O     0.10559   0.12846   0.25000   0.00000  Uiso   1.00
O96    O     0.16666   0.20489   0.18453   0.00000  Uiso   1.00
O97    O     0.16667   0.12845   0.31547   0.00000  Uiso   1.00
O98    O     0.16667   0.20489   0.31547   0.00000  Uiso   1.00
O99    O     0.16666   0.12845   0.18453   0.00000  Uiso   1.00
O100   O     0.03560   0.04838   0.27882   0.00000  Uiso   1.00
Zn101  Zn    0.16667   0.21771   0.25000   0.00000  Uiso   1.00
Zn102  Zn    0.16667   0.11563   0.25000   0.00000  Uiso   1.00
C103   C     0.42089   0.16665   0.25665   0.00000  Uiso   1.00
C104   C     0.64743   0.20561   0.24091   0.00000  Uiso   1.00
C105   C     0.64687   0.12439   0.24670   0.00000  Uiso   1.00
C106   C     0.35429   0.20631   0.26427   0.00000  Uiso   1.00
C107   C     0.50817   0.20382   0.04644   0.00000  Uiso   1.00
C108   C     0.48003   0.13115   0.45251   0.00000  Uiso   1.00
C109   C     0.47874   0.21149   0.44941   0.00000  Uiso   1.00
C110   C     0.45916   0.14180   0.04605   0.00000  Uiso   1.00
C111   C     0.51479   0.20120   0.09280   0.00000  Uiso   1.00
C112   C     0.48473   0.12937   0.40706   0.00000  Uiso   1.00
C113   C     0.48434   0.20959   0.40404   0.00000  Uiso   1.00
C114   C     0.57980   0.16642   0.24522   0.00000  Uiso   1.00
C115   C     0.46687   0.13849   0.09208   0.00000  Uiso   1.00
C116   C     0.49483   0.16784   0.11556   0.00000  Uiso   1.00
C117   C     0.48955   0.16845   0.38303   0.00000  Uiso   1.00
C118   C     0.48061   0.17373   0.02287   0.00000  Uiso   1.00
C119   C     0.47832   0.17225   0.47414   0.00000  Uiso   1.00
C120   C     0.62519   0.16525   0.23968   0.00000  Uiso   1.00
C121   C     0.37685   0.16624   0.26763   0.00000  Uiso   1.00
C122   C     0.53587   0.04105   0.32947   0.00000  Uiso   1.00
C123   C     0.57689   0.06876   0.33742   0.00000  Uiso   1.00
C124   C     0.58910   0.07685   0.38742   0.00000  Uiso   1.00
C125   C     0.49954   0.16676   0.16400   0.00000  Uiso   1.00
C126   C     0.42868   0.28965   0.20232   0.00000  Uiso   1.00
C127   C     0.43187   0.26201   0.15924   0.00000  Uiso   1.00
C128   C     0.39627   0.27159   0.12244   0.00000  Uiso   1.00
C129   C     0.45704   0.04344   0.17341   0.00000  Uiso   1.00
C130   C     0.41560   0.07023   0.17641   0.00000  Uiso   1.00
C131   C     0.38144   0.06074   0.13799   0.00000  Uiso   1.00
C132   C     0.57214   0.29025   0.29592   0.00000  Uiso   1.00
C133   C     0.57063   0.26281   0.33914   0.00000  Uiso   1.00
C134   C     0.60874   0.27136   0.37323   0.00000  Uiso   1.00
C135   C     0.37641   0.08650   0.29075   0.00000  Uiso   1.00
C136   C     0.49783   0.16691   0.33587   0.00000  Uiso   1.00
C137   C     0.63308   0.24240   0.20948   0.00000  Uiso   1.00
C138   C     0.62774   0.08349   0.22530   0.00000  Uiso   1.00
C139   C     0.36955   0.24527   0.29230   0.00000  Uiso   1.00
C140   C     0.52452   0.02335   0.28211   0.00000  Uiso   1.00
C141   C     0.47039   0.30983   0.22293   0.00000  Uiso   1.00
C142   C     0.47553   0.02335   0.21776   0.00000  Uiso   1.00
C143   C     0.52989   0.30993   0.27653   0.00000  Uiso   1.00
C144   C     0.35546   0.12526   0.26646   0.00000  Uiso   1.00
H145   H     0.52560   0.22832   0.02903   0.00000  Uiso   1.00
H146   H     0.59305   0.04509   0.40598   0.00000  Uiso   1.00
H147   H     0.61967   0.09519   0.39171   0.00000  Uiso   1.00
H148   H     0.60403   0.05203   0.32363   0.00000  Uiso   1.00
H149   H     0.57307   0.10146   0.32168   0.00000  Uiso   1.00
H150   H     0.50779   0.05782   0.34019   0.00000  Uiso   1.00
H151   H     0.53895   0.01302   0.35346   0.00000  Uiso   1.00
H152   H     0.36467   0.26953   0.13592   0.00000  Uiso   1.00
H153   H     0.40043   0.30474   0.10760   0.00000  Uiso   1.00
H154   H     0.39746   0.24667   0.09513   0.00000  Uiso   1.00
H155   H     0.46276   0.26796   0.14506   0.00000  Uiso   1.00
H156   H     0.47972   0.10030   0.47096   0.00000  Uiso   1.00
H157   H     0.42863   0.22652   0.16760   0.00000  Uiso   1.00
H158   H     0.41333   0.27133   0.22784   0.00000  Uiso   1.00
H159   H     0.40471   0.31613   0.19540   0.00000  Uiso   1.00
H160   H     0.39515   0.06038   0.10501   0.00000  Uiso   1.00
H161   H     0.36577   0.02857   0.14329   0.00000  Uiso   1.00
H162   H     0.35656   0.08691   0.13727   0.00000  Uiso   1.00
H163   H     0.40177   0.06296   0.20824   0.00000  Uiso   1.00
H164   H     0.42252   0.10605   0.17524   0.00000  Uiso   1.00
H165   H     0.48187   0.06151   0.15755   0.00000  Uiso   1.00
H166   H     0.45096   0.01682   0.14810   0.00000  Uiso   1.00
H167   H     0.47596   0.24351   0.46541   0.00000  Uiso   1.00
H168   H     0.63859   0.26060   0.35940   0.00000  Uiso   1.00
H169   H     0.61101   0.30701   0.38212   0.00000  Uiso   1.00
H170   H     0.60503   0.25213   0.40431   0.00000  Uiso   1.00
H171   H     0.54126   0.27037   0.35541   0.00000  Uiso   1.00
H172   H     0.57161   0.22708   0.33092   0.00000  Uiso   1.00
H173   H     0.58711   0.27210   0.26987   0.00000  Uiso   1.00
H174   H     0.59547   0.31722   0.30243   0.00000  Uiso   1.00
H175   H     0.41834   0.06603   0.34157   0.00000  Uiso   1.00
H176   H     0.59086   0.26404   0.15959   0.00000  Uiso   1.00
H177   H     0.59678   0.05648   0.16983   0.00000  Uiso   1.00
H178   H     0.43709   0.11889   0.02849   0.00000  Uiso   1.00
H179   H     0.41326   0.26993   0.33927   0.00000  Uiso   1.00
H180   H     0.53585   0.22472   0.11075   0.00000  Uiso   1.00
H181   H     0.48558   0.09733   0.39156   0.00000  Uiso   1.00
H182   H     0.48481   0.24042   0.38575   0.00000  Uiso   1.00
H183   H     0.45019   0.11367   0.10907   0.00000  Uiso   1.00
H184   H     0.56450   0.09704   0.40221   0.00000  Uiso   1.00
N185   N     0.50000   0.28573   0.25000   0.00000  Uiso   1.00
N186   N     0.50000   0.04760   0.25000   0.00000  Uiso   1.00
O187   O     0.43892   0.20487   0.25000   0.00000  Uiso   1.00
O188   O     0.40562   0.09436   0.32794   0.00000  Uiso   1.00
O189   O     0.65390   0.27639   0.20798   0.00000  Uiso   1.00
O190   O     0.59707   0.23698   0.17917   0.00000  Uiso   1.00
O191   O     0.62565   0.04905   0.24633   0.00000  Uiso   1.00
O192   O     0.60977   0.08568   0.18084   0.00000  Uiso   1.00
O193   O     0.34890   0.27963   0.29182   0.00000  Uiso   1.00
O194   O     0.40640   0.24161   0.32178   0.00000  Uiso   1.00
O195   O     0.56108   0.12846   0.25001   0.00000  Uiso   1.00
O196   O     0.56108   0.20487   0.25001   0.00000  Uiso   1.00
O197   O     0.43892   0.12846   0.25000   0.00000  Uiso   1.00
O198   O     0.50000   0.20489   0.18453   0.00000  Uiso   1.00
O199   O     0.50000   0.12845   0.31547   0.00000  Uiso   1.00
O200   O     0.50000   0.20489   0.31547   0.00000  Uiso   1.00
O201   O     0.50000   0.12845   0.18453   0.00000  Uiso   1.00
O202   O     0.36893   0.04838   0.27882   0.00000  Uiso   1.00
Zn203  Zn    0.50000   0.21771   0.25000   0.00000  Uiso   1.00
Zn204  Zn    0.50000   0.11563   0.25000   0.00000  Uiso   1.00
C205   C     0.75423   0.16665   0.25665   0.00000  Uiso   1.00
C206   C     0.98077   0.20561   0.24091   0.00000  Uiso   1.00
C207   C     0.98021   0.12439   0.24670   0.00000  Uiso   1.00
C208   C     0.68762   0.20631   0.26427   0.00000  Uiso   1.00
C209   C     0.84150   0.20382   0.04644   0.00000  Uiso   1.00
C210   C     0.81337   0.13115   0.45251   0.00000  Uiso   1.00
C211   C     0.81207   0.21149   0.44941   0.00000  Uiso   1.00
C212   C     0.79250   0.14180   0.04605   0.00000  Uiso   1.00
C213   C     0.84812   0.20120   0.09280   0.00000  Uiso   1.00
C214   C     0.81806   0.12937   0.40706   0.00000  Uiso   1.00
C215   C     0.81768   0.20959   0.40404   0.00000  Uiso   1.00
C216   C     0.91313   0.16642   0.24522   0.00000  Uiso   1.00
C217   C     0.80020   0.13849   0.09208   0.00000  Uiso   1.00
C218   C     0.82816   0.16784   0.11556   0.00000  Uiso   1.00
C219   C     0.82288   0.16845   0.38303   0.00000  Uiso   1.00
C220   C     0.81395   0.17373   0.02287   0.00000  Uiso   1.00
C221   C     0.81165   0.17225   0.47414   0.00000  Uiso   1.00
C222   C     0.95853   0.16525   0.23968   0.00000  Uiso   1.00
C223   C     0.71019   0.16624   0.26763   0.00000  Uiso   1.00
C224   C     0.86920   0.04105   0.32947   0.00000  Uiso   1.00
C225   C     0.91022   0.06876   0.33742   0.00000  Uiso   1.00
C226   C     0.92243   0.07685   0.38742   0.00000  Uiso   1.00
C227   C     0.83287   0.16676   0.16400   0.00000  Uiso   1.00
C228   C     0.76202   0.28965   0.20232   0.00000  Uiso   1.00
C229   C     0.76520   0.26201   0.15924   0.00000  Uiso   1.00
C230   C     0.72961   0.27159   0.12244   0.00000  Uiso   1.00
C231   C     0.79037   0.04344   0.17341   0.00000  Uiso   1.00
C232   C     0.74894   0.07023   0.17641   0.00000  Uiso   1.00
C233   C     0.71477   0.06074   0.13799   0.00000  Uiso   1.00
C234   C     0.90548   0.29025   0.29592   0.00000  Uiso   1.00
C235   C     0.90396   0.26281   0.33914   0.00000  Uiso   1.00
C236   C     0.94207   0.27136   0.37323   0.00000  Uiso   1.00
C237   C     0.70974   0.08650   0.29075   0.00000  Uiso   1.00
C238   C     0.83117   0.16691   0.33587   0.00000  Uiso   1.00
C239   C     0.96641   0.24240   0.20948   0.00000  Uiso   1.00
C240   C     0.96108   0.08349   0.22530   0.00000  Uiso   1.00
C241   C     0.70289   0.24527   0.29230   0.00000  Uiso   1.00
C242   C     0.85786   0.02335   0.28211   0.00000  Uiso   1.00
C243   C     0.80372   0.30983   0.22293   0.00000  Uiso   1.00
C244   C     0.80886   0.02335   0.21776   0.00000  Uiso   1.00
C245   C     0.86322   0.30993   0.27653   0.00000  Uiso   1.00
C246   C     0.68880   0.12526   0.26646   0.00000  Uiso   1.00
H247   H     0.85893   0.22832   0.02903   0.00000  Uiso   1.00
H248   H     0.92638   0.04509   0.40598   0.00000  Uiso   1.00
H249   H     0.95301   0.09519   0.39171   0.00000  Uiso   1.00
H250   H     0.93736   0.05203   0.32363   0.00000  Uiso   1.00
H251   H     0.90641   0.10146   0.32168   0.00000  Uiso   1.00
H252   H     0.84112   0.05782   0.34019   0.00000  Uiso   1.00
H253   H     0.87228   0.01302   0.35346   0.00000  Uiso   1.00
H254   H     0.69800   0.26953   0.13592   0.00000  Uiso   1.00
H255   H     0.73376   0.30474   0.10760   0.00000  Uiso   1.00
H256   H     0.73079   0.24667   0.09513   0.00000  Uiso   1.00
H257   H     0.79609   0.26796   0.14506   0.00000  Uiso   1.00
H258   H     0.81305   0.10030   0.47096   0.00000  Uiso   1.00
H259   H     0.76196   0.22652   0.16760   0.00000  Uiso   1.00
H260   H     0.74667   0.27133   0.22784   0.00000  Uiso   1.00
H261   H     0.73804   0.31613   0.19540   0.00000  Uiso   1.00
H262   H     0.72849   0.06038   0.10501   0.00000  Uiso   1.00
H263   H     0.69910   0.02857   0.14329   0.00000  Uiso   1.00
H264   H     0.68990   0.08691   0.13727   0.00000  Uiso   1.00
H265   H     0.73510   0.06296   0.20824   0.00000  Uiso   1.00
H266   H     0.75586   0.10605   0.17524   0.00000  Uiso   1.00
H267   H     0.81520   0.06151   0.15755   0.00000  Uiso   1.00
H268   H     0.78430   0.01682   0.14810   0.00000  Uiso   1.00
H269   H     0.80930   0.24351   0.46541   0.00000  Uiso   1.00
H270   H     0.97192   0.26060   0.35940   0.00000  Uiso   1.00
H271   H     0.94435   0.30701   0.38212   0.00000  Uiso   1.00
H272   H     0.93836   0.25213   0.40431   0.00000  Uiso   1.00
H273   H     0.87460   0.27037   0.35541   0.00000  Uiso   1.00
H274   H     0.90494   0.22708   0.33092   0.00000  Uiso   1.00
H275   H     0.92044   0.27210   0.26987   0.00000  Uiso   1.00
H276   H     0.92881   0.31722   0.30243   0.00000  Uiso   1.00
H277   H     0.75167   0.06603   0.34157   0.00000  Uiso   1.00
H278   H     0.92419   0.26404   0.15959   0.00000  Uiso   1.00
H279   H     0.93012   0.05648   0.16983   0.00000  Uiso   1.00
H280   H     0.77042   0.11889   0.02849   0.00000  Uiso   1.00
H281   H     0.74660   0.26993   0.33927   0.00000  Uiso   1.00
H282   H     0.86919   0.22472   0.11075   0.00000  Uiso   1.00
H283   H     0.81892   0.09733   0.39156   0.00000  Uiso   1.00
H284   H     0.81814   0.24042   0.38575   0.00000  Uiso   1.00
H285   H     0.78352   0.11367   0.10907   0.00000  Uiso   1.00
H286   H     0.89784   0.09704   0.40221   0.00000  Uiso   1.00
N287   N     0.83333   0.28573   0.25000   0.00000  Uiso   1.00
N288   N     0.83333   0.04760   0.25000   0.00000  Uiso   1.00
O289   O     0.77226   0.20487   0.25000   0.00000  Uiso   1.00
O290   O     0.73895   0.09436   0.32794   0.00000  Uiso   1.00
O291   O     0.98724   0.27639   0.20798   0.00000  Uiso   1.00
O292   O     0.93040   0.23698   0.17917   0.00000  Uiso   1.00
O293   O     0.95898   0.04905   0.24633   0.00000  Uiso   1.00
O294   O     0.94310   0.08568   0.18084   0.00000  Uiso   1.00
O295   O     0.68223   0.27963   0.29182   0.00000  Uiso   1.00
O296   O     0.73974   0.24161   0.32178   0.00000  Uiso   1.00
O297   O     0.89441   0.12846   0.25001   0.00000  Uiso   1.00
O298   O     0.89441   0.20487   0.25001   0.00000  Uiso   1.00
O299   O     0.77226   0.12846   0.25000   0.00000  Uiso   1.00
O300   O     0.83333   0.20489   0.18453   0.00000  Uiso   1.00
O301   O     0.83334   0.12845   0.31547   0.00000  Uiso   1.00
O302   O     0.83334   0.20489   0.31547   0.00000  Uiso   1.00
O303   O     0.83333   0.12845   0.18453   0.00000  Uiso   1.00
O304   O     0.70226   0.04838   0.27882   0.00000  Uiso   1.00
Zn305  Zn    0.83333   0.21771   0.25000   0.00000  Uiso   1.00
Zn306  Zn    0.83333   0.11563   0.25000   0.00000  Uiso   1.00
C307   C     0.08756   0.49998   0.25665   0.00000  Uiso   1.00
C308   C     0.31410   0.53894   0.24091   0.00000  Uiso   1.00
C309   C     0.31354   0.45772   0.24670   0.00000  Uiso   1.00
C310   C     0.02096   0.53964   0.26427   0.00000  Uiso   1.00
C311   C     0.17483   0.53716   0.04644   0.00000  Uiso   1.00
C312   C     0.14670   0.46448   0.45251   0.00000  Uiso   1.00
C313   C     0.14540   0.54482   0.44941   0.00000  Uiso   1.00
C314   C     0.12583   0.47514   0.04605   0.00000  Uiso   1.00
C315   C     0.18145   0.53454   0.09280   0.00000  Uiso   1.00
C316   C     0.15140   0.46270   0.40706   0.00000  Uiso   1.00
C317   C     0.15101   0.54293   0.40404   0.00000  Uiso   1.00
C318   C     0.24646   0.49976   0.24522   0.00000  Uiso   1.00
C319   C     0.13354   0.47182   0.09208   0.00000  Uiso   1.00
C320   C     0.16149   0.50117   0.11556   0.00000  Uiso   1.00
C321   C     0.15621   0.50178   0.38303   0.00000  Uiso   1.00
C322   C     0.14728   0.50707   0.02287   0.00000  Uiso   1.00
C323   C     0.14499   0.50558   0.47414   0.00000  Uiso   1.00
C324   C     0.29186   0.49859   0.23968   0.00000  Uiso   1.00
C325   C     0.04352   0.49957   0.26763   0.00000  Uiso   1.00
C326   C     0.20254   0.37438   0.32947   0.00000  Uiso   1.00
C327   C     0.24355   0.40210   0.33742   0.00000  Uiso   1.00
C328   C     0.25576   0.41018   0.38742   0.00000  Uiso   1.00
C329   C     0.16620   0.50010   0.16400   0.00000  Uiso   1.00
C330   C     0.09535   0.62298   0.20232   0.00000  Uiso   1.00
C331   C     0.09854   0.59535   0.15924   0.00000  Uiso   1.00
C332   C     0.06294   0.60493   0.12244   0.00000  Uiso   1.00
C333   C     0.12371   0.37677   0.17341   0.00000  Uiso   1.00
C334   C     0.08227   0.40356   0.17641   0.00000  Uiso   1.00
C335   C     0.04811   0.39407   0.13799   0.00000  Uiso   1.00
C336   C     0.23881   0.62358   0.29592   0.00000  Uiso   1.00
C337   C     0.23730   0.59614   0.33914   0.00000  Uiso   1.00
C338   C     0.27540   0.60469   0.37323   0.00000  Uiso   1.00
C339   C     0.04308   0.41984   0.29075   0.00000  Uiso   1.00
C340   C     0.16450   0.50025   0.33587   0.00000  Uiso   1.00
C341   C     0.29974   0.57573   0.20948   0.00000  Uiso   1.00
C342   C     0.29441   0.41683   0.22530   0.00000  Uiso   1.00
C343   C     0.03622   0.57860   0.29230   0.00000  Uiso   1.00
C344   C     0.19119   0.35668   0.28211   0.00000  Uiso   1.00
C345   C     0.13705   0.64316   0.22293   0.00000  Uiso   1.00
C346   C     0.14220   0.35668   0.21776   0.00000  Uiso   1.00
C347   C     0.19655   0.64326   0.27653   0.00000  Uiso   1.00
C348   C     0.02213   0.45859   0.26646   0.00000  Uiso   1.00
H349   H     0.19226   0.56165   0.02903   0.00000  Uiso   1.00
H350   H     0.25971   0.37843   0.40598   0.00000  Uiso   1.00
H351   H     0.28634   0.42852   0.39171   0.00000  Uiso   1.00
H352   H     0.27070   0.38536   0.32363   0.00000  Uiso   1.00
H353   H     0.23974   0.43479   0.32168   0.00000  Uiso   1.00
H354   H     0.17445   0.39115   0.34019   0.00000  Uiso   1.00
H355   H     0.20562   0.34636   0.35346   0.00000  Uiso   1.00
H356   H     0.03134   0.60287   0.13592   0.00000  Uiso   1.00
H357   H     0.06710   0.63807   0.10760   0.00000  Uiso   1.00
H358   H     0.06412   0.58000   0.09513   0.00000  Uiso   1.00
H359   H     0.12942   0.60129   0.14506   0.00000  Uiso   1.00
H360   H     0.14638   0.43363   0.47096   0.00000  Uiso   1.00
H361   H     0.09530   0.55985   0.16760   0.00000  Uiso   1.00
H362   H     0.08000   0.60466   0.22784   0.00000  Uiso   1.00
H363   H     0.07137   0.64946   0.19540   0.00000  Uiso   1.00
H364   H     0.06182   0.39371   0.10501   0.00000  Uiso   1.00
H365   H     0.03244   0.36190   0.14329   0.00000  Uiso   1.00
H366   H     0.02323   0.42024   0.13727   0.00000  Uiso   1.00
H367   H     0.06843   0.39630   0.20824   0.00000  Uiso   1.00
H368   H     0.08919   0.43938   0.17524   0.00000  Uiso   1.00
H369   H     0.14853   0.39484   0.15755   0.00000  Uiso   1.00
H370   H     0.11763   0.35016   0.14810   0.00000  Uiso   1.00
H371   H     0.14263   0.57684   0.46541   0.00000  Uiso   1.00
H372   H     0.30525   0.59393   0.35940   0.00000  Uiso   1.00
H373   H     0.27768   0.64034   0.38212   0.00000  Uiso   1.00
H374   H     0.27169   0.58547   0.40431   0.00000  Uiso   1.00
H375   H     0.20793   0.60371   0.35541   0.00000  Uiso   1.00
H376   H     0.23827   0.56041   0.33092   0.00000  Uiso   1.00
H377   H     0.25377   0.60543   0.26987   0.00000  Uiso   1.00
H378   H     0.26214   0.65055   0.30243   0.00000  Uiso   1.00
H379   H     0.08500   0.39936   0.34157   0.00000  Uiso   1.00
H380   H     0.25752   0.59738   0.15959   0.00000  Uiso   1.00
H381   H     0.26345   0.38982   0.16983   0.00000  Uiso   1.00
H382   H     0.10376   0.45223   0.02849   0.00000  Uiso   1.00
H383   H     0.07993   0.60326   0.33927   0.00000  Uiso   1.00
H384   H     0.20252   0.55805   0.11075   0.00000  Uiso   1.00
H385   H     0.15225   0.43066   0.39156   0.00000  Uiso   1.00
H386   H     0.15147   0.57375   0.38575   0.00000  Uiso   1.00
H387   H     0.11685   0.44701   0.10907   0.00000  Uiso   1.00
H388   H     0.23117   0.43037   0.40221   0.00000  Uiso   1.00
N389   N     0.16667   0.61907   0.25000   0.00000  Uiso   1.00
N390   N     0.16667   0.38093   0.25000   0.00000  Uiso   1.00
O391   O     0.10559   0.53821   0.25000   0.00000  Uiso   1.00
O392   O     0.07228   0.42770   0.32794   0.00000  Uiso   1.00
O393   O     0.32057   0.60972   0.20798   0.00000  Uiso   1.00
O394   O     0.26374   0.57031   0.17917   0.00000  Uiso   1.00
O395   O     0.29232   0.38238   0.24633   0.00000  Uiso   1.00
O396   O     0.27644   0.41901   0.18084   0.00000  Uiso   1.00
O397   O     0.01557   0.61296   0.29182   0.00000  Uiso   1.00
O398   O     0.07307   0.57495   0.32178   0.00000  Uiso   1.00
O399   O     0.22774   0.46179   0.25001   0.00000  Uiso   1.00
O400   O     0.22774   0.53821   0.25001   0.00000  Uiso   1.00
O401   O     0.10559   0.46179   0.25000   0.00000  Uiso   1.00
O402   O     0.16666   0.53822   0.18453   0.00000  Uiso   1.00
O403   O     0.16667   0.46178   0.31547   0.00000  Uiso   1.00
O404   O     0.16667   0.53822   0.31547   0.00000  Uiso   1.00
O405   O     0.16666   0.46178   0.18453   0.00000  Uiso   1.00
O406   O     0.03560   0.38171   0.27882   0.00000  Uiso   1.00
Zn407  Zn    0.16667   0.55104   0.25000   0.00000  Uiso   1.00
Zn408  Zn    0.16667   0.44896   0.25000   0.00000  Uiso   1.00
C409   C     0.42089   0.49998   0.25665   0.00000  Uiso   1.00
C410   C     0.64743   0.53894   0.24091   0.00000  Uiso   1.00
C411   C     0.64687   0.45772   0.24670   0.00000  Uiso   1.00
C412   C     0.35429   0.53964   0.26427   0.00000  Uiso   1.00
C413   C     0.50817   0.53716   0.04644   0.00000  Uiso   1.00
C414   C     0.48003   0.46448   0.45251   0.00000  Uiso   1.00
C415   C     0.47874   0.54482   0.44941   0.00000  Uiso   1.00
C416   C     0.45916   0.47514   0.04605   0.00000  Uiso   1.00
C417   C     0.51479   0.53454   0.09280   0.00000  Uiso   1.00
C418   C     0.48473   0.46270   0.40706   0.00000  Uiso   1.00
C419   C     0.48434   0.54293   0.40404   0.00000  Uiso   1.00
C420   C     0.57980   0.49976   0.24522   0.00000  Uiso   1.00
C421   C     0.46687   0.47182   0.09208   0.00000  Uiso   1.00
C422   C     0.49483   0.50117   0.11556   0.00000  Uiso   1.00
C423   C     0.48955   0.50178   0.38303   0.00000  Uiso   1.00
C424   C     0.48061   0.50707   0.02287   0.00000  Uiso   1.00
C425   C     0.47832   0.50558   0.47414   0.00000  Uiso   1.00
C426   C     0.62519   0.49859   0.23968   0.00000  Uiso   1.00
C427   C     0.37685   0.49957   0.26763   0.00000  Uiso   1.00
C428   C     0.53587   0.37438   0.32947   0.00000  Uiso   1.00
C429   C     0.57689   0.40210   0.33742   0.00000  Uiso   1.00
C430   C     0.58910   0.41018   0.38742   0.00000  Uiso   1.00
C431   C     0.49954   0.50010   0.16400   0.00000  Uiso   1.00
C432   C     0.42868   0.62298   0.20232   0.00000  Uiso   1.00
C433   C     0.43187   0.59535   0.15924   0.00000  Uiso   1.00
C434   C     0.39627   0.60493   0.12244   0.00000  Uiso   1.00
C435   C     0.45704   0.37677   0.17341   0.00000  Uiso   1.00
C436   C     0.41560   0.40356   0.17641   0.00000  Uiso   1.00
C437   C     0.38144   0.39407   0.13799   0.00000  Uiso   1.00
C438   C     0.57214   0.62358   0.29592   0.00000  Uiso   1.00
C439   C     0.57063   0.59614   0.33914   0.00000  Uiso   1.00
C440   C     0.60874   0.60469   0.37323   0.00000  Uiso   1.00
C441   C     0.37641   0.41984   0.29075   0.00000  Uiso   1.00
C442   C     0.49783   0.50025   0.33587   0.00000  Uiso   1.00
C443   C     0.63308   0.57573   0.20948   0.00000  Uiso   1.00
C444   C     0.62774   0.41683   0.22530   0.00000  Uiso   1.00
C445   C     0.36955   0.57860   0.29230   0.00000  Uiso   1.00
C446   C     0.52452   0.35668   0.28211   0.00000  Uiso   1.00
C447   C     0.47039   0.64316   0.22293   0.00000  Uiso   1.00
C448   C     0.47553   0.35668   0.21776   0.00000  Uiso   1.00
C449   C     0.52989   0.64326   0.27653   0.00000  Uiso   1.00
C450   C     0.35546   0.45859   0.26646   0.00000  Uiso   1.00
H451   H     0.52560   0.56165   0.02903   0.00000  Uiso   1.00
H452   H     0.59305   0.37843   0.40598   0.00000  Uiso   1.00
H453   H     0.61967   0.42852   0.39171   0.00000  Uiso   1.00
H454   H     0.60403   0.38536   0.32363   0.00000  Uiso   1.00
H455   H     0.57307   0.43479   0.32168   0.00000  Uiso   1.00
H456   H     0.50779   0.39115   0.34019   0.00000  Uiso   1.00
H457   H     0.53895   0.34636   0.35346   0.00000  Uiso   1.00
H458   H     0.36467   0.60287   0.13592   0.00000  Uiso   1.00
H459   H     0.40043   0.63807   0.10760   0.00000  Uiso   1.00
H460   H     0.39746   0.58000   0.09513   0.00000  Uiso   1.00
H461   H     0.46276   0.60129   0.14506   0.00000  Uiso   1.00
H462   H     0.47972   0.43363   0.47096   0.00000  Uiso   1.00
H463   H     0.42863   0.55985   0.16760   0.00000  Uiso   1.00
H464   H     0.41333   0.60466   0.22784   0.00000  Uiso   1.00
H465   H     0.40471   0.64946   0.19540   0.00000  Uiso   1.00
H466   H     0.39515   0.39371   0.10501   0.00000  Uiso   1.00
H467   H     0.36577   0.36190   0.14329   0.00000  Uiso   1.00
H468   H     0.35656   0.42024   0.13727   0.00000  Uiso   1.00
H469   H     0.40177   0.39630   0.20824   0.00000  Uiso   1.00
H470   H     0.42252   0.43938   0.17524   0.00000  Uiso   1.00
H471   H     0.48187   0.39484   0.15755   0.00000  Uiso   1.00
H472   H     0.45096   0.35016   0.14810   0.00000  Uiso   1.00
H473   H     0.47596   0.57684   0.46541   0.00000  Uiso   1.00
H474   H     0.63859   0.59393   0.35940   0.00000  Uiso   1.00
H475   H     0.61101   0.64034   0.38212   0.00000  Uiso   1.00
H476   H     0.60503   0.58547   0.40431   0.00000  Uiso   1.00
H477   H     0.54126   0.60371   0.35541   0.00000  Uiso   1.00
H478   H     0.57161   0.56041   0.33092   0.00000  Uiso   1.00
H479   H     0.58711   0.60543   0.26987   0.00000  Uiso   1.00
H480   H     0.59547   0.65055   0.30243   0.00000  Uiso   1.00
H481   H     0.41834   0.39936   0.34157   0.00000  Uiso   1.00
H482   H     0.59086   0.59738   0.15959   0.00000  Uiso   1.00
H483   H     0.59678   0.38982   0.16983   0.00000  Uiso   1.00
H484   H     0.43709   0.45223   0.02849   0.00000  Uiso   1.00
H485   H     0.41326   0.60326   0.33927   0.00000  Uiso   1.00
H486   H     0.53585   0.55805   0.11075   0.00000  Uiso   1.00
H487   H     0.48558   0.43066   0.39156   0.00000  Uiso   1.00
H488   H     0.48481   0.57375   0.38575   0.00000  Uiso   1.00
H489   H     0.45019   0.44701   0.10907   0.00000  Uiso   1.00
H490   H     0.56450   0.43037   0.40221   0.00000  Uiso   1.00
N491   N     0.50000   0.61907   0.25000   0.00000  Uiso   1.00
N492   N     0.50000   0.38093   0.25000   0.00000  Uiso   1.00
O493   O     0.43892   0.53821   0.25000   0.00000  Uiso   1.00
O494   O     0.40562   0.42770   0.32794   0.00000  Uiso   1.00
O495   O     0.65390   0.60972   0.20798   0.00000  Uiso   1.00
O496   O     0.59707   0.57031   0.17917   0.00000  Uiso   1.00
O497   O     0.62565   0.38238   0.24633   0.00000  Uiso   1.00
O498   O     0.60977   0.41901   0.18084   0.00000  Uiso   1.00
O499   O     0.34890   0.61296   0.29182   0.00000  Uiso   1.00
O500   O     0.40640   0.57495   0.32178   0.00000  Uiso   1.00
O501   O     0.56108   0.46179   0.25001   0.00000  Uiso   1.00
O502   O     0.56108   0.53821   0.25001   0.00000  Uiso   1.00
O503   O     0.43892   0.46179   0.25000   0.00000  Uiso   1.00
O504   O     0.50000   0.53822   0.18453   0.00000  Uiso   1.00
O505   O     0.50000   0.46178   0.31547   0.00000  Uiso   1.00
O506   O     0.50000   0.53822   0.31547   0.00000  Uiso   1.00
O507   O     0.50000   0.46178   0.18453   0.00000  Uiso   1.00
O508   O     0.36893   0.38171   0.27882   0.00000  Uiso   1.00
Zn509  Zn    0.50000   0.55104   0.25000   0.00000  Uiso   1.00
Zn510  Zn    0.50000   0.44896   0.25000   0.00000  Uiso   1.00
C511   C     0.75423   0.49998   0.25665   0.00000  Uiso   1.00
C512   C     0.98077   0.53894   0.24091   0.00000  Uiso   1.00
C513   C     0.98021   0.45772   0.24670   0.00000  Uiso   1.00
C514   C     0.68762   0.53964   0.26427   0.00000  Uiso   1.00
C515   C     0.84150   0.53716   0.04644   0.00000  Uiso   1.00
C516   C     0.81337   0.46448   0.45251   0.00000  Uiso   1.00
C517   C     0.81207   0.54482   0.44941   0.00000  Uiso   1.00
C518   C     0.79250   0.47514   0.04605   0.00000  Uiso   1.00
C519   C     0.84812   0.53454   0.09280   0.00000  Uiso   1.00
C520   C     0.81806   0.46270   0.40706   0.00000  Uiso   1.00
C521   C     0.81768   0.54293   0.40404   0.00000  Uiso   1.00
C522   C     0.91313   0.49976   0.24522   0.00000  Uiso   1.00
C523   C     0.80020   0.47182   0.09208   0.00000  Uiso   1.00
C524   C     0.82816   0.50117   0.11556   0.00000  Uiso   1.00
C525   C     0.82288   0.50178   0.38303   0.00000  Uiso   1.00
C526   C     0.81395   0.50707   0.02287   0.00000  Uiso   1.00
C527   C     0.81165   0.50558   0.47414   0.00000  Uiso   1.00
C528   C     0.95853   0.49859   0.23968   0.00000  Uiso   1.00
C529   C     0.71019   0.49957   0.26763   0.00000  Uiso   1.00
C530   C     0.86920   0.37438   0.32947   0.00000  Uiso   1.00
C531   C     0.91022   0.40210   0.33742   0.00000  Uiso   1.00
C532   C     0.92243   0.41018   0.38742   0.00000  Uiso   1.00
C533   C     0.83287   0.50010   0.16400   0.00000  Uiso   1.00
C534   C     0.76202   0.62298   0.20232   0.00000  Uiso   1.00
C535   C     0.76520   0.59535   0.15924   0.00000  Uiso   1.00
C536   C     0.72961   0.60493   0.12244   0.00000  Uiso   1.00
C537   C     0.79037   0.37677   0.17341   0.00000  Uiso   1.00
C538   C     0.74894   0.40356   0.17641   0.00000  Uiso   1.00
C539   C     0.71477   0.39407   0.13799   0.00000  Uiso   1.00
C540   C     0.90548   0.62358   0.29592   0.00000  Uiso   1.00
C541   C     0.90396   0.59614   0.33914   0.00000  Uiso   1.00
C542   C     0.94207   0.60469   0.37323   0.00000  Uiso   1.00
C543   C     0.70974   0.41984   0.29075   0.00000  Uiso   1.00
C544   C     0.83117   0.50025   0.33587   0.00000  Uiso   1.00
C545   C     0.96641   0.57573   0.20948   0.00000  Uiso   1.00
C546   C     0.96108   0.41683   0.22530   0.00000  Uiso   1.00
C547   C     0.70289   0.57860   0.29230   0.00000  Uiso   1.00
C548   C     0.85786   0.35668   0.28211   0.00000  Uiso   1.00
C549   C     0.80372   0.64316   0.22293   0.00000  Uiso   1.00
C550   C     0.80886   0.35668   0.21776   0.00000  Uiso   1.00
C551   C     0.86322   0.64326   0.27653   0.00000  Uiso   1.00
C552   C     0.68880   0.45859   0.26646   0.00000  Uiso   1.00
H553   H     0.85893   0.56165   0.02903   0.00000  Uiso   1.00
H554   H     0.92638   0.37843   0.40598   0.00000  Uiso   1.00
H555   H     0.95301   0.42852   0.39171   0.00000  Uiso   1.00
H556   H     0.93736   0.38536   0.32363   0.00000  Uiso   1.00
H557   H     0.90641   0.43479   0.32168   0.00000  Uiso   1.00
H558   H     0.84112   0.39115   0.34019   0.00000  Uiso   1.00
H559   H     0.87228   0.34636   0.35346   0.00000  Uiso   1.00
H560   H     0.69800   0.60287   0.13592   0.00000  Uiso   1.00
H561   H     0.73376   0.63807   0.10760   0.00000  Uiso   1.00
H562   H     0.73079   0.58000   0.09513   0.00000  Uiso   1.00
H563   H     0.79609   0.60129   0.14506   0.00000  Uiso   1.00
H564   H     0.81305   0.43363   0.47096   0.00000  Uiso   1.00
H565   H     0.76196   0.55985   0.16760   0.00000  Uiso   1.00
H566   H     0.74667   0.60466   0.22784   0.00000  Uiso   1.00
H567   H     0.73804   0.64946   0.19540   0.00000  Uiso   1.00
H568   H     0.72849   0.39371   0.10501   0.00000  Uiso   1.00
H569   H     0.69910   0.36190   0.14329   0.00000  Uiso   1.00
H570   H     0.68990   0.42024   0.13727   0.00000  Uiso   1.00
H571   H     0.73510   0.39630   0.20824   0.00000  Uiso   1.00
H572   H     0.75586   0.43938   0.17524   0.00000  Uiso   1.00
H573   H     0.81520   0.39484   0.15755   0.00000  Uiso   1.00
H574   H     0.78430   0.35016   0.14810   0.00000  Uiso   1.00
H575   H     0.80930   0.57684   0.46541   0.00000  Uiso   1.00
H576   H     0.97192   0.59393   0.35940   0.00000  Uiso   1.00
H577   H     0.94435   0.64034   0.38212   0.00000  Uiso   1.00
H578   H     0.93836   0.58547   0.40431   0.00000  Uiso   1.00
H579   H     0.87460   0.60371   0.35541   0.00000  Uiso   1.00
H580   H     0.90494   0.56041   0.33092   0.00000  Uiso   1.00
H581   H     0.92044   0.60543   0.26987   0.00000  Uiso   1.00
H582   H     0.92881   0.65055   0.30243   0.00000  Uiso   1.00
H583   H     0.75167   0.39936   0.34157   0.00000  Uiso   1.00
H584   H     0.92419   0.59738   0.15959   0.00000  Uiso   1.00
H585   H     0.93012   0.38982   0.16983   0.00000  Uiso   1.00
H586   H     0.77042   0.45223   0.02849   0.00000  Uiso   1.00
H587   H     0.74660   0.60326   0.33927   0.00000  Uiso   1.00
H588   H     0.86919   0.55805   0.11075   0.00000  Uiso   1.00
H589   H     0.81892   0.43066   0.39156   0.00000  Uiso   1.00
H590   H     0.81814   0.57375   0.38575   0.00000  Uiso   1.00
H591   H     0.78352   0.44701   0.10907   0.00000  Uiso   1.00
H592   H     0.89784   0.43037   0.40221   0.00000  Uiso   1.00
N593   N     0.83333   0.61907   0.25000   0.00000  Uiso   1.00
N594   N     0.83333   0.38093   0.25000   0.00000  Uiso   1.00
O595   O     0.77226   0.53821   0.25000   0.00000  Uiso   1.00
O596   O     0.73895   0.42770   0.32794   0.00000  Uiso   1.00
O597   O     0.98724   0.60972   0.20798   0.00000  Uiso   1.00
O598   O     0.93040   0.57031   0.17917   0.00000  Uiso   1.00
O599   O     0.95898   0.38238   0.24633   0.00000  Uiso   1.00
O600   O     0.94310   0.41901   0.18084   0.00000  Uiso   1.00
O601   O     0.68223   0.61296   0.29182   0.00000  Uiso   1.00
O602   O     0.73974   0.57495   0.32178   0.00000  Uiso   1.00
O603   O     0.89441   0.46179   0.25001   0.00000  Uiso   1.00
O604   O     0.89441   0.53821   0.25001   0.00000  Uiso   1.00
O605   O     0.77226   0.46179   0.25000   0.00000  Uiso   1.00
O606   O     0.83333   0.53822   0.18453   0.00000  Uiso   1.00
O607   O     0.83334   0.46178   0.31547   0.00000  Uiso   1.00
O608   O     0.83334   0.53822   0.31547   0.00000  Uiso   1.00
O609   O     0.83333   0.46178   0.18453   0.00000  Uiso   1.00
O610   O     0.70226   0.38171   0.27882   0.00000  Uiso   1.00
Zn611  Zn    0.83333   0.55104   0.25000   0.00000  Uiso   1.00
Zn612  Zn    0.83333   0.44896   0.25000   0.00000  Uiso   1.00
C613   C     0.08756   0.83332   0.25665   0.00000  Uiso   1.00
C614   C     0.31410   0.87227   0.24091   0.00000  Uiso   1.00
C615   C     0.31354   0.79105   0.24670   0.00000  Uiso   1.00
C616   C     0.02096   0.87297   0.26427   0.00000  Uiso   1.00
C617   C     0.17483   0.87049   0.04644   0.00000  Uiso   1.00
C618   C     0.14670   0.79781   0.45251   0.00000  Uiso   1.00
C619   C     0.14540   0.87815   0.44941   0.00000  Uiso   1.00
C620   C     0.12583   0.80847   0.04605   0.00000  Uiso   1.00
C621   C     0.18145   0.86787   0.09280   0.00000  Uiso   1.00
C622   C     0.15140   0.79604   0.40706   0.00000  Uiso   1.00
C623   C     0.15101   0.87626   0.40404   0.00000  Uiso   1.00
C624   C     0.24646   0.83309   0.24522   0.00000  Uiso   1.00
C625   C     0.13354   0.80515   0.09208   0.00000  Uiso   1.00
C626   C     0.16149   0.83451   0.11556   0.00000  Uiso   1.00
C627   C     0.15621   0.83511   0.38303   0.00000  Uiso   1.00
C628   C     0.14728   0.84040   0.02287   0.00000  Uiso   1.00
C629   C     0.14499   0.83891   0.47414   0.00000  Uiso   1.00
C630   C     0.29186   0.83192   0.23968   0.00000  Uiso   1.00
C631   C     0.04352   0.83291   0.26763   0.00000  Uiso   1.00
C632   C     0.20254   0.70772   0.32947   0.00000  Uiso   1.00
C633   C     0.24355   0.73543   0.33742   0.00000  Uiso   1.00
C634   C     0.25576   0.74351   0.38742   0.00000  Uiso   1.00
C635   C     0.16620   0.83343   0.16400   0.00000  Uiso   1.00
C636   C     0.09535   0.95631   0.20232   0.00000  Uiso   1.00
C637   C     0.09854   0.92868   0.15924   0.00000  Uiso   1.00
C638   C     0.06294   0.93826   0.12244   0.00000  Uiso   1.00
C639   C     0.12371   0.71010   0.17341   0.00000  Uiso   1.00
C640   C     0.08227   0.73690   0.17641   0.00000  Uiso   1.00
C641   C     0.04811   0.72740   0.13799   0.00000  Uiso   1.00
C642   C     0.23881   0.95692   0.29592   0.00000  Uiso   1.00
C643   C     0.23730   0.92948   0.33914   0.00000  Uiso   1.00
C644   C     0.27540   0.93803   0.37323   0.00000  Uiso   1.00
C645   C     0.04308   0.75317   0.29075   0.00000  Uiso   1.00
C646   C     0.16450   0.83358   0.33587   0.00000  Uiso   1.00
C647   C     0.29974   0.90906   0.20948   0.00000  Uiso   1.00
C648   C     0.29441   0.75016   0.22530   0.00000  Uiso   1.00
C649   C     0.03622   0.91193   0.29230   0.00000  Uiso   1.00
C650   C     0.19119   0.69001   0.28211   0.00000  Uiso   1.00
C651   C     0.13705   0.97649   0.22293   0.00000  Uiso   1.00
C652   C     0.14220   0.69001   0.21776   0.00000  Uiso   1.00
C653   C     0.19655   0.97660   0.27653   0.00000  Uiso   1.00
C654   C     0.02213   0.79193   0.26646   0.00000  Uiso   1.00
H655   H     0.19226   0.89499   0.02903   0.00000  Uiso   1.00
H656   H     0.25971   0.71176   0.40598   0.00000  Uiso   1.00
H657   H     0.28634   0.76186   0.39171   0.00000  Uiso   1.00
H658   H     0.27070   0.71869   0.32363   0.00000  Uiso   1.00
H659   H     0.23974   0.76812   0.32168   0.00000  Uiso   1.00
H660   H     0.17445   0.72449   0.34019   0.00000  Uiso   1.00
H661   H     0.20562   0.67969   0.35346   0.00000  Uiso   1.00
H662   H     0.03134   0.93620   0.13592   0.00000  Uiso   1.00
H663   H     0.06710   0.97140   0.10760   0.00000  Uiso   1.00
H664   H     0.06412   0.91334   0.09513   0.00000  Uiso   1.00
H665   H     0.12942   0.93463   0.14506   0.00000  Uiso   1.00
H666   H     0.14638   0.76697   0.47096   0.00000  Uiso   1.00
H667   H     0.09530   0.89318   0.16760   0.00000  Uiso   1.00
H668   H     0.08000   0.93799   0.22784   0.00000  Uiso   1.00
H669   H     0.07137   0.98280   0.19540   0.00000  Uiso   1.00
H670   H     0.06182   0.72705   0.10501   0.00000  Uiso   1.00
H671   H     0.03244   0.69524   0.14329   0.00000  Uiso   1.00
H672   H     0.02323   0.75358   0.13727   0.00000  Uiso   1.00
H673   H     0.06843   0.72963   0.20824   0.00000  Uiso   1.00
H674   H     0.08919   0.77272   0.17524   0.00000  Uiso   1.00
H675   H     0.14853   0.72817   0.15755   0.00000  Uiso   1.00
H676   H     0.11763   0.68349   0.14810   0.00000  Uiso   1.00
H677   H     0.14263   0.91017   0.46541   0.00000  Uiso   1.00
H678   H     0.30525   0.92726   0.35940   0.00000  Uiso   1.00
H679   H     0.27768   0.97368   0.38212   0.00000  Uiso   1.00
H680   H     0.27169   0.91880   0.40431   0.00000  Uiso   1.00
H681   H     0.20793   0.93704   0.35541   0.00000  Uiso   1.00
H682   H     0.23827   0.89375   0.33092   0.00000  Uiso   1.00
H683   H     0.25377   0.93877   0.26987   0.00000  Uiso   1.00
H684   H     0.26214   0.98389   0.30243   0.00000  Uiso   1.00
H685   H     0.08500   0.73269   0.34157   0.00000  Uiso   1.00
H686   H     0.25752   0.93071   0.15959   0.00000  Uiso   1.00
H687   H     0.26345   0.72315   0.16983   0.00000  Uiso   1.00
H688   H     0.10376   0.78556   0.02849   0.00000  Uiso   1.00
H689   H     0.07993   0.93660   0.33927   0.00000  Uiso   1.00
H690   H     0.20252   0.89138   0.11075   0.00000  Uiso   1.00
H691   H     0.15225   0.76400   0.39156   0.00000  Uiso   1.00
H692   H     0.15147   0.90709   0.38575   0.00000  Uiso   1.00
H693   H     0.11685   0.78034   0.10907   0.00000  Uiso   1.00
H694   H     0.23117   0.76370   0.40221   0.00000  Uiso   1.00
N695   N     0.16667   0.95240   0.25000   0.00000  Uiso   1.00
N696   N     0.16667   0.71427   0.25000   0.00000  Uiso   1.00
O697   O     0.10559   0.87154   0.25000   0.00000  Uiso   1.00
O698   O     0.07228   0.76103   0.32794   0.00000  Uiso   1.00
O699   O     0.32057   0.94306   0.20798   0.00000  Uiso   1.00
O700   O     0.26374   0.90364   0.17917   0.00000  Uiso   1.00
O701   O     0.29232   0.71572   0.24633   0.00000  Uiso   1.00
O702   O     0.27644   0.75234   0.18084   0.00000  Uiso   1.00
O703   O     0.01557   0.94629   0.29182   0.00000  Uiso   1.00
O704   O     0.07307   0.90828   0.32178   0.00000  Uiso   1.00
O705   O     0.22774   0.79513   0.25001   0.00000  Uiso   1.00
O706   O     0.22774   0.87154   0.25001   0.00000  Uiso   1.00
O707   O     0.10559   0.79513   0.25000   0.00000  Uiso   1.00
O708   O     0.16666   0.87155   0.18453   0.00000  Uiso   1.00
O709   O     0.16667   0.79511   0.31547   0.00000  Uiso   1.00
O710   O     0.16667   0.87155   0.31547   0.00000  Uiso   1.00
O711   O     0.16666   0.79511   0.18453   0.00000  Uiso   1.00
O712   O     0.03560   0.71505   0.27882   0.00000  Uiso   1.00
Zn713  Zn    0.16667   0.88437   0.25000   0.00000  Uiso   1.00
Zn714  Zn    0.16667   0.78229   0.25000   0.00000  Uiso   1.00
C715   C     0.42089   0.83332   0.25665   0.00000  Uiso   1.00
C716   C     0.64743   0.87227   0.24091   0.00000  Uiso   1.00
C717   C     0.64687   0.79105   0.24670   0.00000  Uiso   1.00
C718   C     0.35429   0.87297   0.26427   0.00000  Uiso   1.00
C719   C     0.50817   0.87049   0.04644   0.00000  Uiso   1.00
C720   C     0.48003   0.79781   0.45251   0.00000  Uiso   1.00
C721   C     0.47874   0.87815   0.44941   0.00000  Uiso   1.00
C722   C     0.45916   0.80847   0.04605   0.00000  Uiso   1.00
C723   C     0.51479   0.86787   0.09280   0.00000  Uiso   1.00
C724   C     0.48473   0.79604   0.40706   0.00000  Uiso   1.00
C725   C     0.48434   0.87626   0.40404   0.00000  Uiso   1.00
C726   C     0.57980   0.83309   0.24522   0.00000  Uiso   1.00
C727   C     0.46687   0.80515   0.09208   0.00000  Uiso   1.00
C728   C     0.49483   0.83451   0.11556   0.00000  Uiso   1.00
C729   C     0.48955   0.83511   0.38303   0.00000  Uiso   1.00
C730   C     0.48061   0.84040   0.02287   0.00000  Uiso   1.00
C731   C     0.47832   0.83891   0.47414   0.00000  Uiso   1.00
C732   C     0.62519   0.83192   0.23968   0.00000  Uiso   1.00
C733   C     0.37685   0.83291   0.26763   0.00000  Uiso   1.00
C734   C     0.53587   0.70772   0.32947   0.00000  Uiso   1.00
C735   C     0.57689   0.73543   0.33742   0.00000  Uiso   1.00
C736   C     0.58910   0.74351   0.38742   0.00000  Uiso   1.00
C737   C     0.49954   0.83343   0.16400   0.00000  Uiso   1.00
C738   C     0.42868   0.95631   0.20232   0.00000  Uiso   1.00
C739   C     0.43187   0.92868   0.15924   0.00000  Uiso   1.00
C740   C     0.39627   0.93826   0.12244   0.00000  Uiso   1.00
C741   C     0.45704   0.71010   0.17341   0.00000  Uiso   1.00
C742   C     0.41560   0.73690   0.17641   0.00000  Uiso   1.00
C743   C     0.38144   0.72740   0.13799   0.00000  Uiso   1.00
C744   C     0.57214   0.95692   0.29592   0.00000  Uiso   1.00
C745   C     0.57063   0.92948   0.33914   0.00000  Uiso   1.00
C746   C     0.60874   0.93803   0.37323   0.00000  Uiso   1.00
C747   C     0.37641   0.75317   0.29075   0.00000  Uiso   1.00
C748   C     0.49783   0.83358   0.33587   0.00000  Uiso   1.00
C749   C     0.63308   0.90906   0.20948   0.00000  Uiso   1.00
C750   C     0.62774   0.75016   0.22530   0.00000  Uiso   1.00
C751   C     0.36955   0.91193   0.29230   0.00000  Uiso   1.00
C752   C     0.52452   0.69001   0.28211   0.00000  Uiso   1.00
C753   C     0.47039   0.97649   0.22293   0.00000  Uiso   1.00
C754   C     0.47553   0.69001   0.21776   0.00000  Uiso   1.00
C755   C     0.52989   0.97660   0.27653   0.00000  Uiso   1.00
C756   C     0.35546   0.79193   0.26646   0.00000  Uiso   1.00
H757   H     0.52560   0.89499   0.02903   0.00000  Uiso   1.00
H758   H     0.59305   0.71176   0.40598   0.00000  Uiso   1.00
H759   H     0.61967   0.76186   0.39171   0.00000  Uiso   1.00
H760   H     0.60403   0.71869   0.32363   0.00000  Uiso   1.00
H761   H     0.57307   0.76812   0.32168   0.00000  Uiso   1.00
H762   H     0.50779   0.72449   0.34019   0.00000  Uiso   1.00
H763   H     0.53895   0.67969   0.35346   0.00000  Uiso   1.00
H764   H     0.36467   0.93620   0.13592   0.00000  Uiso   1.00
H765   H     0.40043   0.97140   0.10760   0.00000  Uiso   1.00
H766   H     0.39746   0.91334   0.09513   0.00000  Uiso   1.00
H767   H     0.46276   0.93463   0.14506   0.00000  Uiso   1.00
H768   H     0.47972   0.76697   0.47096   0.00000  Uiso   1.00
H769   H     0.42863   0.89318   0.16760   0.00000  Uiso   1.00
H770   H     0.41333   0.93799   0.22784   0.00000  Uiso   1.00
H771   H     0.40471   0.98280   0.19540   0.00000  Uiso   1.00
H772   H     0.39515   0.72705   0.10501   0.00000  Uiso   1.00
H773   H     0.36577   0.69524   0.14329   0.00000  Uiso   1.00
H774   H     0.35656   0.75358   0.13727   0.00000  Uiso   1.00
H775   H     0.40177   0.72963   0.20824   0.00000  Uiso   1.00
H776   H     0.42252   0.77272   0.17524   0.00000  Uiso   1.00
H777   H     0.48187   0.72817   0.15755   0.00000  Uiso   1.00
H778   H     0.45096   0.68349   0.14810   0.00000  Uiso   1.00
H779   H     0.47596   0.91017   0.46541   0.00000  Uiso   1.00
H780   H     0.63859   0.92726   0.35940   0.00000  Uiso   1.00
H781   H     0.61101   0.97368   0.38212   0.00000  Uiso   1.00
H782   H     0.60503   0.91880   0.40431   0.00000  Uiso   1.00
H783   H     0.54126   0.93704   0.35541   0.00000  Uiso   1.00
H784   H     0.57161   0.89375   0.33092   0.00000  Uiso   1.00
H785   H     0.58711   0.93877   0.26987   0.00000  Uiso   1.00
H786   H     0.59547   0.98389   0.30243   0.00000  Uiso   1.00
H787   H     0.41834   0.73269   0.34157   0.00000  Uiso   1.00
H788   H     0.59086   0.93071   0.15959   0.00000  Uiso   1.00
H789   H     0.59678   0.72315   0.16983   0.00000  Uiso   1.00
H790   H     0.43709   0.78556   0.02849   0.00000  Uiso   1.00
H791   H     0.41326   0.93660   0.33927   0.00000  Uiso   1.00
H792   H     0.53585   0.89138   0.11075   0.00000  Uiso   1.00
H793   H     0.48558   0.76400   0.39156   0.00000  Uiso   1.00
H794   H     0.48481   0.90709   0.38575   0.00000  Uiso   1.00
H795   H     0.45019   0.78034   0.10907   0.00000  Uiso   1.00
H796   H     0.56450   0.76370   0.40221   0.00000  Uiso   1.00
N797   N     0.50000   0.95240   0.25000   0.00000  Uiso   1.00
N798   N     0.50000   0.71427   0.25000   0.00000  Uiso   1.00
O799   O     0.43892   0.87154   0.25000   0.00000  Uiso   1.00
O800   O     0.40562   0.76103   0.32794   0.00000  Uiso   1.00
O801   O     0.65390   0.94306   0.20798   0.00000  Uiso   1.00
O802   O     0.59707   0.90364   0.17917   0.00000  Uiso   1.00
O803   O     0.62565   0.71572   0.24633   0.00000  Uiso   1.00
O804   O     0.60977   0.75234   0.18084   0.00000  Uiso   1.00
O805   O     0.34890   0.94629   0.29182   0.00000  Uiso   1.00
O806   O     0.40640   0.90828   0.32178   0.00000  Uiso   1.00
O807   O     0.56108   0.79513   0.25001   0.00000  Uiso   1.00
O808   O     0.56108   0.87154   0.25001   0.00000  Uiso   1.00
O809   O     0.43892   0.79513   0.25000   0.00000  Uiso   1.00
O810   O     0.50000   0.87155   0.18453   0.00000  Uiso   1.00
O811   O     0.50000   0.79511   0.31547   0.00000  Uiso   1.00
O812   O     0.50000   0.87155   0.31547   0.00000  Uiso   1.00
O813   O     0.50000   0.79511   0.18453   0.00000  Uiso   1.00
O814   O     0.36893   0.71505   0.27882   0.00000  Uiso   1.00
Zn815  Zn    0.50000   0.88437   0.25000   0.00000  Uiso   1.00
Zn816  Zn    0.50000   0.78229   0.25000   0.00000  Uiso   1.00
C817   C     0.75423   0.83332   0.25665   0.00000  Uiso   1.00
C818   C     0.98077   0.87227   0.24091   0.00000  Uiso   1.00
C819   C     0.98021   0.79105   0.24670   0.00000  Uiso   1.00
C820   C     0.68762   0.87297   0.26427   0.00000  Uiso   1.00
C821   C     0.84150   0.87049   0.04644   0.00000  Uiso   1.00
C822   C     0.81337   0.79781   0.45251   0.00000  Uiso   1.00
C823   C     0.81207   0.87815   0.44941   0.00000  Uiso   1.00
C824   C     0.79250   0.80847   0.04605   0.00000  Uiso   1.00
C825   C     0.84812   0.86787   0.09280   0.00000  Uiso   1.00
C826   C     0.81806   0.79604   0.40706   0.00000  Uiso   1.00
C827   C     0.81768   0.87626   0.40404   0.00000  Uiso   1.00
C828   C     0.91313   0.83309   0.24522   0.00000  Uiso   1.00
C829   C     0.80020   0.80515   0.09208   0.00000  Uiso   1.00
C830   C     0.82816   0.83451   0.11556   0.00000  Uiso   1.00
C831   C     0.82288   0.83511   0.38303   0.00000  Uiso   1.00
C832   C     0.81395   0.84040   0.02287   0.00000  Uiso   1.00
C833   C     0.81165   0.83891   0.47414   0.00000  Uiso   1.00
C834   C     0.95853   0.83192   0.23968   0.00000  Uiso   1.00
C835   C     0.71019   0.83291   0.26763   0.00000  Uiso   1.00
C836   C     0.86920   0.70772   0.32947   0.00000  Uiso   1.00
C837   C     0.91022   0.73543   0.33742   0.00000  Uiso   1.00
C838   C     0.92243   0.74351   0.38742   0.00000  Uiso   1.00
C839   C     0.83287   0.83343   0.16400   0.00000  Uiso   1.00
C840   C     0.76202   0.95631   0.20232   0.00000  Uiso   1.00
C841   C     0.76520   0.92868   0.15924   0.00000  Uiso   1.00
C842   C     0.72961   0.93826   0.12244   0.00000  Uiso   1.00
C843   C     0.79037   0.71010   0.17341   0.00000  Uiso   1.00
C844   C     0.74894   0.73690   0.17641   0.00000  Uiso   1.00
C845   C     0.71477   0.72740   0.13799   0.00000  Uiso   1.00
C846   C     0.90548   0.95692   0.29592   0.00000  Uiso   1.00
C847   C     0.90396   0.92948   0.33914   0.00000  Uiso   1.00
C848   C     0.94207   0.93803   0.37323   0.00000  Uiso   1.00
C849   C     0.70974   0.75317   0.29075   0.00000  Uiso   1.00
C850   C     0.83117   0.83358   0.33587   0.00000  Uiso   1.00
C851   C     0.96641   0.90906   0.20948   0.00000  Uiso   1.00
C852   C     0.96108   0.75016   0.22530   0.00000  Uiso   1.00
C853   C     0.70289   0.91193   0.29230   0.00000  Uiso   1.00
C854   C     0.85786   0.69001   0.28211   0.00000  Uiso   1.00
C855   C     0.80372   0.97649   0.22293   0.00000  Uiso   1.00
C856   C     0.80886   0.69001   0.21776   0.00000  Uiso   1.00
C857   C     0.86322   0.97660   0.27653   0.00000  Uiso   1.00
C858   C     0.68880   0.79193   0.26646   0.00000  Uiso   1.00
H859   H     0.85893   0.89499   0.02903   0.00000  Uiso   1.00
H860   H     0.92638   0.71176   0.40598   0.00000  Uiso   1.00
H861   H     0.95301   0.76186   0.39171   0.00000  Uiso   1.00
H862   H     0.93736   0.71869   0.32363   0.00000  Uiso   1.00
H863   H     0.90641   0.76812   0.32168   0.00000  Uiso   1.00
H864   H     0.84112   0.72449   0.34019   0.00000  Uiso   1.00
H865   H     0.87228   0.67969   0.35346   0.00000  Uiso   1.00
H866   H     0.69800   0.93620   0.13592   0.00000  Uiso   1.00
H867   H     0.73376   0.97140   0.10760   0.00000  Uiso   1.00
H868   H     0.73079   0.91334   0.09513   0.00000  Uiso   1.00
H869   H     0.79609   0.93463   0.14506   0.00000  Uiso   1.00
H870   H     0.81305   0.76697   0.47096   0.00000  Uiso   1.00
H871   H     0.76196   0.89318   0.16760   0.00000  Uiso   1.00
H872   H     0.74667   0.93799   0.22784   0.00000  Uiso   1.00
H873   H     0.73804   0.98280   0.19540   0.00000  Uiso   1.00
H874   H     0.72849   0.72705   0.10501   0.00000  Uiso   1.00
H875   H     0.69910   0.69524   0.14329   0.00000  Uiso   1.00
H876   H     0.68990   0.75358   0.13727   0.00000  Uiso   1.00
H877   H     0.73510   0.72963   0.20824   0.00000  Uiso   1.00
H878   H     0.75586   0.77272   0.17524   0.00000  Uiso   1.00
H879   H     0.81520   0.72817   0.15755   0.00000  Uiso   1.00
H880   H     0.78430   0.68349   0.14810   0.00000  Uiso   1.00
H881   H     0.80930   0.91017   0.46541   0.00000  Uiso   1.00
H882   H     0.97192   0.92726   0.35940   0.00000  Uiso   1.00
H883   H     0.94435   0.97368   0.38212   0.00000  Uiso   1.00
H884   H     0.93836   0.91880   0.40431   0.00000  Uiso   1.00
H885   H     0.87460   0.93704   0.35541   0.00000  Uiso   1.00
H886   H     0.90494   0.89375   0.33092   0.00000  Uiso   1.00
H887   H     0.92044   0.93877   0.26987   0.00000  Uiso   1.00
H888   H     0.92881   0.98389   0.30243   0.00000  Uiso   1.00
H889   H     0.75167   0.73269   0.34157   0.00000  Uiso   1.00
H890   H     0.92419   0.93071   0.15959   0.00000  Uiso   1.00
H891   H     0.93012   0.72315   0.16983   0.00000  Uiso   1.00
H892   H     0.77042   0.78556   0.02849   0.00000  Uiso   1.00
H893   H     0.74660   0.93660   0.33927   0.00000  Uiso   1.00
H894   H     0.86919   0.89138   0.11075   0.00000  Uiso   1.00
H895   H     0.81892   0.76400   0.39156   0.00000  Uiso   1.00
H896   H     0.81814   0.90709   0.38575   0.00000  Uiso   1.00
H897   H     0.78352   0.78034   0.10907   0.00000  Uiso   1.00
H898   H     0.89784   0.76370   0.40221   0.00000  Uiso   1.00
N899   N     0.83333   0.95240   0.25000   0.00000  Uiso   1.00
N900   N     0.83333   0.71427   0.25000   0.00000  Uiso   1.00
O901   O     0.77226   0.87154   0.25000   0.00000  Uiso   1.00
O902   O     0.73895   0.76103   0.32794   0.00000  Uiso   1.00
O903   O     0.98724   0.94306   0.20798   0.00000  Uiso   1.00
O904   O     0.93040   0.90364   0.17917   0.00000  Uiso   1.00
O905   O     0.95898   0.71572   0.24633   0.00000  Uiso   1.00
O906   O     0.94310   0.75234   0.18084   0.00000  Uiso   1.00
O907   O     0.68223   0.94629   0.29182   0.00000  Uiso   1.00
O908   O     0.73974   0.90828   0.32178   0.00000  Uiso   1.00
O909   O     0.89441   0.79513   0.25001   0.00000  Uiso   1.00
O910   O     0.89441   0.87154   0.25001   0.00000  Uiso   1.00
O911   O     0.77226   0.79513   0.25000   0.00000  Uiso   1.00
O912   O     0.83333   0.87155   0.18453   0.00000  Uiso   1.00
O913   O     0.83334   0.79511   0.31547   0.00000  Uiso   1.00
O914   O     0.83334   0.87155   0.31547   0.00000  Uiso   1.00
O915   O     0.83333   0.79511   0.18453   0.00000  Uiso   1.00
O916   O     0.70226   0.71505   0.27882   0.00000  Uiso   1.00
Zn917  Zn    0.83333   0.88437   0.25000   0.00000  Uiso   1.00
Zn918  Zn    0.83333   0.78229   0.25000   0.00000  Uiso   1.00
C919   C     0.08756   0.16665   0.75665   0.00000  Uiso   1.00
C920   C     0.31410   0.20561   0.74091   0.00000  Uiso   1.00
C921   C     0.31354   0.12439   0.74670   0.00000  Uiso   1.00
C922   C     0.02096   0.20631   0.76427   0.00000  Uiso   1.00
C923   C     0.17483   0.20382   0.54644   0.00000  Uiso   1.00
C924   C     0.14670   0.13115   0.95251   0.00000  Uiso   1.00
C925   C     0.14540   0.21149   0.94941   0.00000  Uiso   1.00
C926   C     0.12583   0.14180   0.54605   0.00000  Uiso   1.00
C927   C     0.18145   0.20120   0.59280   0.00000  Uiso   1.00
C928   C     0.15140   0.12937   0.90706   0.00000  Uiso   1.00
C929   C     0.15101   0.20959   0.90404   0.00000  Uiso   1.00
C930   C     0.24646   0.16642   0.74522   0.00000  Uiso   1.00
C931   C     0.13354   0.13849   0.59208   0.00000  Uiso   1.00
C932   C     0.16149   0.16784   0.61556   0.00000  Uiso   1.00
C933   C     0.15621   0.16845   0.88303   0.00000  Uiso   1.00
C934   C     0.14728   0.17373   0.52287   0.00000  Uiso   1.00
C935   C     0.14499   0.17225   0.97414   0.00000  Uiso   1.00
C936   C     0.29186   0.16525   0.73968   0.00000  Uiso   1.00
C937   C     0.04352   0.16624   0.76763   0.00000  Uiso   1.00
C938   C     0.20254   0.04105   0.82947   0.00000  Uiso   1.00
C939   C     0.24355   0.06876   0.83742   0.00000  Uiso   1.00
C940   C     0.25576   0.07685   0.88742   0.00000  Uiso   1.00
C941   C     0.16620   0.16676   0.66400   0.00000  Uiso   1.00
C942   C     0.09535   0.28965   0.70232   0.00000  Uiso   1.00
C943   C     0.09854   0.26201   0.65924   0.00000  Uiso   1.00
C944   C     0.06294   0.27159   0.62244   0.00000  Uiso   1.00
C945   C     0.12371   0.04344   0.67341   0.00000  Uiso   1.00
C946   C     0.08227   0.07023   0.67641   0.00000  Uiso   1.00
C947   C     0.04811   0.06074   0.63799   0.00000  Uiso   1.00
C948   C     0.23881   0.29025   0.79592   0.00000  Uiso   1.00
C949   C     0.23730   0.26281   0.83914   0.00000  Uiso   1.00
C950   C     0.27540   0.27136   0.87323   0.00000  Uiso   1.00
C951   C     0.04308   0.08650   0.79075   0.00000  Uiso   1.00
C952   C     0.16450   0.16691   0.83587   0.00000  Uiso   1.00
C953   C     0.29974   0.24240   0.70948   0.00000  Uiso   1.00
C954   C     0.29441   0.08349   0.72530   0.00000  Uiso   1.00
C955   C     0.03622   0.24527   0.79230   0.00000  Uiso   1.00
C956   C     0.19119   0.02335   0.78211   0.00000  Uiso   1.00
C957   C     0.13705   0.30983   0.72293   0.00000  Uiso   1.00
C958   C     0.14220   0.02335   0.71776   0.00000  Uiso   1.00
C959   C     0.19655   0.30993   0.77653   0.00000  Uiso   1.00
C960   C     0.02213   0.12526   0.76646   0.00000  Uiso   1.00
H961   H     0.19226   0.22832   0.52903   0.00000  Uiso   1.00
H962   H     0.25971   0.04509   0.90598   0.00000  Uiso   1.00
H963   H     0.28634   0.09519   0.89171   0.00000  Uiso   1.00
H964   H     0.27070   0.05203   0.82363   0.00000  Uiso   1.00
H965   H     0.23974   0.10146   0.82168   0.00000  Uiso   1.00
H966   H     0.17445   0.05782   0.84019   0.00000  Uiso   1.00
H967   H     0.20562   0.01302   0.85346   0.00000  Uiso   1.00
H968   H     0.03134   0.26953   0.63592   0.00000  Uiso   1.00
H969   H     0.06710   0.30474   0.60760   0.00000  Uiso   1.00
H970   H     0.06412   0.24667   0.59513   0.00000  Uiso   1.00
H971   H     0.12942   0.26796   0.64506   0.00000  Uiso   1.00
H972   H     0.14638   0.10030   0.97096   0.00000  Uiso   1.00
H973   H     0.09530   0.22652   0.66760   0.00000  Uiso   1.00
H974   H     0.08000   0.27133   0.72784   0.00000  Uiso   1.00
H975   H     0.07137   0.31613   0.69540   0.00000  Uiso   1.00
H976   H     0.06182   0.06038   0.60501   0.00000  Uiso   1.00
H977   H     0.03244   0.02857   0.64329   0.00000  Uiso   1.00
H978   H     0.02323   0.08691   0.63727   0.00000  Uiso   1.00
H979   H     0.06843   0.06296   0.70824   0.00000  Uiso   1.00
H980   H     0.08919   0.10605   0.67524   0.00000  Uiso   1.00
H981   H     0.14853   0.06151   0.65755   0.00000  Uiso   1.00
H982   H     0.11763   0.01682   0.64810   0.00000  Uiso   1.00
H983   H     0.14263   0.24351   0.96541   0.00000  Uiso   1.00
H984   H     0.30525   0.26060   0.85940   0.00000  Uiso   1.00
H985   H     0.27768   0.30701   0.88212   0.00000  Uiso   1.00
H986   H     0.27169   0.25213   0.90431   0.00000  Uiso   1.00
H987   H     0.20793   0.27037   0.85541   0.00000  Uiso   1.00
H988   H     0.23827   0.22708   0.83092   0.00000  Uiso   1.00
H989   H     0.25377   0.27210   0.76987   0.00000  Uiso   1.00
H990   H     0.26214   0.31722   0.80243   0.00000  Uiso   1.00
H991   H     0.08500   0.06603   0.84157   0.00000  Uiso   1.00
H992   H     0.25752   0.26404   0.65959   0.00000  Uiso   1.00
H993   H     0.26345   0.05648   0.66983   0.00000  Uiso   1.00
H994   H     0.10376   0.11889   0.52849   0.00000  Uiso   1.00
H995   H     0.07993   0.26993   0.83927   0.00000  Uiso   1.00
H996   H     0.20252   0.22472   0.61075   0.00000  Uiso   1.00
H997   H     0.15225   0.09733   0.89156   0.00000  Uiso   1.00
H998   H     0.15147   0.24042   0.88575   0.00000  Uiso   1.00
H999   H     0.11685   0.11367   0.60907   0.00000  Uiso   1.00
H1000  H     0.23117   0.09704   0.90221   0.00000  Uiso   1.00
N1001  N     0.16667   0.28573   0.75000   0.00000  Uiso   1.00
N1002  N     0.16667   0.04760   0.75000   0.00000  Uiso   1.00
O1003  O     0.10559   0.20487   0.75000   0.00000  Uiso   1.00
O1004  O     0.07228   0.09436   0.82794   0.00000  Uiso   1.00
O1005  O     0.32057   0.27639   0.70798   0.00000  Uiso   1.00
O1006  O     0.26374   0.23698   0.67917   0.00000  Uiso   1.00
O1007  O     0.29232   0.04905   0.74633   0.00000  Uiso   1.00
O1008  O     0.27644   0.08568   0.68084   0.00000  Uiso   1.00
O1009  O     0.01557   0.27963   0.79182   0.00000  Uiso   1.00
O1010  O     0.07307   0.24161   0.82178   0.00000  Uiso   1.00
O1011  O     0.22774   0.12846   0.75001   0.00000  Uiso   1.00
O1012  O     0.22774   0.20487   0.75001   0.00000  Uiso   1.00
O1013  O     0.10559   0.12846   0.75000   0.00000  Uiso   1.00
O1014  O     0.16666   0.20489   0.68453   0.00000  Uiso   1.00
O1015  O     0.16667   0.12845   0.81547   0.00000  Uiso   1.00
O1016  O     0.16667   0.20489   0.81547   0.00000  Uiso   1.00
O1017  O     0.16666   0.12845   0.68453   0.00000  Uiso   1.00
O1018  O     0.03560   0.04838   0.77882   0.00000  Uiso   1.00
Zn1019 Zn    0.16667   0.21771   0.75000   0.00000  Uiso   1.00
Zn1020 Zn    0.16667   0.11563   0.75000   0.00000  Uiso   1.00
C1021  C     0.42089   0.16665   0.75665   0.00000  Uiso   1.00
C1022  C     0.64743   0.20561   0.74091   0.00000  Uiso   1.00
C1023  C     0.64687   0.12439   0.74670   0.00000  Uiso   1.00
C1024  C     0.35429   0.20631   0.76427   0.00000  Uiso   1.00
C1025  C     0.50817   0.20382   0.54644   0.00000  Uiso   1.00
C1026  C     0.48003   0.13115   0.95251   0.00000  Uiso   1.00
C1027  C     0.47874   0.21149   0.94941   0.00000  Uiso   1.00
C1028  C     0.45916   0.14180   0.54605   0.00000  Uiso   1.00
C1029  C     0.51479   0.20120   0.59280   0.00000  Uiso   1.00
C1030  C     0.48473   0.12937   0.90706   0.00000  Uiso   1.00
C1031  C     0.48434   0.20959   0.90404   0.00000  Uiso   1.00
C1032  C     0.57980   0.16642   0.74522   0.00000  Uiso   1.00
C1033  C     0.46687   0.13849   0.59208   0.00000  Uiso   1.00
C1034  C     0.49483   0.16784   0.61556   0.00000  Uiso   1.00
C1035  C     0.48955   0.16845   0.88303   0.00000  Uiso   1.00
C1036  C     0.48061   0.17373   0.52287   0.00000  Uiso   1.00
C1037  C     0.47832   0.17225   0.97414   0.00000  Uiso   1.00
C1038  C     0.62519   0.16525   0.73968   0.00000  Uiso   1.00
C1039  C     0.37685   0.16624   0.76763   0.00000  Uiso   1.00
C1040  C     0.53587   0.04105   0.82947   0.00000  Uiso   1.00
C1041  C     0.57689   0.06876   0.83742   0.00000  Uiso   1.00
C1042  C     0.58910   0.07685   0.88742   0.00000  Uiso   1.00
C1043  C     0.49954   0.16676   0.66400   0.00000  Uiso   1.00
C1044  C     0.42868   0.28965   0.70232   0.00000  Uiso   1.00
C1045  C     0.43187   0.26201   0.65924   0.00000  Uiso   1.00
C1046  C     0.39627   0.27159   0.62244   0.00000  Uiso   1.00
C1047  C     0.45704   0.04344   0.67341   0.00000  Uiso   1.00
C1048  C     0.41560   0.07023   0.67641   0.00000  Uiso   1.00
C1049  C     0.38144   0.06074   0.63799   0.00000  Uiso   1.00
C1050  C     0.57214   0.29025   0.79592   0.00000  Uiso   1.00
C1051  C     0.57063   0.26281   0.83914   0.00000  Uiso   1.00
C1052  C     0.60874   0.27136   0.87323   0.00000  Uiso   1.00
C1053  C     0.37641   0.08650   0.79075   0.00000  Uiso   1.00
C1054  C     0.49783   0.16691   0.83587   0.00000  Uiso   1.00
C1055  C     0.63308   0.24240   0.70948   0.00000  Uiso   1.00
C1056  C     0.62774   0.08349   0.72530   0.00000  Uiso   1.00
C1057  C     0.36955   0.24527   0.79230   0.00000  Uiso   1.00
C1058  C     0.52452   0.02335   0.78211   0.00000  Uiso   1.00
C1059  C     0.47039   0.30983   0.72293   0.00000  Uiso   1.00
C1060  C     0.47553   0.02335   0.71776   0.00000  Uiso   1.00
C1061  C     0.52989   0.30993   0.77653   0.00000  Uiso   1.00
C1062  C     0.35546   0.12526   0.76646   0.00000  Uiso   1.00
H1063  H     0.52560   0.22832   0.52903   0.00000  Uiso   1.00
H1064  H     0.59305   0.04509   0.90598   0.00000  Uiso   1.00
H1065  H     0.61967   0.09519   0.89171   0.00000  Uiso   1.00
H1066  H     0.60403   0.05203   0.82363   0.00000  Uiso   1.00
H1067  H     0.57307   0.10146   0.82168   0.00000  Uiso   1.00
H1068  H     0.50779   0.05782   0.84019   0.00000  Uiso   1.00
H1069  H     0.53895   0.01302   0.85346   0.00000  Uiso   1.00
H1070  H     0.36467   0.26953   0.63592   0.00000  Uiso   1.00
H1071  H     0.40043   0.30474   0.60760   0.00000  Uiso   1.00
H1072  H     0.39746   0.24667   0.59513   0.00000  Uiso   1.00
H1073  H     0.46276   0.26796   0.64506   0.00000  Uiso   1.00
H1074  H     0.47972   0.10030   0.97096   0.00000  Uiso   1.00
H1075  H     0.42863   0.22652   0.66760   0.00000  Uiso   1.00
H1076  H     0.41333   0.27133   0.72784   0.00000  Uiso   1.00
H1077  H     0.40471   0.31613   0.69540   0.00000  Uiso   1.00
H1078  H     0.39515   0.06038   0.60501   0.00000  Uiso   1.00
H1079  H     0.36577   0.02857   0.64329   0.00000  Uiso   1.00
H1080  H     0.35656   0.08691   0.63727   0.00000  Uiso   1.00
H1081  H     0.40177   0.06296   0.70824   0.00000  Uiso   1.00
H1082  H     0.42252   0.10605   0.67524   0.00000  Uiso   1.00
H1083  H     0.48187   0.06151   0.65755   0.00000  Uiso   1.00
H1084  H     0.45096   0.01682   0.64810   0.00000  Uiso   1.00
H1085  H     0.47596   0.24351   0.96541   0.00000  Uiso   1.00
H1086  H     0.63859   0.26060   0.85940   0.00000  Uiso   1.00
H1087  H     0.61101   0.30701   0.88212   0.00000  Uiso   1.00
H1088  H     0.60503   0.25213   0.90431   0.00000  Uiso   1.00
H1089  H     0.54126   0.27037   0.85541   0.00000  Uiso   1.00
H1090  H     0.57161   0.22708   0.83092   0.00000  Uiso   1.00
H1091  H     0.58711   0.27210   0.76987   0.00000  Uiso   1.00
H1092  H     0.59547   0.31722   0.80243   0.00000  Uiso   1.00
H1093  H     0.41834   0.06603   0.84157   0.00000  Uiso   1.00
H1094  H     0.59086   0.26404   0.65959   0.00000  Uiso   1.00
H1095  H     0.59678   0.05648   0.66983   0.00000  Uiso   1.00
H1096  H     0.43709   0.11889   0.52849   0.00000  Uiso   1.00
H1097  H     0.41326   0.26993   0.83927   0.00000  Uiso   1.00
H1098  H     0.53585   0.22472   0.61075   0.00000  Uiso   1.00
H1099  H     0.48558   0.09733   0.89156   0.00000  Uiso   1.00
H1100  H     0.48481   0.24042   0.88575   0.00000  Uiso   1.00
H1101  H     0.45019   0.11367   0.60907   0.00000  Uiso   1.00
H1102  H     0.56450   0.09704   0.90221   0.00000  Uiso   1.00
N1103  N     0.50000   0.28573   0.75000   0.00000  Uiso   1.00
N1104  N     0.50000   0.04760   0.75000   0.00000  Uiso   1.00
O1105  O     0.43892   0.20487   0.75000   0.00000  Uiso   1.00
O1106  O     0.40562   0.09436   0.82794   0.00000  Uiso   1.00
O1107  O     0.65390   0.27639   0.70798   0.00000  Uiso   1.00
O1108  O     0.59707   0.23698   0.67917   0.00000  Uiso   1.00
O1109  O     0.62565   0.04905   0.74633   0.00000  Uiso   1.00
O1110  O     0.60977   0.08568   0.68084   0.00000  Uiso   1.00
O1111  O     0.34890   0.27963   0.79182   0.00000  Uiso   1.00
O1112  O     0.40640   0.24161   0.82178   0.00000  Uiso   1.00
O1113  O     0.56108   0.12846   0.75001   0.00000  Uiso   1.00
O1114  O     0.56108   0.20487   0.75001   0.00000  Uiso   1.00
O1115  O     0.43892   0.12846   0.75000   0.00000  Uiso   1.00
O1116  O     0.50000   0.20489   0.68453   0.00000  Uiso   1.00
O1117  O     0.50000   0.12845   0.81547   0.00000  Uiso   1.00
O1118  O     0.50000   0.20489   0.81547   0.00000  Uiso   1.00
O1119  O     0.50000   0.12845   0.68453   0.00000  Uiso   1.00
O1120  O     0.36893   0.04838   0.77882   0.00000  Uiso   1.00
Zn1121 Zn    0.50000   0.21771   0.75000   0.00000  Uiso   1.00
Zn1122 Zn    0.50000   0.11563   0.75000   0.00000  Uiso   1.00
C1123  C     0.75423   0.16665   0.75665   0.00000  Uiso   1.00
C1124  C     0.98077   0.20561   0.74091   0.00000  Uiso   1.00
C1125  C     0.98021   0.12439   0.74670   0.00000  Uiso   1.00
C1126  C     0.68762   0.20631   0.76427   0.00000  Uiso   1.00
C1127  C     0.84150   0.20382   0.54644   0.00000  Uiso   1.00
C1128  C     0.81337   0.13115   0.95251   0.00000  Uiso   1.00
C1129  C     0.81207   0.21149   0.94941   0.00000  Uiso   1.00
C1130  C     0.79250   0.14180   0.54605   0.00000  Uiso   1.00
C1131  C     0.84812   0.20120   0.59280   0.00000  Uiso   1.00
C1132  C     0.81806   0.12937   0.90706   0.00000  Uiso   1.00
C1133  C     0.81768   0.20959   0.90404   0.00000  Uiso   1.00
C1134  C     0.91313   0.16642   0.74522   0.00000  Uiso   1.00
C1135  C     0.80020   0.13849   0.59208   0.00000  Uiso   1.00
C1136  C     0.82816   0.16784   0.61556   0.00000  Uiso   1.00
C1137  C     0.82288   0.16845   0.88303   0.00000  Uiso   1.00
C1138  C     0.81395   0.17373   0.52287   0.00000  Uiso   1.00
C1139  C     0.81165   0.17225   0.97414   0.00000  Uiso   1.00
C1140  C     0.95853   0.16525   0.73968   0.00000  Uiso   1.00
C1141  C     0.71019   0.16624   0.76763   0.00000  Uiso   1.00
C1142  C     0.86920   0.04105   0.82947   0.00000  Uiso   1.00
C1143  C     0.91022   0.06876   0.83742   0.00000  Uiso   1.00
C1144  C     0.92243   0.07685   0.88742   0.00000  Uiso   1.00
C1145  C     0.83287   0.16676   0.66400   0.00000  Uiso   1.00
C1146  C     0.76202   0.28965   0.70232   0.00000  Uiso   1.00
C1147  C     0.76520   0.26201   0.65924   0.00000  Uiso   1.00
C1148  C     0.72961   0.27159   0.62244   0.00000  Uiso   1.00
C1149  C     0.79037   0.04344   0.67341   0.00000  Uiso   1.00
C1150  C     0.74894   0.07023   0.67641   0.00000  Uiso   1.00
C1151  C     0.71477   0.06074   0.63799   0.00000  Uiso   1.00
C1152  C     0.90548   0.29025   0.79592   0.00000  Uiso   1.00
C1153  C     0.90396   0.26281   0.83914   0.00000  Uiso   1.00
C1154  C     0.94207   0.27136   0.87323   0.00000  Uiso   1.00
C1155  C     0.70974   0.08650   0.79075   0.00000  Uiso   1.00
C1156  C     0.83117   0.16691   0.83587   0.00000  Uiso   1.00
C1157  C     0.96641   0.24240   0.70948   0.00000  Uiso   1.00
C1158  C     0.96108   0.08349   0.72530   0.00000  Uiso   1.00
C1159  C     0.70289   0.24527   0.79230   0.00000  Uiso   1.00
C1160  C     0.85786   0.02335   0.78211   0.00000  Uiso   1.00
C1161  C     0.80372   0.30983   0.72293   0.00000  Uiso   1.00
C1162  C     0.80886   0.02335   0.71776   0.00000  Uiso   1.00
C1163  C     0.86322   0.30993   0.77653   0.00000  Uiso   1.00
C1164  C     0.68880   0.12526   0.76646   0.00000  Uiso   1.00
H1165  H     0.85893   0.22832   0.52903   0.00000  Uiso   1.00
H1166  H     0.92638   0.04509   0.90598   0.00000  Uiso   1.00
H1167  H     0.95301   0.09519   0.89171   0.00000  Uiso   1.00
H1168  H     0.93736   0.05203   0.82363   0.00000  Uiso   1.00
H1169  H     0.90641   0.10146   0.82168   0.00000  Uiso   1.00
H1170  H     0.84112   0.05782   0.84019   0.00000  Uiso   1.00
H1171  H     0.87228   0.01302   0.85346   0.00000  Uiso   1.00
H1172  H     0.69800   0.26953   0.63592   0.00000  Uiso   1.00
H1173  H     0.73376   0.30474   0.60760   0.00000  Uiso   1.00
H1174  H     0.73079   0.24667   0.59513   0.00000  Uiso   1.00
H1175  H     0.79609   0.26796   0.64506   0.00000  Uiso   1.00
H1176  H     0.81305   0.10030   0.97096   0.00000  Uiso   1.00
H1177  H     0.76196   0.22652   0.66760   0.00000  Uiso   1.00
H1178  H     0.74667   0.27133   0.72784   0.00000  Uiso   1.00
H1179  H     0.73804   0.31613   0.69540   0.00000  Uiso   1.00
H1180  H     0.72849   0.06038   0.60501   0.00000  Uiso   1.00
H1181  H     0.69910   0.02857   0.64329   0.00000  Uiso   1.00
H1182  H     0.68990   0.08691   0.63727   0.00000  Uiso   1.00
H1183  H     0.73510   0.06296   0.70824   0.00000  Uiso   1.00
H1184  H     0.75586   0.10605   0.67524   0.00000  Uiso   1.00
H1185  H     0.81520   0.06151   0.65755   0.00000  Uiso   1.00
H1186  H     0.78430   0.01682   0.64810   0.00000  Uiso   1.00
H1187  H     0.80930   0.24351   0.96541   0.00000  Uiso   1.00
H1188  H     0.97192   0.26060   0.85940   0.00000  Uiso   1.00
H1189  H     0.94435   0.30701   0.88212   0.00000  Uiso   1.00
H1190  H     0.93836   0.25213   0.90431   0.00000  Uiso   1.00
H1191  H     0.87460   0.27037   0.85541   0.00000  Uiso   1.00
H1192  H     0.90494   0.22708   0.83092   0.00000  Uiso   1.00
H1193  H     0.92044   0.27210   0.76987   0.00000  Uiso   1.00
H1194  H     0.92881   0.31722   0.80243   0.00000  Uiso   1.00
H1195  H     0.75167   0.06603   0.84157   0.00000  Uiso   1.00
H1196  H     0.92419   0.26404   0.65959   0.00000  Uiso   1.00
H1197  H     0.93012   0.05648   0.66983   0.00000  Uiso   1.00
H1198  H     0.77042   0.11889   0.52849   0.00000  Uiso   1.00
H1199  H     0.74660   0.26993   0.83927   0.00000  Uiso   1.00
H1200  H     0.86919   0.22472   0.61075   0.00000  Uiso   1.00
H1201  H     0.81892   0.09733   0.89156   0.00000  Uiso   1.00
H1202  H     0.81814   0.24042   0.88575   0.00000  Uiso   1.00
H1203  H     0.78352   0.11367   0.60907   0.00000  Uiso   1.00
H1204  H     0.89784   0.09704   0.90221   0.00000  Uiso   1.00
N1205  N     0.83333   0.28573   0.75000   0.00000  Uiso   1.00
N1206  N     0.83333   0.04760   0.75000   0.00000  Uiso   1.00
O1207  O     0.77226   0.20487   0.75000   0.00000  Uiso   1.00
O1208  O     0.73895   0.09436   0.82794   0.00000  Uiso   1.00
O1209  O     0.98724   0.27639   0.70798   0.00000  Uiso   1.00
O1210  O     0.93040   0.23698   0.67917   0.00000  Uiso   1.00
O1211  O     0.95898   0.04905   0.74633   0.00000  Uiso   1.00
O1212  O     0.94310   0.08568   0.68084   0.00000  Uiso   1.00
O1213  O     0.68223   0.27963   0.79182   0.00000  Uiso   1.00
O1214  O     0.73974   0.24161   0.82178   0.00000  Uiso   1.00
O1215  O     0.89441   0.12846   0.75001   0.00000  Uiso   1.00
O1216  O     0.89441   0.20487   0.75001   0.00000  Uiso   1.00
O1217  O     0.77226   0.12846   0.75000   0.00000  Uiso   1.00
O1218  O     0.83333   0.20489   0.68453   0.00000  Uiso   1.00
O1219  O     0.83334   0.12845   0.81547   0.00000  Uiso   1.00
O1220  O     0.83334   0.20489   0.81547   0.00000  Uiso   1.00
O1221  O     0.83333   0.12845   0.68453   0.00000  Uiso   1.00
O1222  O     0.70226   0.04838   0.77882   0.00000  Uiso   1.00
Zn1223 Zn    0.83333   0.21771   0.75000   0.00000  Uiso   1.00
Zn1224 Zn    0.83333   0.11563   0.75000   0.00000  Uiso   1.00
C1225  C     0.08756   0.49998   0.75665   0.00000  Uiso   1.00
C1226  C     0.31410   0.53894   0.74091   0.00000  Uiso   1.00
C1227  C     0.31354   0.45772   0.74670   0.00000  Uiso   1.00
C1228  C     0.02096   0.53964   0.76427   0.00000  Uiso   1.00
C1229  C     0.17483   0.53716   0.54644   0.00000  Uiso   1.00
C1230  C     0.14670   0.46448   0.95251   0.00000  Uiso   1.00
C1231  C     0.14540   0.54482   0.94941   0.00000  Uiso   1.00
C1232  C     0.12583   0.47514   0.54605   0.00000  Uiso   1.00
C1233  C     0.18145   0.53454   0.59280   0.00000  Uiso   1.00
C1234  C     0.15140   0.46270   0.90706   0.00000  Uiso   1.00
C1235  C     0.15101   0.54293   0.90404   0.00000  Uiso   1.00
C1236  C     0.24646   0.49976   0.74522   0.00000  Uiso   1.00
C1237  C     0.13354   0.47182   0.59208   0.00000  Uiso   1.00
C1238  C     0.16149   0.50117   0.61556   0.00000  Uiso   1.00
C1239  C     0.15621   0.50178   0.88303   0.00000  Uiso   1.00
C1240  C     0.14728   0.50707   0.52287   0.00000  Uiso   1.00
C1241  C     0.14499   0.50558   0.97414   0.00000  Uiso   1.00
C1242  C     0.29186   0.49859   0.73968   0.00000  Uiso   1.00
C1243  C     0.04352   0.49957   0.76763   0.00000  Uiso   1.00
C1244  C     0.20254   0.37438   0.82947   0.00000  Uiso   1.00
C1245  C     0.24355   0.40210   0.83742   0.00000  Uiso   1.00
C1246  C     0.25576   0.41018   0.88742   0.00000  Uiso   1.00
C1247  C     0.16620   0.50010   0.66400   0.00000  Uiso   1.00
C1248  C     0.09535   0.62298   0.70232   0.00000  Uiso   1.00
C1249  C     0.09854   0.59535   0.65924   0.00000  Uiso   1.00
C1250  C     0.06294   0.60493   0.62244   0.00000  Uiso   1.00
C1251  C     0.12371   0.37677   0.67341   0.00000  Uiso   1.00
C1252  C     0.08227   0.40356   0.67641   0.00000  Uiso   1.00
C1253  C     0.04811   0.39407   0.63799   0.00000  Uiso   1.00
C1254  C     0.23881   0.62358   0.79592   0.00000  Uiso   1.00
C1255  C     0.23730   0.59614   0.83914   0.00000  Uiso   1.00
C1256  C     0.27540   0.60469   0.87323   0.00000  Uiso   1.00
C1257  C     0.04308   0.41984   0.79075   0.00000  Uiso   1.00
C1258  C     0.16450   0.50025   0.83587   0.00000  Uiso   1.00
C1259  C     0.29974   0.57573   0.70948   0.00000  Uiso   1.00
C1260  C     0.29441   0.41683   0.72530   0.00000  Uiso   1.00
C1261  C     0.03622   0.57860   0.79230   0.00000  Uiso   1.00
C1262  C     0.19119   0.35668   0.78211   0.00000  Uiso   1.00
C1263  C     0.13705   0.64316   0.72293   0.00000  Uiso   1.00
C1264  C     0.14220   0.35668   0.71776   0.00000  Uiso   1.00
C1265  C     0.19655   0.64326   0.77653   0.00000  Uiso   1.00
C1266  C     0.02213   0.45859   0.76646   0.00000  Uiso   1.00
H1267  H     0.19226   0.56165   0.52903   0.00000  Uiso   1.00
H1268  H     0.25971   0.37843   0.90598   0.00000  Uiso   1.00
H1269  H     0.28634   0.42852   0.89171   0.00000  Uiso   1.00
H1270  H     0.27070   0.38536   0.82363   0.00000  Uiso   1.00
H1271  H     0.23974   0.43479   0.82168   0.00000  Uiso   1.00
H1272  H     0.17445   0.39115   0.84019   0.00000  Uiso   1.00
H1273  H     0.20562   0.34636   0.85346   0.00000  Uiso   1.00
H1274  H     0.03134   0.60287   0.63592   0.00000  Uiso   1.00
H1275  H     0.06710   0.63807   0.60760   0.00000  Uiso   1.00
H1276  H     0.06412   0.58000   0.59513   0.00000  Uiso   1.00
H1277  H     0.12942   0.60129   0.64506   0.00000  Uiso   1.00
H1278  H     0.14638   0.43363   0.97096   0.00000  Uiso   1.00
H1279  H     0.09530   0.55985   0.66760   0.00000  Uiso   1.00
H1280  H     0.08000   0.60466   0.72784   0.00000  Uiso   1.00
H1281  H     0.07137   0.64946   0.69540   0.00000  Uiso   1.00
H1282  H     0.06182   0.39371   0.60501   0.00000  Uiso   1.00
H1283  H     0.03244   0.36190   0.64329   0.00000  Uiso   1.00
H1284  H     0.02323   0.42024   0.63727   0.00000  Uiso   1.00
H1285  H     0.06843   0.39630   0.70824   0.00000  Uiso   1.00
H1286  H     0.08919   0.43938   0.67524   0.00000  Uiso   1.00
H1287  H     0.14853   0.39484   0.65755   0.00000  Uiso   1.00
H1288  H     0.11763   0.35016   0.64810   0.00000  Uiso   1.00
H1289  H     0.14263   0.57684   0.96541   0.00000  Uiso   1.00
H1290  H     0.30525   0.59393   0.85940   0.00000  Uiso   1.00
H1291  H     0.27768   0.64034   0.88212   0.00000  Uiso   1.00
H1292  H     0.27169   0.58547   0.90431   0.00000  Uiso   1.00
H1293  H     0.20793   0.60371   0.85541   0.00000  Uiso   1.00
H1294  H     0.23827   0.56041   0.83092   0.00000  Uiso   1.00
H1295  H     0.25377   0.60543   0.76987   0.00000  Uiso   1.00
H1296  H     0.26214   0.65055   0.80243   0.00000  Uiso   1.00
H1297  H     0.08500   0.39936   0.84157   0.00000  Uiso   1.00
H1298  H     0.25752   0.59738   0.65959   0.00000  Uiso   1.00
H1299  H     0.26345   0.38982   0.66983   0.00000  Uiso   1.00
H1300  H     0.10376   0.45223   0.52849   0.00000  Uiso   1.00
H1301  H     0.07993   0.60326   0.83927   0.00000  Uiso   1.00
H1302  H     0.20252   0.55805   0.61075   0.00000  Uiso   1.00
H1303  H     0.15225   0.43066   0.89156   0.00000  Uiso   1.00
H1304  H     0.15147   0.57375   0.88575   0.00000  Uiso   1.00
H1305  H     0.11685   0.44701   0.60907   0.00000  Uiso   1.00
H1306  H     0.23117   0.43037   0.90221   0.00000  Uiso   1.00
N1307  N     0.16667   0.61907   0.75000   0.00000  Uiso   1.00
N1308  N     0.16667   0.38093   0.75000   0.00000  Uiso   1.00
O1309  O     0.10559   0.53821   0.75000   0.00000  Uiso   1.00
O1310  O     0.07228   0.42770   0.82794   0.00000  Uiso   1.00
O1311  O     0.32057   0.60972   0.70798   0.00000  Uiso   1.00
O1312  O     0.26374   0.57031   0.67917   0.00000  Uiso   1.00
O1313  O     0.29232   0.38238   0.74633   0.00000  Uiso   1.00
O1314  O     0.27644   0.41901   0.68084   0.00000  Uiso   1.00
O1315  O     0.01557   0.61296   0.79182   0.00000  Uiso   1.00
O1316  O     0.07307   0.57495   0.82178   0.00000  Uiso   1.00
O1317  O     0.22774   0.46179   0.75001   0.00000  Uiso   1.00
O1318  O     0.22774   0.53821   0.75001   0.00000  Uiso   1.00
O1319  O     0.10559   0.46179   0.75000   0.00000  Uiso   1.00
O1320  O     0.16666   0.53822   0.68453   0.00000  Uiso   1.00
O1321  O     0.16667   0.46178   0.81547   0.00000  Uiso   1.00
O1322  O     0.16667   0.53822   0.81547   0.00000  Uiso   1.00
O1323  O     0.16666   0.46178   0.68453   0.00000  Uiso   1.00
O1324  O     0.03560   0.38171   0.77882   0.00000  Uiso   1.00
Zn1325 Zn    0.16667   0.55104   0.75000   0.00000  Uiso   1.00
Zn1326 Zn    0.16667   0.44896   0.75000   0.00000  Uiso   1.00
C1327  C     0.42089   0.49998   0.75665   0.00000  Uiso   1.00
C1328  C     0.64743   0.53894   0.74091   0.00000  Uiso   1.00
C1329  C     0.64687   0.45772   0.74670   0.00000  Uiso   1.00
C1330  C     0.35429   0.53964   0.76427   0.00000  Uiso   1.00
C1331  C     0.50817   0.53716   0.54644   0.00000  Uiso   1.00
C1332  C     0.48003   0.46448   0.95251   0.00000  Uiso   1.00
C1333  C     0.47874   0.54482   0.94941   0.00000  Uiso   1.00
C1334  C     0.45916   0.47514   0.54605   0.00000  Uiso   1.00
C1335  C     0.51479   0.53454   0.59280   0.00000  Uiso   1.00
C1336  C     0.48473   0.46270   0.90706   0.00000  Uiso   1.00
C1337  C     0.48434   0.54293   0.90404   0.00000  Uiso   1.00
C1338  C     0.57980   0.49976   0.74522   0.00000  Uiso   1.00
C1339  C     0.46687   0.47182   0.59208   0.00000  Uiso   1.00
C1340  C     0.49483   0.50117   0.61556   0.00000  Uiso   1.00
C1341  C     0.48955   0.50178   0.88303   0.00000  Uiso   1.00
C1342  C     0.48061   0.50707   0.52287   0.00000  Uiso   1.00
C1343  C     0.47832   0.50558   0.97414   0.00000  Uiso   1.00
C1344  C     0.62519   0.49859   0.73968   0.00000  Uiso   1.00
C1345  C     0.37685   0.49957   0.76763   0.00000  Uiso   1.00
C1346  C     0.53587   0.37438   0.82947   0.00000  Uiso   1.00
C1347  C     0.57689   0.40210   0.83742   0.00000  Uiso   1.00
C1348  C     0.58910   0.41018   0.88742   0.00000  Uiso   1.00
C1349  C     0.49954   0.50010   0.66400   0.00000  Uiso   1.00
C1350  C     0.42868   0.62298   0.70232   0.00000  Uiso   1.00
C1351  C     0.43187   0.59535   0.65924   0.00000  Uiso   1.00
C1352  C     0.39627   0.60493   0.62244   0.00000  Uiso   1.00
C1353  C     0.45704   0.37677   0.67341   0.00000  Uiso   1.00
C1354  C     0.41560   0.40356   0.67641   0.00000  Uiso   1.00
C1355  C     0.38144   0.39407   0.63799   0.00000  Uiso   1.00
C1356  C     0.57214   0.62358   0.79592   0.00000  Uiso   1.00
C1357  C     0.57063   0.59614   0.83914   0.00000  Uiso   1.00
C1358  C     0.60874   0.60469   0.87323   0.00000  Uiso   1.00
C1359  C     0.37641   0.41984   0.79075   0.00000  Uiso   1.00
C1360  C     0.49783   0.50025   0.83587   0.00000  Uiso   1.00
C1361  C     0.63308   0.57573   0.70948   0.00000  Uiso   1.00
C1362  C     0.62774   0.41683   0.72530   0.00000  Uiso   1.00
C1363  C     0.36955   0.57860   0.79230   0.00000  Uiso   1.00
C1364  C     0.52452   0.35668   0.78211   0.00000  Uiso   1.00
C1365  C     0.47039   0.64316   0.72293   0.00000  Uiso   1.00
C1366  C     0.47553   0.35668   0.71776   0.00000  Uiso   1.00
C1367  C     0.52989   0.64326   0.77653   0.00000  Uiso   1.00
C1368  C     0.35546   0.45859   0.76646   0.00000  Uiso   1.00
H1369  H     0.52560   0.56165   0.52903   0.00000  Uiso   1.00
H1370  H     0.59305   0.37843   0.90598   0.00000  Uiso   1.00
H1371  H     0.61967   0.42852   0.89171   0.00000  Uiso   1.00
H1372  H     0.60403   0.38536   0.82363   0.00000  Uiso   1.00
H1373  H     0.57307   0.43479   0.82168   0.00000  Uiso   1.00
H1374  H     0.50779   0.39115   0.84019   0.00000  Uiso   1.00
H1375  H     0.53895   0.34636   0.85346   0.00000  Uiso   1.00
H1376  H     0.36467   0.60287   0.63592   0.00000  Uiso   1.00
H1377  H     0.40043   0.63807   0.60760   0.00000  Uiso   1.00
H1378  H     0.39746   0.58000   0.59513   0.00000  Uiso   1.00
H1379  H     0.46276   0.60129   0.64506   0.00000  Uiso   1.00
H1380  H     0.47972   0.43363   0.97096   0.00000  Uiso   1.00
H1381  H     0.42863   0.55985   0.66760   0.00000  Uiso   1.00
H1382  H     0.41333   0.60466   0.72784   0.00000  Uiso   1.00
H1383  H     0.40471   0.64946   0.69540   0.00000  Uiso   1.00
H1384  H     0.39515   0.39371   0.60501   0.00000  Uiso   1.00
H1385  H     0.36577   0.36190   0.64329   0.00000  Uiso   1.00
H1386  H     0.35656   0.42024   0.63727   0.00000  Uiso   1.00
H1387  H     0.40177   0.39630   0.70824   0.00000  Uiso   1.00
H1388  H     0.42252   0.43938   0.67524   0.00000  Uiso   1.00
H1389  H     0.48187   0.39484   0.65755   0.00000  Uiso   1.00
H1390  H     0.45096   0.35016   0.64810   0.00000  Uiso   1.00
H1391  H     0.47596   0.57684   0.96541   0.00000  Uiso   1.00
H1392  H     0.63859   0.59393   0.85940   0.00000  Uiso   1.00
H1393  H     0.61101   0.64034   0.88212   0.00000  Uiso   1.00
H1394  H     0.60503   0.58547   0.90431   0.00000  Uiso   1.00
H1395  H     0.54126   0.60371   0.85541   0.00000  Uiso   1.00
H1396  H     0.57161   0.56041   0.83092   0.00000  Uiso   1.00
H1397  H     0.58711   0.60543   0.76987   0.00000  Uiso   1.00
H1398  H     0.59547   0.65055   0.80243   0.00000  Uiso   1.00
H1399  H     0.41834   0.39936   0.84157   0.00000  Uiso   1.00
H1400  H     0.59086   0.59738   0.65959   0.00000  Uiso   1.00
H1401  H     0.59678   0.38982   0.66983   0.00000  Uiso   1.00
H1402  H     0.43709   0.45223   0.52849   0.00000  Uiso   1.00
H1403  H     0.41326   0.60326   0.83927   0.00000  Uiso   1.00
H1404  H     0.53585   0.55805   0.61075   0.00000  Uiso   1.00
H1405  H     0.48558   0.43066   0.89156   0.00000  Uiso   1.00
H1406  H     0.48481   0.57375   0.88575   0.00000  Uiso   1.00
H1407  H     0.45019   0.44701   0.60907   0.00000  Uiso   1.00
H1408  H     0.56450   0.43037   0.90221   0.00000  Uiso   1.00
N1409  N     0.50000   0.61907   0.75000   0.00000  Uiso   1.00
N1410  N     0.50000   0.38093   0.75000   0.00000  Uiso   1.00
O1411  O     0.43892   0.53821   0.75000   0.00000  Uiso   1.00
O1412  O     0.40562   0.42770   0.82794   0.00000  Uiso   1.00
O1413  O     0.65390   0.60972   0.70798   0.00000  Uiso   1.00
O1414  O     0.59707   0.57031   0.67917   0.00000  Uiso   1.00
O1415  O     0.62565   0.38238   0.74633   0.00000  Uiso   1.00
O1416  O     0.60977   0.41901   0.68084   0.00000  Uiso   1.00
O1417  O     0.34890   0.61296   0.79182   0.00000  Uiso   1.00
O1418  O     0.40640   0.57495   0.82178   0.00000  Uiso   1.00
O1419  O     0.56108   0.46179   0.75001   0.00000  Uiso   1.00
O1420  O     0.56108   0.53821   0.75001   0.00000  Uiso   1.00
O1421  O     0.43892   0.46179   0.75000   0.00000  Uiso   1.00
O1422  O     0.50000   0.53822   0.68453   0.00000  Uiso   1.00
O1423  O     0.50000   0.46178   0.81547   0.00000  Uiso   1.00
O1424  O     0.50000   0.53822   0.81547   0.00000  Uiso   1.00
O1425  O     0.50000   0.46178   0.68453   0.00000  Uiso   1.00
O1426  O     0.36893   0.38171   0.77882   0.00000  Uiso   1.00
Zn1427 Zn    0.50000   0.55104   0.75000   0.00000  Uiso   1.00
Zn1428 Zn    0.50000   0.44896   0.75000   0.00000  Uiso   1.00
C1429  C     0.75423   0.49998   0.75665   0.00000  Uiso   1.00
C1430  C     0.98077   0.53894   0.74091   0.00000  Uiso   1.00
C1431  C     0.98021   0.45772   0.74670   0.00000  Uiso   1.00
C1432  C     0.68762   0.53964   0.76427   0.00000  Uiso   1.00
C1433  C     0.84150   0.53716   0.54644   0.00000  Uiso   1.00
C1434  C     0.81337   0.46448   0.95251   0.00000  Uiso   1.00
C1435  C     0.81207   0.54482   0.94941   0.00000  Uiso   1.00
C1436  C     0.79250   0.47514   0.54605   0.00000  Uiso   1.00
C1437  C     0.84812   0.53454   0.59280   0.00000  Uiso   1.00
C1438  C     0.81806   0.46270   0.90706   0.00000  Uiso   1.00
C1439  C     0.81768   0.54293   0.90404   0.00000  Uiso   1.00
C1440  C     0.91313   0.49976   0.74522   0.00000  Uiso   1.00
C1441  C     0.80020   0.47182   0.59208   0.00000  Uiso   1.00
C1442  C     0.82816   0.50117   0.61556   0.00000  Uiso   1.00
C1443  C     0.82288   0.50178   0.88303   0.00000  Uiso   1.00
C1444  C     0.81395   0.50707   0.52287   0.00000  Uiso   1.00
C1445  C     0.81165   0.50558   0.97414   0.00000  Uiso   1.00
C1446  C     0.95853   0.49859   0.73968   0.00000  Uiso   1.00
C1447  C     0.71019   0.49957   0.76763   0.00000  Uiso   1.00
C1448  C     0.86920   0.37438   0.82947   0.00000  Uiso   1.00
C1449  C     0.91022   0.40210   0.83742   0.00000  Uiso   1.00
C1450  C     0.92243   0.41018   0.88742   0.00000  Uiso   1.00
C1451  C     0.83287   0.50010   0.66400   0.00000  Uiso   1.00
C1452  C     0.76202   0.62298   0.70232   0.00000  Uiso   1.00
C1453  C     0.76520   0.59535   0.65924   0.00000  Uiso   1.00
C1454  C     0.72961   0.60493   0.62244   0.00000  Uiso   1.00
C1455  C     0.79037   0.37677   0.67341   0.00000  Uiso   1.00
C1456  C     0.74894   0.40356   0.67641   0.00000  Uiso   1.00
C1457  C     0.71477   0.39407   0.63799   0.00000  Uiso   1.00
C1458  C     0.90548   0.62358   0.79592   0.00000  Uiso   1.00
C1459  C     0.90396   0.59614   0.83914   0.00000  Uiso   1.00
C1460  C     0.94207   0.60469   0.87323   0.00000  Uiso   1.00
C1461  C     0.70974   0.41984   0.79075   0.00000  Uiso   1.00
C1462  C     0.83117   0.50025   0.83587   0.00000  Uiso   1.00
C1463  C     0.96641   0.57573   0.70948   0.00000  Uiso   1.00
C1464  C     0.96108   0.41683   0.72530   0.00000  Uiso   1.00
C1465  C     0.70289   0.57860   0.79230   0.00000  Uiso   1.00
C1466  C     0.85786   0.35668   0.78211   0.00000  Uiso   1.00
C1467  C     0.80372   0.64316   0.72293   0.00000  Uiso   1.00
C1468  C     0.80886   0.35668   0.71776   0.00000  Uiso   1.00
C1469  C     0.86322   0.64326   0.77653   0.00000  Uiso   1.00
C1470  C     0.68880   0.45859   0.76646   0.00000  Uiso   1.00
H1471  H     0.85893   0.56165   0.52903   0.00000  Uiso   1.00
H1472  H     0.92638   0.37843   0.90598   0.00000  Uiso   1.00
H1473  H     0.95301   0.42852   0.89171   0.00000  Uiso   1.00
H1474  H     0.93736   0.38536   0.82363   0.00000  Uiso   1.00
H1475  H     0.90641   0.43479   0.82168   0.00000  Uiso   1.00
H1476  H     0.84112   0.39115   0.84019   0.00000  Uiso   1.00
H1477  H     0.87228   0.34636   0.85346   0.00000  Uiso   1.00
H1478  H     0.69800   0.60287   0.63592   0.00000  Uiso   1.00
H1479  H     0.73376   0.63807   0.60760   0.00000  Uiso   1.00
H1480  H     0.73079   0.58000   0.59513   0.00000  Uiso   1.00
H1481  H     0.79609   0.60129   0.64506   0.00000  Uiso   1.00
H1482  H     0.81305   0.43363   0.97096   0.00000  Uiso   1.00
H1483  H     0.76196   0.55985   0.66760   0.00000  Uiso   1.00
H1484  H     0.74667   0.60466   0.72784   0.00000  Uiso   1.00
H1485  H     0.73804   0.64946   0.69540   0.00000  Uiso   1.00
H1486  H     0.72849   0.39371   0.60501   0.00000  Uiso   1.00
H1487  H     0.69910   0.36190   0.64329   0.00000  Uiso   1.00
H1488  H     0.68990   0.42024   0.63727   0.00000  Uiso   1.00
H1489  H     0.73510   0.39630   0.70824   0.00000  Uiso   1.00
H1490  H     0.75586   0.43938   0.67524   0.00000  Uiso   1.00
H1491  H     0.81520   0.39484   0.65755   0.00000  Uiso   1.00
H1492  H     0.78430   0.35016   0.64810   0.00000  Uiso   1.00
H1493  H     0.80930   0.57684   0.96541   0.00000  Uiso   1.00
H1494  H     0.97192   0.59393   0.85940   0.00000  Uiso   1.00
H1495  H     0.94435   0.64034   0.88212   0.00000  Uiso   1.00
H1496  H     0.93836   0.58547   0.90431   0.00000  Uiso   1.00
H1497  H     0.87460   0.60371   0.85541   0.00000  Uiso   1.00
H1498  H     0.90494   0.56041   0.83092   0.00000  Uiso   1.00
H1499  H     0.92044   0.60543   0.76987   0.00000  Uiso   1.00
H1500  H     0.92881   0.65055   0.80243   0.00000  Uiso   1.00
H1501  H     0.75167   0.39936   0.84157   0.00000  Uiso   1.00
H1502  H     0.92419   0.59738   0.65959   0.00000  Uiso   1.00
H1503  H     0.93012   0.38982   0.66983   0.00000  Uiso   1.00
H1504  H     0.77042   0.45223   0.52849   0.00000  Uiso   1.00
H1505  H     0.74660   0.60326   0.83927   0.00000  Uiso   1.00
H1506  H     0.86919   0.55805   0.61075   0.00000  Uiso   1.00
H1507  H     0.81892   0.43066   0.89156   0.00000  Uiso   1.00
H1508  H     0.81814   0.57375   0.88575   0.00000  Uiso   1.00
H1509  H     0.78352   0.44701   0.60907   0.00000  Uiso   1.00
H1510  H     0.89784   0.43037   0.90221   0.00000  Uiso   1.00
N1511  N     0.83333   0.61907   0.75000   0.00000  Uiso   1.00
N1512  N     0.83333   0.38093   0.75000   0.00000  Uiso   1.00
O1513  O     0.77226   0.53821   0.75000   0.00000  Uiso   1.00
O1514  O     0.73895   0.42770   0.82794   0.00000  Uiso   1.00
O1515  O     0.98724   0.60972   0.70798   0.00000  Uiso   1.00
O1516  O     0.93040   0.57031   0.67917   0.00000  Uiso   1.00
O1517  O     0.95898   0.38238   0.74633   0.00000  Uiso   1.00
O1518  O     0.94310   0.41901   0.68084   0.00000  Uiso   1.00
O1519  O     0.68223   0.61296   0.79182   0.00000  Uiso   1.00
O1520  O     0.73974   0.57495   0.82178   0.00000  Uiso   1.00
O1521  O     0.89441   0.46179   0.75001   0.00000  Uiso   1.00
O1522  O     0.89441   0.53821   0.75001   0.00000  Uiso   1.00
O1523  O     0.77226   0.46179   0.75000   0.00000  Uiso   1.00
O1524  O     0.83333   0.53822   0.68453   0.00000  Uiso   1.00
O1525  O     0.83334   0.46178   0.81547   0.00000  Uiso   1.00
O1526  O     0.83334   0.53822   0.81547   0.00000  Uiso   1.00
O1527  O     0.83333   0.46178   0.68453   0.00000  Uiso   1.00
O1528  O     0.70226   0.38171   0.77882   0.00000  Uiso   1.00
Zn1529 Zn    0.83333   0.55104   0.75000   0.00000  Uiso   1.00
Zn1530 Zn    0.83333   0.44896   0.75000   0.00000  Uiso   1.00
C1531  C     0.08756   0.83332   0.75665   0.00000  Uiso   1.00
C1532  C     0.31410   0.87227   0.74091   0.00000  Uiso   1.00
C1533  C     0.31354   0.79105   0.74670   0.00000  Uiso   1.00
C1534  C     0.02096   0.87297   0.76427   0.00000  Uiso   1.00
C1535  C     0.17483   0.87049   0.54644   0.00000  Uiso   1.00
C1536  C     0.14670   0.79781   0.95251   0.00000  Uiso   1.00
C1537  C     0.14540   0.87815   0.94941   0.00000  Uiso   1.00
C1538  C     0.12583   0.80847   0.54605   0.00000  Uiso   1.00
C1539  C     0.18145   0.86787   0.59280   0.00000  Uiso   1.00
C1540  C     0.15140   0.79604   0.90706   0.00000  Uiso   1.00
C1541  C     0.15101   0.87626   0.90404   0.00000  Uiso   1.00
C1542  C     0.24646   0.83309   0.74522   0.00000  Uiso   1.00
C1543  C     0.13354   0.80515   0.59208   0.00000  Uiso   1.00
C1544  C     0.16149   0.83451   0.61556   0.00000  Uiso   1.00
C1545  C     0.15621   0.83511   0.88303   0.00000  Uiso   1.00
C1546  C     0.14728   0.84040   0.52287   0.00000  Uiso   1.00
C1547  C     0.14499   0.83891   0.97414   0.00000  Uiso   1.00
C1548  C     0.29186   0.83192   0.73968   0.00000  Uiso   1.00
C1549  C     0.04352   0.83291   0.76763   0.00000  Uiso   1.00
C1550  C     0.20254   0.70772   0.82947   0.00000  Uiso   1.00
C1551  C     0.24355   0.73543   0.83742   0.00000  Uiso   1.00
C1552  C     0.25576   0.74351   0.88742   0.00000  Uiso   1.00
C1553  C     0.16620   0.83343   0.66400   0.00000  Uiso   1.00
C1554  C     0.09535   0.95631   0.70232   0.00000  Uiso   1.00
C1555  C     0.09854   0.92868   0.65924   0.00000  Uiso   1.00
C1556  C     0.06294   0.93826   0.62244   0.00000  Uiso   1.00
C1557  C     0.12371   0.71010   0.67341   0.00000  Uiso   1.00
C1558  C     0.08227   0.73690   0.67641   0.00000  Uiso   1.00
C1559  C     0.04811   0.72740   0.63799   0.00000  Uiso   1.00
C1560  C     0.23881   0.95692   0.79592   0.00000  Uiso   1.00
C1561  C     0.23730   0.92948   0.83914   0.00000  Uiso   1.00
C1562  C     0.27540   0.93803   0.87323   0.00000  Uiso   1.00
C1563  C     0.04308   0.75317   0.79075   0.00000  Uiso   1.00
C1564  C     0.16450   0.83358   0.83587   0.00000  Uiso   1.00
C1565  C     0.29974   0.90906   0.70948   0.00000  Uiso   1.00
C1566  C     0.29441   0.75016   0.72530   0.00000  Uiso   1.00
C1567  C     0.03622   0.91193   0.79230   0.00000  Uiso   1.00
C1568  C     0.19119   0.69001   0.78211   0.00000  Uiso   1.00
C1569  C     0.13705   0.97649   0.72293   0.00000  Uiso   1.00
C1570  C     0.14220   0.69001   0.71776   0.00000  Uiso   1.00
C1571  C     0.19655   0.97660   0.77653   0.00000  Uiso   1.00
C1572  C     0.02213   0.79193   0.76646   0.00000  Uiso   1.00
H1573  H     0.19226   0.89499   0.52903   0.00000  Uiso   1.00
H1574  H     0.25971   0.71176   0.90598   0.00000  Uiso   1.00
H1575  H     0.28634   0.76186   0.89171   0.00000  Uiso   1.00
H1576  H     0.27070   0.71869   0.82363   0.00000  Uiso   1.00
H1577  H     0.23974   0.76812   0.82168   0.00000  Uiso   1.00
H1578  H     0.17445   0.72449   0.84019   0.00000  Uiso   1.00
H1579  H     0.20562   0.67969   0.85346   0.00000  Uiso   1.00
H1580  H     0.03134   0.93620   0.63592   0.00000  Uiso   1.00
H1581  H     0.06710   0.97140   0.60760   0.00000  Uiso   1.00
H1582  H     0.06412   0.91334   0.59513   0.00000  Uiso   1.00
H1583  H     0.12942   0.93463   0.64506   0.00000  Uiso   1.00
H1584  H     0.14638   0.76697   0.97096   0.00000  Uiso   1.00
H1585  H     0.09530   0.89318   0.66760   0.00000  Uiso   1.00
H1586  H     0.08000   0.93799   0.72784   0.00000  Uiso   1.00
H1587  H     0.07137   0.98280   0.69540   0.00000  Uiso   1.00
H1588  H     0.06182   0.72705   0.60501   0.00000  Uiso   1.00
H1589  H     0.03244   0.69524   0.64329   0.00000  Uiso   1.00
H1590  H     0.02323   0.75358   0.63727   0.00000  Uiso   1.00
H1591  H     0.06843   0.72963   0.70824   0.00000  Uiso   1.00
H1592  H     0.08919   0.77272   0.67524   0.00000  Uiso   1.00
H1593  H     0.14853   0.72817   0.65755   0.00000  Uiso   1.00
H1594  H     0.11763   0.68349   0.64810   0.00000  Uiso   1.00
H1595  H     0.14263   0.91017   0.96541   0.00000  Uiso   1.00
H1596  H     0.30525   0.92726   0.85940   0.00000  Uiso   1.00
H1597  H     0.27768   0.97368   0.88212   0.00000  Uiso   1.00
H1598  H     0.27169   0.91880   0.90431   0.00000  Uiso   1.00
H1599  H     0.20793   0.93704   0.85541   0.00000  Uiso   1.00
H1600  H     0.23827   0.89375   0.83092   0.00000  Uiso   1.00
H1601  H     0.25377   0.93877   0.76987   0.00000  Uiso   1.00
H1602  H     0.26214   0.98389   0.80243   0.00000  Uiso   1.00
H1603  H     0.08500   0.73269   0.84157   0.00000  Uiso   1.00
H1604  H     0.25752   0.93071   0.65959   0.00000  Uiso   1.00
H1605  H     0.26345   0.72315   0.66983   0.00000  Uiso   1.00
H1606  H     0.10376   0.78556   0.52849   0.00000  Uiso   1.00
H1607  H     0.07993   0.93660   0.83927   0.00000  Uiso   1.00
H1608  H     0.20252   0.89138   0.61075   0.00000  Uiso   1.00
H1609  H     0.15225   0.76400   0.89156   0.00000  Uiso   1.00
H1610  H     0.15147   0.90709   0.88575   0.00000  Uiso   1.00
H1611  H     0.11685   0.78034   0.60907   0.00000  Uiso   1.00
H1612  H     0.23117   0.76370   0.90221   0.00000  Uiso   1.00
N1613  N     0.16667   0.95240   0.75000   0.00000  Uiso   1.00
N1614  N     0.16667   0.71427   0.75000   0.00000  Uiso   1.00
O1615  O     0.10559   0.87154   0.75000   0.00000  Uiso   1.00
O1616  O     0.07228   0.76103   0.82794   0.00000  Uiso   1.00
O1617  O     0.32057   0.94306   0.70798   0.00000  Uiso   1.00
O1618  O     0.26374   0.90364   0.67917   0.00000  Uiso   1.00
O1619  O     0.29232   0.71572   0.74633   0.00000  Uiso   1.00
O1620  O     0.27644   0.75234   0.68084   0.00000  Uiso   1.00
O1621  O     0.01557   0.94629   0.79182   0.00000  Uiso   1.00
O1622  O     0.07307   0.90828   0.82178   0.00000  Uiso   1.00
O1623  O     0.22774   0.79513   0.75001   0.00000  Uiso   1.00
O1624  O     0.22774   0.87154   0.75001   0.00000  Uiso   1.00
O1625  O     0.10559   0.79513   0.75000   0.00000  Uiso   1.00
O1626  O     0.16666   0.87155   0.68453   0.00000  Uiso   1.00
O1627  O     0.16667   0.79511   0.81547   0.00000  Uiso   1.00
O1628  O     0.16667   0.87155   0.81547   0.00000  Uiso   1.00
O1629  O     0.16666   0.79511   0.68453   0.00000  Uiso   1.00
O1630  O     0.03560   0.71505   0.77882   0.00000  Uiso   1.00
Zn1631 Zn    0.16667   0.88437   0.75000   0.00000  Uiso   1.00
Zn1632 Zn    0.16667   0.78229   0.75000   0.00000  Uiso   1.00
C1633  C     0.42089   0.83332   0.75665   0.00000  Uiso   1.00
C1634  C     0.64743   0.87227   0.74091   0.00000  Uiso   1.00
C1635  C     0.64687   0.79105   0.74670   0.00000  Uiso   1.00
C1636  C     0.35429   0.87297   0.76427   0.00000  Uiso   1.00
C1637  C     0.50817   0.87049   0.54644   0.00000  Uiso   1.00
C1638  C     0.48003   0.79781   0.95251   0.00000  Uiso   1.00
C1639  C     0.47874   0.87815   0.94941   0.00000  Uiso   1.00
C1640  C     0.45916   0.80847   0.54605   0.00000  Uiso   1.00
C1641  C     0.51479   0.86787   0.59280   0.00000  Uiso   1.00
C1642  C     0.48473   0.79604   0.90706   0.00000  Uiso   1.00
C1643  C     0.48434   0.87626   0.90404   0.00000  Uiso   1.00
C1644  C     0.57980   0.83309   0.74522   0.00000  Uiso   1.00
C1645  C     0.46687   0.80515   0.59208   0.00000  Uiso   1.00
C1646  C     0.49483   0.83451   0.61556   0.00000  Uiso   1.00
C1647  C     0.48955   0.83511   0.88303   0.00000  Uiso   1.00
C1648  C     0.48061   0.84040   0.52287   0.00000  Uiso   1.00
C1649  C     0.47832   0.83891   0.97414   0.00000  Uiso   1.00
C1650  C     0.62519   0.83192   0.73968   0.00000  Uiso   1.00
C1651  C     0.37685   0.83291   0.76763   0.00000  Uiso   1.00
C1652  C     0.53587   0.70772   0.82947   0.00000  Uiso   1.00
C1653  C     0.57689   0.73543   0.83742   0.00000  Uiso   1.00
C1654  C     0.58910   0.74351   0.88742   0.00000  Uiso   1.00
C1655  C     0.49954   0.83343   0.66400   0.00000  Uiso   1.00
C1656  C     0.42868   0.95631   0.70232   0.00000  Uiso   1.00
C1657  C     0.43187   0.92868   0.65924   0.00000  Uiso   1.00
C1658  C     0.39627   0.93826   0.62244   0.00000  Uiso   1.00
C1659  C     0.45704   0.71010   0.67341   0.00000  Uiso   1.00
C1660  C     0.41560   0.73690   0.67641   0.00000  Uiso   1.00
C1661  C     0.38144   0.72740   0.63799   0.00000  Uiso   1.00
C1662  C     0.57214   0.95692   0.79592   0.00000  Uiso   1.00
C1663  C     0.57063   0.92948   0.83914   0.00000  Uiso   1.00
C1664  C     0.60874   0.93803   0.87323   0.00000  Uiso   1.00
C1665  C     0.37641   0.75317   0.79075   0.00000  Uiso   1.00
C1666  C     0.49783   0.83358   0.83587   0.00000  Uiso   1.00
C1667  C     0.63308   0.90906   0.70948   0.00000  Uiso   1.00
C1668  C     0.62774   0.75016   0.72530   0.00000  Uiso   1.00
C1669  C     0.36955   0.91193   0.79230   0.00000  Uiso   1.00
C1670  C     0.52452   0.69001   0.78211   0.00000  Uiso   1.00
C1671  C     0.47039   0.97649   0.72293   0.00000  Uiso   1.00
C1672  C     0.47553   0.69001   0.71776   0.00000  Uiso   1.00
C1673  C     0.52989   0.97660   0.77653   0.00000  Uiso   1.00
C1674  C     0.35546   0.79193   0.76646   0.00000  Uiso   1.00
H1675  H     0.52560   0.89499   0.52903   0.00000  Uiso   1.00
H1676  H     0.59305   0.71176   0.90598   0.00000  Uiso   1.00
H1677  H     0.61967   0.76186   0.89171   0.00000  Uiso   1.00
H1678  H     0.60403   0.71869   0.82363   0.00000  Uiso   1.00
H1679  H     0.57307   0.76812   0.82168   0.00000  Uiso   1.00
H1680  H     0.50779   0.72449   0.84019   0.00000  Uiso   1.00
H1681  H     0.53895   0.67969   0.85346   0.00000  Uiso   1.00
H1682  H     0.36467   0.93620   0.63592   0.00000  Uiso   1.00
H1683  H     0.40043   0.97140   0.60760   0.00000  Uiso   1.00
H1684  H     0.39746   0.91334   0.59513   0.00000  Uiso   1.00
H1685  H     0.46276   0.93463   0.64506   0.00000  Uiso   1.00
H1686  H     0.47972   0.76697   0.97096   0.00000  Uiso   1.00
H1687  H     0.42863   0.89318   0.66760   0.00000  Uiso   1.00
H1688  H     0.41333   0.93799   0.72784   0.00000  Uiso   1.00
H1689  H     0.40471   0.98280   0.69540   0.00000  Uiso   1.00
H1690  H     0.39515   0.72705   0.60501   0.00000  Uiso   1.00
H1691  H     0.36577   0.69524   0.64329   0.00000  Uiso   1.00
H1692  H     0.35656   0.75358   0.63727   0.00000  Uiso   1.00
H1693  H     0.40177   0.72963   0.70824   0.00000  Uiso   1.00
H1694  H     0.42252   0.77272   0.67524   0.00000  Uiso   1.00
H1695  H     0.48187   0.72817   0.65755   0.00000  Uiso   1.00
H1696  H     0.45096   0.68349   0.64810   0.00000  Uiso   1.00
H1697  H     0.47596   0.91017   0.96541   0.00000  Uiso   1.00
H1698  H     0.63859   0.92726   0.85940   0.00000  Uiso   1.00
H1699  H     0.61101   0.97368   0.88212   0.00000  Uiso   1.00
H1700  H     0.60503   0.91880   0.90431   0.00000  Uiso   1.00
H1701  H     0.54126   0.93704   0.85541   0.00000  Uiso   1.00
H1702  H     0.57161   0.89375   0.83092   0.00000  Uiso   1.00
H1703  H     0.58711   0.93877   0.76987   0.00000  Uiso   1.00
H1704  H     0.59547   0.98389   0.80243   0.00000  Uiso   1.00
H1705  H     0.41834   0.73269   0.84157   0.00000  Uiso   1.00
H1706  H     0.59086   0.93071   0.65959   0.00000  Uiso   1.00
H1707  H     0.59678   0.72315   0.66983   0.00000  Uiso   1.00
H1708  H     0.43709   0.78556   0.52849   0.00000  Uiso   1.00
H1709  H     0.41326   0.93660   0.83927   0.00000  Uiso   1.00
H1710  H     0.53585   0.89138   0.61075   0.00000  Uiso   1.00
H1711  H     0.48558   0.76400   0.89156   0.00000  Uiso   1.00
H1712  H     0.48481   0.90709   0.88575   0.00000  Uiso   1.00
H1713  H     0.45019   0.78034   0.60907   0.00000  Uiso   1.00
H1714  H     0.56450   0.76370   0.90221   0.00000  Uiso   1.00
N1715  N     0.50000   0.95240   0.75000   0.00000  Uiso   1.00
N1716  N     0.50000   0.71427   0.75000   0.00000  Uiso   1.00
O1717  O     0.43892   0.87154   0.75000   0.00000  Uiso   1.00
O1718  O     0.40562   0.76103   0.82794   0.00000  Uiso   1.00
O1719  O     0.65390   0.94306   0.70798   0.00000  Uiso   1.00
O1720  O     0.59707   0.90364   0.67917   0.00000  Uiso   1.00
O1721  O     0.62565   0.71572   0.74633   0.00000  Uiso   1.00
O1722  O     0.60977   0.75234   0.68084   0.00000  Uiso   1.00
O1723  O     0.34890   0.94629   0.79182   0.00000  Uiso   1.00
O1724  O     0.40640   0.90828   0.82178   0.00000  Uiso   1.00
O1725  O     0.56108   0.79513   0.75001   0.00000  Uiso   1.00
O1726  O     0.56108   0.87154   0.75001   0.00000  Uiso   1.00
O1727  O     0.43892   0.79513   0.75000   0.00000  Uiso   1.00
O1728  O     0.50000   0.87155   0.68453   0.00000  Uiso   1.00
O1729  O     0.50000   0.79511   0.81547   0.00000  Uiso   1.00
O1730  O     0.50000   0.87155   0.81547   0.00000  Uiso   1.00
O1731  O     0.50000   0.79511   0.68453   0.00000  Uiso   1.00
O1732  O     0.36893   0.71505   0.77882   0.00000  Uiso   1.00
Zn1733 Zn    0.50000   0.88437   0.75000   0.00000  Uiso   1.00
Zn1734 Zn    0.50000   0.78229   0.75000   0.00000  Uiso   1.00
C1735  C     0.75423   0.83332   0.75665   0.00000  Uiso   1.00
C1736  C     0.98077   0.87227   0.74091   0.00000  Uiso   1.00
C1737  C     0.98021   0.79105   0.74670   0.00000  Uiso   1.00
C1738  C     0.68762   0.87297   0.76427   0.00000  Uiso   1.00
C1739  C     0.84150   0.87049   0.54644   0.00000  Uiso   1.00
C1740  C     0.81337   0.79781   0.95251   0.00000  Uiso   1.00
C1741  C     0.81207   0.87815   0.94941   0.00000  Uiso   1.00
C1742  C     0.79250   0.80847   0.54605   0.00000  Uiso   1.00
C1743  C     0.84812   0.86787   0.59280   0.00000  Uiso   1.00
C1744  C     0.81806   0.79604   0.90706   0.00000  Uiso   1.00
C1745  C     0.81768   0.87626   0.90404   0.00000  Uiso   1.00
C1746  C     0.91313   0.83309   0.74522   0.00000  Uiso   1.00
C1747  C     0.80020   0.80515   0.59208   0.00000  Uiso   1.00
C1748  C     0.82816   0.83451   0.61556   0.00000  Uiso   1.00
C1749  C     0.82288   0.83511   0.88303   0.00000  Uiso   1.00
C1750  C     0.81395   0.84040   0.52287   0.00000  Uiso   1.00
C1751  C     0.81165   0.83891   0.97414   0.00000  Uiso   1.00
C1752  C     0.95853   0.83192   0.73968   0.00000  Uiso   1.00
C1753  C     0.71019   0.83291   0.76763   0.00000  Uiso   1.00
C1754  C     0.86920   0.70772   0.82947   0.00000  Uiso   1.00
C1755  C     0.91022   0.73543   0.83742   0.00000  Uiso   1.00
C1756  C     0.92243   0.74351   0.88742   0.00000  Uiso   1.00
C1757  C     0.83287   0.83343   0.66400   0.00000  Uiso   1.00
C1758  C     0.76202   0.95631   0.70232   0.00000  Uiso   1.00
C1759  C     0.76520   0.92868   0.65924   0.00000  Uiso   1.00
C1760  C     0.72961   0.93826   0.62244   0.00000  Uiso   1.00
C1761  C     0.79037   0.71010   0.67341   0.00000  Uiso   1.00
C1762  C     0.74894   0.73690   0.67641   0.00000  Uiso   1.00
C1763  C     0.71477   0.72740   0.63799   0.00000  Uiso   1.00
C1764  C     0.90548   0.95692   0.79592   0.00000  Uiso   1.00
C1765  C     0.90396   0.92948   0.83914   0.00000  Uiso   1.00
C1766  C     0.94207   0.93803   0.87323   0.00000  Uiso   1.00
C1767  C     0.70974   0.75317   0.79075   0.00000  Uiso   1.00
C1768  C     0.83117   0.83358   0.83587   0.00000  Uiso   1.00
C1769  C     0.96641   0.90906   0.70948   0.00000  Uiso   1.00
C1770  C     0.96108   0.75016   0.72530   0.00000  Uiso   1.00
C1771  C     0.70289   0.91193   0.79230   0.00000  Uiso   1.00
C1772  C     0.85786   0.69001   0.78211   0.00000  Uiso   1.00
C1773  C     0.80372   0.97649   0.72293   0.00000  Uiso   1.00
C1774  C     0.80886   0.69001   0.71776   0.00000  Uiso   1.00
C1775  C     0.86322   0.97660   0.77653   0.00000  Uiso   1.00
C1776  C     0.68880   0.79193   0.76646   0.00000  Uiso   1.00
H1777  H     0.85893   0.89499   0.52903   0.00000  Uiso   1.00
H1778  H     0.92638   0.71176   0.90598   0.00000  Uiso   1.00
H1779  H     0.95301   0.76186   0.89171   0.00000  Uiso   1.00
H1780  H     0.93736   0.71869   0.82363   0.00000  Uiso   1.00
H1781  H     0.90641   0.76812   0.82168   0.00000  Uiso   1.00
H1782  H     0.84112   0.72449   0.84019   0.00000  Uiso   1.00
H1783  H     0.87228   0.67969   0.85346   0.00000  Uiso   1.00
H1784  H     0.69800   0.93620   0.63592   0.00000  Uiso   1.00
H1785  H     0.73376   0.97140   0.60760   0.00000  Uiso   1.00
H1786  H     0.73079   0.91334   0.59513   0.00000  Uiso   1.00
H1787  H     0.79609   0.93463   0.64506   0.00000  Uiso   1.00
H1788  H     0.81305   0.76697   0.97096   0.00000  Uiso   1.00
H1789  H     0.76196   0.89318   0.66760   0.00000  Uiso   1.00
H1790  H     0.74667   0.93799   0.72784   0.00000  Uiso   1.00
H1791  H     0.73804   0.98280   0.69540   0.00000  Uiso   1.00
H1792  H     0.72849   0.72705   0.60501   0.00000  Uiso   1.00
H1793  H     0.69910   0.69524   0.64329   0.00000  Uiso   1.00
H1794  H     0.68990   0.75358   0.63727   0.00000  Uiso   1.00
H1795  H     0.73510   0.72963   0.70824   0.00000  Uiso   1.00
H1796  H     0.75586   0.77272   0.67524   0.00000  Uiso   1.00
H1797  H     0.81520   0.72817   0.65755   0.00000  Uiso   1.00
H1798  H     0.78430   0.68349   0.64810   0.00000  Uiso   1.00
H1799  H     0.80930   0.91017   0.96541   0.00000  Uiso   1.00
H1800  H     0.97192   0.92726   0.85940   0.00000  Uiso   1.00
H1801  H     0.94435   0.97368   0.88212   0.00000  Uiso   1.00
H1802  H     0.93836   0.91880   0.90431   0.00000  Uiso   1.00
H1803  H     0.87460   0.93704   0.85541   0.00000  Uiso   1.00
H1804  H     0.90494   0.89375   0.83092   0.00000  Uiso   1.00
H1805  H     0.92044   0.93877   0.76987   0.00000  Uiso   1.00
H1806  H     0.92881   0.98389   0.80243   0.00000  Uiso   1.00
H1807  H     0.75167   0.73269   0.84157   0.00000  Uiso   1.00
H1808  H     0.92419   0.93071   0.65959   0.00000  Uiso   1.00
H1809  H     0.93012   0.72315   0.66983   0.00000  Uiso   1.00
H1810  H     0.77042   0.78556   0.52849   0.00000  Uiso   1.00
H1811  H     0.74660   0.93660   0.83927   0.00000  Uiso   1.00
H1812  H     0.86919   0.89138   0.61075   0.00000  Uiso   1.00
H1813  H     0.81892   0.76400   0.89156   0.00000  Uiso   1.00
H1814  H     0.81814   0.90709   0.88575   0.00000  Uiso   1.00
H1815  H     0.78352   0.78034   0.60907   0.00000  Uiso   1.00
H1816  H     0.89784   0.76370   0.90221   0.00000  Uiso   1.00
N1817  N     0.83333   0.95240   0.75000   0.00000  Uiso   1.00
N1818  N     0.83333   0.71427   0.75000   0.00000  Uiso   1.00
O1819  O     0.77226   0.87154   0.75000   0.00000  Uiso   1.00
O1820  O     0.73895   0.76103   0.82794   0.00000  Uiso   1.00
O1821  O     0.98724   0.94306   0.70798   0.00000  Uiso   1.00
O1822  O     0.93040   0.90364   0.67917   0.00000  Uiso   1.00
O1823  O     0.95898   0.71572   0.74633   0.00000  Uiso   1.00
O1824  O     0.94310   0.75234   0.68084   0.00000  Uiso   1.00
O1825  O     0.68223   0.94629   0.79182   0.00000  Uiso   1.00
O1826  O     0.73974   0.90828   0.82178   0.00000  Uiso   1.00
O1827  O     0.89441   0.79513   0.75001   0.00000  Uiso   1.00
O1828  O     0.89441   0.87154   0.75001   0.00000  Uiso   1.00
O1829  O     0.77226   0.79513   0.75000   0.00000  Uiso   1.00
O1830  O     0.83333   0.87155   0.68453   0.00000  Uiso   1.00
O1831  O     0.83334   0.79511   0.81547   0.00000  Uiso   1.00
O1832  O     0.83334   0.87155   0.81547   0.00000  Uiso   1.00
O1833  O     0.83333   0.79511   0.68453   0.00000  Uiso   1.00
O1834  O     0.70226   0.71505   0.77882   0.00000  Uiso   1.00
Zn1835 Zn    0.83333   0.88437   0.75000   0.00000  Uiso   1.00
Zn1836 Zn    0.83333   0.78229   0.75000   0.00000  Uiso   1.00
loop_
_geom_bond_atom_site_label_1
_geom_bond_atom_site_label_2
_geom_bond_distance
_geom_bond_site_symmetry_2
_ccdc_geom_bond_type
C1     O85     1.310   .     A
C1     C19     1.455   .     S
C1     O95     1.306   .     A
C2     C35     1.498   .     S
C2     C18     1.405   .     A
C2     C106    1.392   .     S
C3     C18     1.415   .     A
C3     C36     1.492   .     S
C3     C144    1.400   .     S
C4     C19     1.400   .     A
C4     C37     1.497   .     S
C4     C206    1.392   1_455 S
C5     C16     1.403   .     A
C5     H43     1.083   .     S
C5     C9      1.384   .     A
C6     H54     1.083   .     S
C6     C17     1.400   .     A
C6     C10     1.379   .     A
C7     C11     1.383   .     A
C7     C17     1.397   .     A
C7     H65     1.083   .     S
C8     C13     1.378   .     A
C8     H76     1.083   .     S
C8     C16     1.398   .     A
C9     C14     1.398   .     A
C9     H78     1.082   .     S
C10    C15     1.397   .     A
C10    H79     1.072   .     S
C11    C15     1.405   .     A
C11    H80     1.080   .     S
C12    O94     1.313   .     A
C12    O93     1.304   .     A
C12    C18     1.456   .     S
C13    H81     1.070   .     S
C13    C14     1.395   .     A
C14    C23     1.441   .     S
C15    C34     1.455   .     S
C16    C935    1.451   1_554 S
C17    C934    1.451   .     S
C19    C42     1.409   .     A
C20    H49     1.108   .     S
C20    C38     1.523   .     S
C20    C21     1.543   .     S
C20    H48     1.091   .     S
C21    C22     1.528   .     S
C21    H46     1.103   .     S
C21    H47     1.095   .     S
C22    H82     1.107   .     S
C22    H44     1.109   .     S
C22    H45     1.111   .     S
C23    O99     1.309   .     A
C23    O96     1.302   .     A
C24    C39     1.530   .     S
C24    C25     1.542   .     S
C24    H57     1.106   .     S
C24    H56     1.090   .     S
C25    H53     1.111   .     S
C25    C26     1.528   .     S
C25    H55     1.107   .     S
C26    H50     1.110   .     S
C26    H52     1.111   .     S
C26    H51     1.107   .     S
C27    C40     1.525   .     S
C27    H63     1.097   .     S
C27    H64     1.107   .     S
C27    C28     1.544   .     S
C28    C29     1.530   .     S
C28    H61     1.103   .     S
C28    H62     1.104   .     S
C29    H59     1.108   .     S
C29    H60     1.111   .     S
C29    H58     1.110   .     S
C30    H71     1.090   .     S
C30    C31     1.539   .     S
C30    C41     1.525   .     S
C30    H72     1.104   .     S
C31    H70     1.106   .     S
C31    C32     1.527   .     S
C31    H69     1.106   .     S
C32    H68     1.111   .     S
C32    H67     1.108   .     S
C32    H66     1.109   .     S
C33    O86     1.399   .     S
C33    C42     1.498   .     S
C33    O100    1.221   .     D
C34    O97     1.314   .     A
C34    O98     1.303   .     A
C35    O87     1.222   .     D
C35    O88     1.398   .     S
C36    O89     1.220   .     D
C36    O90     1.398   .     S
C37    O91     1.222   .     D
C37    O92     1.399   .     S
C38    N84     1.387   .     A
C38    C653    1.431   1_545 S
C39    N83     1.386   .     A
C39    C346    1.433   .     S
C40    N84     1.388   .     A
C40    C651    1.433   1_545 S
C41    N83     1.385   .     A
C41    C344    1.431   .     S
C42    C207    1.400   1_455 S
H73    O86     1.014   .     S
H74    O88     1.014   .     S
H75    O90     1.014   .     S
H77    O92     1.014   .     S
N83    Zn101   2.052   .     S
N84    Zn102   2.052   .     S
O85    Zn101   1.966   .     S
O93    Zn102   1.966   .     S
O94    Zn101   1.964   .     S
O95    Zn102   1.964   .     S
O96    Zn101   1.992   .     S
O97    Zn102   1.992   .     S
O98    Zn101   1.994   .     S
O99    Zn102   1.994   .     S
C103   O187    1.310   .     A
C103   C121    1.455   .     S
C103   O197    1.306   .     A
C104   C137    1.498   .     S
C104   C120    1.405   .     A
C104   C208    1.392   .     S
C105   C120    1.415   .     A
C105   C138    1.492   .     S
C105   C246    1.400   .     S
C106   C121    1.400   .     A
C106   C139    1.497   .     S
C107   C118    1.403   .     A
C107   H145    1.083   .     S
C107   C111    1.384   .     A
C108   H156    1.083   .     S
C108   C119    1.400   .     A
C108   C112    1.379   .     A
C109   C113    1.383   .     A
C109   C119    1.397   .     A
C109   H167    1.083   .     S
C110   C115    1.378   .     A
C110   H178    1.083   .     S
C110   C118    1.398   .     A
C111   C116    1.398   .     A
C111   H180    1.082   .     S
C112   C117    1.397   .     A
C112   H181    1.072   .     S
C113   C117    1.405   .     A
C113   H182    1.080   .     S
C114   O196    1.313   .     A
C114   O195    1.304   .     A
C114   C120    1.456   .     S
C115   H183    1.070   .     S
C115   C116    1.395   .     A
C116   C125    1.441   .     S
C117   C136    1.455   .     S
C118   C1037   1.451   1_554 S
C119   C1036   1.451   .     S
C121   C144    1.409   .     A
C122   H151    1.108   .     S
C122   C140    1.523   .     S
C122   C123    1.543   .     S
C122   H150    1.091   .     S
C123   C124    1.528   .     S
C123   H148    1.103   .     S
C123   H149    1.095   .     S
C124   H184    1.107   .     S
C124   H146    1.109   .     S
C124   H147    1.111   .     S
C125   O201    1.309   .     A
C125   O198    1.302   .     A
C126   C141    1.530   .     S
C126   C127    1.542   .     S
C126   H159    1.106   .     S
C126   H158    1.090   .     S
C127   H155    1.111   .     S
C127   C128    1.528   .     S
C127   H157    1.107   .     S
C128   H152    1.110   .     S
C128   H154    1.111   .     S
C128   H153    1.107   .     S
C129   C142    1.525   .     S
C129   H165    1.097   .     S
C129   H166    1.107   .     S
C129   C130    1.544   .     S
C130   C131    1.530   .     S
C130   H163    1.103   .     S
C130   H164    1.104   .     S
C131   H161    1.108   .     S
C131   H162    1.111   .     S
C131   H160    1.110   .     S
C132   H173    1.090   .     S
C132   C133    1.539   .     S
C132   C143    1.525   .     S
C132   H174    1.104   .     S
C133   H172    1.106   .     S
C133   C134    1.527   .     S
C133   H171    1.106   .     S
C134   H170    1.111   .     S
C134   H169    1.108   .     S
C134   H168    1.109   .     S
C135   O188    1.399   .     S
C135   C144    1.498   .     S
C135   O202    1.221   .     D
C136   O199    1.314   .     A
C136   O200    1.303   .     A
C137   O189    1.222   .     D
C137   O190    1.398   .     S
C138   O191    1.220   .     D
C138   O192    1.398   .     S
C139   O193    1.222   .     D
C139   O194    1.399   .     S
C140   N186    1.387   .     A
C140   C755    1.431   1_545 S
C141   N185    1.386   .     A
C141   C448    1.433   .     S
C142   N186    1.388   .     A
C142   C753    1.433   1_545 S
C143   N185    1.385   .     A
C143   C446    1.431   .     S
H175   O188    1.014   .     S
H176   O190    1.014   .     S
H177   O192    1.014   .     S
H179   O194    1.014   .     S
N185   Zn203   2.052   .     S
N186   Zn204   2.052   .     S
O187   Zn203   1.966   .     S
O195   Zn204   1.966   .     S
O196   Zn203   1.964   .     S
O197   Zn204   1.964   .     S
O198   Zn203   1.992   .     S
O199   Zn204   1.992   .     S
O200   Zn203   1.994   .     S
O201   Zn204   1.994   .     S
C205   O289    1.310   .     A
C205   C223    1.455   .     S
C205   O299    1.306   .     A
C206   C239    1.498   .     S
C206   C222    1.405   .     A
C206   C4      1.392   1_655 S
C207   C222    1.415   .     A
C207   C240    1.492   .     S
C207   C42     1.400   1_655 S
C208   C223    1.400   .     A
C208   C241    1.497   .     S
C209   C220    1.403   .     A
C209   H247    1.083   .     S
C209   C213    1.384   .     A
C210   H258    1.083   .     S
C210   C221    1.400   .     A
C210   C214    1.379   .     A
C211   C215    1.383   .     A
C211   C221    1.397   .     A
C211   H269    1.083   .     S
C212   C217    1.378   .     A
C212   H280    1.083   .     S
C212   C220    1.398   .     A
C213   C218    1.398   .     A
C213   H282    1.082   .     S
C214   C219    1.397   .     A
C214   H283    1.072   .     S
C215   C219    1.405   .     A
C215   H284    1.080   .     S
C216   O298    1.313   .     A
C216   O297    1.304   .     A
C216   C222    1.456   .     S
C217   H285    1.070   .     S
C217   C218    1.395   .     A
C218   C227    1.441   .     S
C219   C238    1.455   .     S
C220   C1139   1.451   1_554 S
C221   C1138   1.451   .     S
C223   C246    1.409   .     A
C224   H253    1.108   .     S
C224   C242    1.523   .     S
C224   C225    1.543   .     S
C224   H252    1.091   .     S
C225   C226    1.528   .     S
C225   H250    1.103   .     S
C225   H251    1.095   .     S
C226   H286    1.107   .     S
C226   H248    1.109   .     S
C226   H249    1.111   .     S
C227   O303    1.309   .     A
C227   O300    1.302   .     A
C228   C243    1.530   .     S
C228   C229    1.542   .     S
C228   H261    1.106   .     S
C228   H260    1.090   .     S
C229   H257    1.111   .     S
C229   C230    1.528   .     S
C229   H259    1.107   .     S
C230   H254    1.110   .     S
C230   H256    1.111   .     S
C230   H255    1.107   .     S
C231   C244    1.525   .     S
C231   H267    1.097   .     S
C231   H268    1.107   .     S
C231   C232    1.544   .     S
C232   C233    1.530   .     S
C232   H265    1.103   .     S
C232   H266    1.104   .     S
C233   H263    1.108   .     S
C233   H264    1.111   .     S
C233   H262    1.110   .     S
C234   H275    1.090   .     S
C234   C235    1.539   .     S
C234   C245    1.525   .     S
C234   H276    1.104   .     S
C235   H274    1.106   .     S
C235   C236    1.527   .     S
C235   H273    1.106   .     S
C236   H272    1.111   .     S
C236   H271    1.108   .     S
C236   H270    1.109   .     S
C237   O290    1.399   .     S
C237   C246    1.498   .     S
C237   O304    1.221   .     D
C238   O301    1.314   .     A
C238   O302    1.303   .     A
C239   O291    1.222   .     D
C239   O292    1.398   .     S
C240   O293    1.220   .     D
C240   O294    1.398   .     S
C241   O295    1.222   .     D
C241   O296    1.399   .     S
C242   N288    1.387   .     A
C242   C857    1.431   1_545 S
C243   N287    1.386   .     A
C243   C550    1.433   .     S
C244   N288    1.388   .     A
C244   C855    1.433   1_545 S
C245   N287    1.385   .     A
C245   C548    1.431   .     S
H277   O290    1.014   .     S
H278   O292    1.014   .     S
H279   O294    1.014   .     S
H281   O296    1.014   .     S
N287   Zn305   2.052   .     S
N288   Zn306   2.052   .     S
O289   Zn305   1.966   .     S
O297   Zn306   1.966   .     S
O298   Zn305   1.964   .     S
O299   Zn306   1.964   .     S
O300   Zn305   1.992   .     S
O301   Zn306   1.992   .     S
O302   Zn305   1.994   .     S
O303   Zn306   1.994   .     S
C307   O391    1.310   .     A
C307   C325    1.455   .     S
C307   O401    1.306   .     A
C308   C341    1.498   .     S
C308   C324    1.405   .     A
C308   C412    1.392   .     S
C309   C324    1.415   .     A
C309   C342    1.492   .     S
C309   C450    1.400   .     S
C310   C325    1.400   .     A
C310   C343    1.497   .     S
C310   C512    1.392   1_455 S
C311   C322    1.403   .     A
C311   H349    1.083   .     S
C311   C315    1.384   .     A
C312   H360    1.083   .     S
C312   C323    1.400   .     A
C312   C316    1.379   .     A
C313   C317    1.383   .     A
C313   C323    1.397   .     A
C313   H371    1.083   .     S
C314   C319    1.378   .     A
C314   H382    1.083   .     S
C314   C322    1.398   .     A
C315   C320    1.398   .     A
C315   H384    1.082   .     S
C316   C321    1.397   .     A
C316   H385    1.072   .     S
C317   C321    1.405   .     A
C317   H386    1.080   .     S
C318   O400    1.313   .     A
C318   O399    1.304   .     A
C318   C324    1.456   .     S
C319   H387    1.070   .     S
C319   C320    1.395   .     A
C320   C329    1.441   .     S
C321   C340    1.455   .     S
C322   C1241   1.451   1_554 S
C323   C1240   1.451   .     S
C325   C348    1.409   .     A
C326   H355    1.108   .     S
C326   C344    1.523   .     S
C326   C327    1.543   .     S
C326   H354    1.091   .     S
C327   C328    1.528   .     S
C327   H352    1.103   .     S
C327   H353    1.095   .     S
C328   H388    1.107   .     S
C328   H350    1.109   .     S
C328   H351    1.111   .     S
C329   O405    1.309   .     A
C329   O402    1.302   .     A
C330   C345    1.530   .     S
C330   C331    1.542   .     S
C330   H363    1.106   .     S
C330   H362    1.090   .     S
C331   H359    1.111   .     S
C331   C332    1.528   .     S
C331   H361    1.107   .     S
C332   H356    1.110   .     S
C332   H358    1.111   .     S
C332   H357    1.107   .     S
C333   C346    1.525   .     S
C333   H369    1.097   .     S
C333   H370    1.107   .     S
C333   C334    1.544   .     S
C334   C335    1.530   .     S
C334   H367    1.103   .     S
C334   H368    1.104   .     S
C335   H365    1.108   .     S
C335   H366    1.111   .     S
C335   H364    1.110   .     S
C336   H377    1.090   .     S
C336   C337    1.539   .     S
C336   C347    1.525   .     S
C336   H378    1.104   .     S
C337   H376    1.106   .     S
C337   C338    1.527   .     S
C337   H375    1.106   .     S
C338   H374    1.111   .     S
C338   H373    1.108   .     S
C338   H372    1.109   .     S
C339   O392    1.399   .     S
C339   C348    1.498   .     S
C339   O406    1.221   .     D
C340   O403    1.314   .     A
C340   O404    1.303   .     A
C341   O393    1.222   .     D
C341   O394    1.398   .     S
C342   O395    1.220   .     D
C342   O396    1.398   .     S
C343   O397    1.222   .     D
C343   O398    1.399   .     S
C344   N390    1.387   .     A
C345   N389    1.386   .     A
C345   C652    1.433   .     S
C346   N390    1.388   .     A
C347   N389    1.385   .     A
C347   C650    1.431   .     S
C348   C513    1.400   1_455 S
H379   O392    1.014   .     S
H380   O394    1.014   .     S
H381   O396    1.014   .     S
H383   O398    1.014   .     S
N389   Zn407   2.052   .     S
N390   Zn408   2.052   .     S
O391   Zn407   1.966   .     S
O399   Zn408   1.966   .     S
O400   Zn407   1.964   .     S
O401   Zn408   1.964   .     S
O402   Zn407   1.992   .     S
O403   Zn408   1.992   .     S
O404   Zn407   1.994   .     S
O405   Zn408   1.994   .     S
C409   O493    1.310   .     A
C409   C427    1.455   .     S
C409   O503    1.306   .     A
C410   C443    1.498   .     S
C410   C426    1.405   .     A
C410   C514    1.392   .     S
C411   C426    1.415   .     A
C411   C444    1.492   .     S
C411   C552    1.400   .     S
C412   C427    1.400   .     A
C412   C445    1.497   .     S
C413   C424    1.403   .     A
C413   H451    1.083   .     S
C413   C417    1.384   .     A
C414   H462    1.083   .     S
C414   C425    1.400   .     A
C414   C418    1.379   .     A
C415   C419    1.383   .     A
C415   C425    1.397   .     A
C415   H473    1.083   .     S
C416   C421    1.378   .     A
C416   H484    1.083   .     S
C416   C424    1.398   .     A
C417   C422    1.398   .     A
C417   H486    1.082   .     S
C418   C423    1.397   .     A
C418   H487    1.072   .     S
C419   C423    1.405   .     A
C419   H488    1.080   .     S
C420   O502    1.313   .     A
C420   O501    1.304   .     A
C420   C426    1.456   .     S
C421   H489    1.070   .     S
C421   C422    1.395   .     A
C422   C431    1.441   .     S
C423   C442    1.455   .     S
C424   C1343   1.451   1_554 S
C425   C1342   1.451   .     S
C427   C450    1.409   .     A
C428   H457    1.108   .     S
C428   C446    1.523   .     S
C428   C429    1.543   .     S
C428   H456    1.091   .     S
C429   C430    1.528   .     S
C429   H454    1.103   .     S
C429   H455    1.095   .     S
C430   H490    1.107   .     S
C430   H452    1.109   .     S
C430   H453    1.111   .     S
C431   O507    1.309   .     A
C431   O504    1.302   .     A
C432   C447    1.530   .     S
C432   C433    1.542   .     S
C432   H465    1.106   .     S
C432   H464    1.090   .     S
C433   H461    1.111   .     S
C433   C434    1.528   .     S
C433   H463    1.107   .     S
C434   H458    1.110   .     S
C434   H460    1.111   .     S
C434   H459    1.107   .     S
C435   C448    1.525   .     S
C435   H471    1.097   .     S
C435   H472    1.107   .     S
C435   C436    1.544   .     S
C436   C437    1.530   .     S
C436   H469    1.103   .     S
C436   H470    1.104   .     S
C437   H467    1.108   .     S
C437   H468    1.111   .     S
C437   H466    1.110   .     S
C438   H479    1.090   .     S
C438   C439    1.539   .     S
C438   C449    1.525   .     S
C438   H480    1.104   .     S
C439   H478    1.106   .     S
C439   C440    1.527   .     S
C439   H477    1.106   .     S
C440   H476    1.111   .     S
C440   H475    1.108   .     S
C440   H474    1.109   .     S
C441   O494    1.399   .     S
C441   C450    1.498   .     S
C441   O508    1.221   .     D
C442   O505    1.314   .     A
C442   O506    1.303   .     A
C443   O495    1.222   .     D
C443   O496    1.398   .     S
C444   O497    1.220   .     D
C444   O498    1.398   .     S
C445   O499    1.222   .     D
C445   O500    1.399   .     S
C446   N492    1.387   .     A
C447   N491    1.386   .     A
C447   C754    1.433   .     S
C448   N492    1.388   .     A
C449   N491    1.385   .     A
C449   C752    1.431   .     S
H481   O494    1.014   .     S
H482   O496    1.014   .     S
H483   O498    1.014   .     S
H485   O500    1.014   .     S
N491   Zn509   2.052   .     S
N492   Zn510   2.052   .     S
O493   Zn509   1.966   .     S
O501   Zn510   1.966   .     S
O502   Zn509   1.964   .     S
O503   Zn510   1.964   .     S
O504   Zn509   1.992   .     S
O505   Zn510   1.992   .     S
O506   Zn509   1.994   .     S
O507   Zn510   1.994   .     S
C511   O595    1.310   .     A
C511   C529    1.455   .     S
C511   O605    1.306   .     A
C512   C545    1.498   .     S
C512   C528    1.405   .     A
C512   C310    1.392   1_655 S
C513   C528    1.415   .     A
C513   C546    1.492   .     S
C513   C348    1.400   1_655 S
C514   C529    1.400   .     A
C514   C547    1.497   .     S
C515   C526    1.403   .     A
C515   H553    1.083   .     S
C515   C519    1.384   .     A
C516   H564    1.083   .     S
C516   C527    1.400   .     A
C516   C520    1.379   .     A
C517   C521    1.383   .     A
C517   C527    1.397   .     A
C517   H575    1.083   .     S
C518   C523    1.378   .     A
C518   H586    1.083   .     S
C518   C526    1.398   .     A
C519   C524    1.398   .     A
C519   H588    1.082   .     S
C520   C525    1.397   .     A
C520   H589    1.072   .     S
C521   C525    1.405   .     A
C521   H590    1.080   .     S
C522   O604    1.313   .     A
C522   O603    1.304   .     A
C522   C528    1.456   .     S
C523   H591    1.070   .     S
C523   C524    1.395   .     A
C524   C533    1.441   .     S
C525   C544    1.455   .     S
C526   C1445   1.451   1_554 S
C527   C1444   1.451   .     S
C529   C552    1.409   .     A
C530   H559    1.108   .     S
C530   C548    1.523   .     S
C530   C531    1.543   .     S
C530   H558    1.091   .     S
C531   C532    1.528   .     S
C531   H556    1.103   .     S
C531   H557    1.095   .     S
C532   H592    1.107   .     S
C532   H554    1.109   .     S
C532   H555    1.111   .     S
C533   O609    1.309   .     A
C533   O606    1.302   .     A
C534   C549    1.530   .     S
C534   C535    1.542   .     S
C534   H567    1.106   .     S
C534   H566    1.090   .     S
C535   H563    1.111   .     S
C535   C536    1.528   .     S
C535   H565    1.107   .     S
C536   H560    1.110   .     S
C536   H562    1.111   .     S
C536   H561    1.107   .     S
C537   C550    1.525   .     S
C537   H573    1.097   .     S
C537   H574    1.107   .     S
C537   C538    1.544   .     S
C538   C539    1.530   .     S
C538   H571    1.103   .     S
C538   H572    1.104   .     S
C539   H569    1.108   .     S
C539   H570    1.111   .     S
C539   H568    1.110   .     S
C540   H581    1.090   .     S
C540   C541    1.539   .     S
C540   C551    1.525   .     S
C540   H582    1.104   .     S
C541   H580    1.106   .     S
C541   C542    1.527   .     S
C541   H579    1.106   .     S
C542   H578    1.111   .     S
C542   H577    1.108   .     S
C542   H576    1.109   .     S
C543   O596    1.399   .     S
C543   C552    1.498   .     S
C543   O610    1.221   .     D
C544   O607    1.314   .     A
C544   O608    1.303   .     A
C545   O597    1.222   .     D
C545   O598    1.398   .     S
C546   O599    1.220   .     D
C546   O600    1.398   .     S
C547   O601    1.222   .     D
C547   O602    1.399   .     S
C548   N594    1.387   .     A
C549   N593    1.386   .     A
C549   C856    1.433   .     S
C550   N594    1.388   .     A
C551   N593    1.385   .     A
C551   C854    1.431   .     S
H583   O596    1.014   .     S
H584   O598    1.014   .     S
H585   O600    1.014   .     S
H587   O602    1.014   .     S
N593   Zn611   2.052   .     S
N594   Zn612   2.052   .     S
O595   Zn611   1.966   .     S
O603   Zn612   1.966   .     S
O604   Zn611   1.964   .     S
O605   Zn612   1.964   .     S
O606   Zn611   1.992   .     S
O607   Zn612   1.992   .     S
O608   Zn611   1.994   .     S
O609   Zn612   1.994   .     S
C613   O697    1.310   .     A
C613   C631    1.455   .     S
C613   O707    1.306   .     A
C614   C647    1.498   .     S
C614   C630    1.405   .     A
C614   C718    1.392   .     S
C615   C630    1.415   .     A
C615   C648    1.492   .     S
C615   C756    1.400   .     S
C616   C631    1.400   .     A
C616   C649    1.497   .     S
C616   C818    1.392   1_455 S
C617   C628    1.403   .     A
C617   H655    1.083   .     S
C617   C621    1.384   .     A
C618   H666    1.083   .     S
C618   C629    1.400   .     A
C618   C622    1.379   .     A
C619   C623    1.383   .     A
C619   C629    1.397   .     A
C619   H677    1.083   .     S
C620   C625    1.378   .     A
C620   H688    1.083   .     S
C620   C628    1.398   .     A
C621   C626    1.398   .     A
C621   H690    1.082   .     S
C622   C627    1.397   .     A
C622   H691    1.072   .     S
C623   C627    1.405   .     A
C623   H692    1.080   .     S
C624   O706    1.313   .     A
C624   O705    1.304   .     A
C624   C630    1.456   .     S
C625   H693    1.070   .     S
C625   C626    1.395   .     A
C626   C635    1.441   .     S
C627   C646    1.455   .     S
C628   C1547   1.451   1_554 S
C629   C1546   1.451   .     S
C631   C654    1.409   .     A
C632   H661    1.108   .     S
C632   C650    1.523   .     S
C632   C633    1.543   .     S
C632   H660    1.091   .     S
C633   C634    1.528   .     S
C633   H658    1.103   .     S
C633   H659    1.095   .     S
C634   H694    1.107   .     S
C634   H656    1.109   .     S
C634   H657    1.111   .     S
C635   O711    1.309   .     A
C635   O708    1.302   .     A
C636   C651    1.530   .     S
C636   C637    1.542   .     S
C636   H669    1.106   .     S
C636   H668    1.090   .     S
C637   H665    1.111   .     S
C637   C638    1.528   .     S
C637   H667    1.107   .     S
C638   H662    1.110   .     S
C638   H664    1.111   .     S
C638   H663    1.107   .     S
C639   C652    1.525   .     S
C639   H675    1.097   .     S
C639   H676    1.107   .     S
C639   C640    1.544   .     S
C640   C641    1.530   .     S
C640   H673    1.103   .     S
C640   H674    1.104   .     S
C641   H671    1.108   .     S
C641   H672    1.111   .     S
C641   H670    1.110   .     S
C642   H683    1.090   .     S
C642   C643    1.539   .     S
C642   C653    1.525   .     S
C642   H684    1.104   .     S
C643   H682    1.106   .     S
C643   C644    1.527   .     S
C643   H681    1.106   .     S
C644   H680    1.111   .     S
C644   H679    1.108   .     S
C644   H678    1.109   .     S
C645   O698    1.399   .     S
C645   C654    1.498   .     S
C645   O712    1.221   .     D
C646   O709    1.314   .     A
C646   O710    1.303   .     A
C647   O699    1.222   .     D
C647   O700    1.398   .     S
C648   O701    1.220   .     D
C648   O702    1.398   .     S
C649   O703    1.222   .     D
C649   O704    1.399   .     S
C650   N696    1.387   .     A
C651   N695    1.386   .     A
C651   C40     1.433   1_565 S
C652   N696    1.388   .     A
C653   N695    1.385   .     A
C653   C38     1.431   1_565 S
C654   C819    1.400   1_455 S
H685   O698    1.014   .     S
H686   O700    1.014   .     S
H687   O702    1.014   .     S
H689   O704    1.014   .     S
N695   Zn713   2.052   .     S
N696   Zn714   2.052   .     S
O697   Zn713   1.966   .     S
O705   Zn714   1.966   .     S
O706   Zn713   1.964   .     S
O707   Zn714   1.964   .     S
O708   Zn713   1.992   .     S
O709   Zn714   1.992   .     S
O710   Zn713   1.994   .     S
O711   Zn714   1.994   .     S
C715   O799    1.310   .     A
C715   C733    1.455   .     S
C715   O809    1.306   .     A
C716   C749    1.498   .     S
C716   C732    1.405   .     A
C716   C820    1.392   .     S
C717   C732    1.415   .     A
C717   C750    1.492   .     S
C717   C858    1.400   .     S
C718   C733    1.400   .     A
C718   C751    1.497   .     S
C719   C730    1.403   .     A
C719   H757    1.083   .     S
C719   C723    1.384   .     A
C720   H768    1.083   .     S
C720   C731    1.400   .     A
C720   C724    1.379   .     A
C721   C725    1.383   .     A
C721   C731    1.397   .     A
C721   H779    1.083   .     S
C722   C727    1.378   .     A
C722   H790    1.083   .     S
C722   C730    1.398   .     A
C723   C728    1.398   .     A
C723   H792    1.082   .     S
C724   C729    1.397   .     A
C724   H793    1.072   .     S
C725   C729    1.405   .     A
C725   H794    1.080   .     S
C726   O808    1.313   .     A
C726   O807    1.304   .     A
C726   C732    1.456   .     S
C727   H795    1.070   .     S
C727   C728    1.395   .     A
C728   C737    1.441   .     S
C729   C748    1.455   .     S
C730   C1649   1.451   1_554 S
C731   C1648   1.451   .     S
C733   C756    1.409   .     A
C734   H763    1.108   .     S
C734   C752    1.523   .     S
C734   C735    1.543   .     S
C734   H762    1.091   .     S
C735   C736    1.528   .     S
C735   H760    1.103   .     S
C735   H761    1.095   .     S
C736   H796    1.107   .     S
C736   H758    1.109   .     S
C736   H759    1.111   .     S
C737   O813    1.309   .     A
C737   O810    1.302   .     A
C738   C753    1.530   .     S
C738   C739    1.542   .     S
C738   H771    1.106   .     S
C738   H770    1.090   .     S
C739   H767    1.111   .     S
C739   C740    1.528   .     S
C739   H769    1.107   .     S
C740   H764    1.110   .     S
C740   H766    1.111   .     S
C740   H765    1.107   .     S
C741   C754    1.525   .     S
C741   H777    1.097   .     S
C741   H778    1.107   .     S
C741   C742    1.544   .     S
C742   C743    1.530   .     S
C742   H775    1.103   .     S
C742   H776    1.104   .     S
C743   H773    1.108   .     S
C743   H774    1.111   .     S
C743   H772    1.110   .     S
C744   H785    1.090   .     S
C744   C745    1.539   .     S
C744   C755    1.525   .     S
C744   H786    1.104   .     S
C745   H784    1.106   .     S
C745   C746    1.527   .     S
C745   H783    1.106   .     S
C746   H782    1.111   .     S
C746   H781    1.108   .     S
C746   H780    1.109   .     S
C747   O800    1.399   .     S
C747   C756    1.498   .     S
C747   O814    1.221   .     D
C748   O811    1.314   .     A
C748   O812    1.303   .     A
C749   O801    1.222   .     D
C749   O802    1.398   .     S
C750   O803    1.220   .     D
C750   O804    1.398   .     S
C751   O805    1.222   .     D
C751   O806    1.399   .     S
C752   N798    1.387   .     A
C753   N797    1.386   .     A
C753   C142    1.433   1_565 S
C754   N798    1.388   .     A
C755   N797    1.385   .     A
C755   C140    1.431   1_565 S
H787   O800    1.014   .     S
H788   O802    1.014   .     S
H789   O804    1.014   .     S
H791   O806    1.014   .     S
N797   Zn815   2.052   .     S
N798   Zn816   2.052   .     S
O799   Zn815   1.966   .     S
O807   Zn816   1.966   .     S
O808   Zn815   1.964   .     S
O809   Zn816   1.964   .     S
O810   Zn815   1.992   .     S
O811   Zn816   1.992   .     S
O812   Zn815   1.994   .     S
O813   Zn816   1.994   .     S
C817   O901    1.310   .     A
C817   C835    1.455   .     S
C817   O911    1.306   .     A
C818   C851    1.498   .     S
C818   C834    1.405   .     A
C818   C616    1.392   1_655 S
C819   C834    1.415   .     A
C819   C852    1.492   .     S
C819   C654    1.400   1_655 S
C820   C835    1.400   .     A
C820   C853    1.497   .     S
C821   C832    1.403   .     A
C821   H859    1.083   .     S
C821   C825    1.384   .     A
C822   H870    1.083   .     S
C822   C833    1.400   .     A
C822   C826    1.379   .     A
C823   C827    1.383   .     A
C823   C833    1.397   .     A
C823   H881    1.083   .     S
C824   C829    1.378   .     A
C824   H892    1.083   .     S
C824   C832    1.398   .     A
C825   C830    1.398   .     A
C825   H894    1.082   .     S
C826   C831    1.397   .     A
C826   H895    1.072   .     S
C827   C831    1.405   .     A
C827   H896    1.080   .     S
C828   O910    1.313   .     A
C828   O909    1.304   .     A
C828   C834    1.456   .     S
C829   H897    1.070   .     S
C829   C830    1.395   .     A
C830   C839    1.441   .     S
C831   C850    1.455   .     S
C832   C1751   1.451   1_554 S
C833   C1750   1.451   .     S
C835   C858    1.409   .     A
C836   H865    1.108   .     S
C836   C854    1.523   .     S
C836   C837    1.543   .     S
C836   H864    1.091   .     S
C837   C838    1.528   .     S
C837   H862    1.103   .     S
C837   H863    1.095   .     S
C838   H898    1.107   .     S
C838   H860    1.109   .     S
C838   H861    1.111   .     S
C839   O915    1.309   .     A
C839   O912    1.302   .     A
C840   C855    1.530   .     S
C840   C841    1.542   .     S
C840   H873    1.106   .     S
C840   H872    1.090   .     S
C841   H869    1.111   .     S
C841   C842    1.528   .     S
C841   H871    1.107   .     S
C842   H866    1.110   .     S
C842   H868    1.111   .     S
C842   H867    1.107   .     S
C843   C856    1.525   .     S
C843   H879    1.097   .     S
C843   H880    1.107   .     S
C843   C844    1.544   .     S
C844   C845    1.530   .     S
C844   H877    1.103   .     S
C844   H878    1.104   .     S
C845   H875    1.108   .     S
C845   H876    1.111   .     S
C845   H874    1.110   .     S
C846   H887    1.090   .     S
C846   C847    1.539   .     S
C846   C857    1.525   .     S
C846   H888    1.104   .     S
C847   H886    1.106   .     S
C847   C848    1.527   .     S
C847   H885    1.106   .     S
C848   H884    1.111   .     S
C848   H883    1.108   .     S
C848   H882    1.109   .     S
C849   O902    1.399   .     S
C849   C858    1.498   .     S
C849   O916    1.221   .     D
C850   O913    1.314   .     A
C850   O914    1.303   .     A
C851   O903    1.222   .     D
C851   O904    1.398   .     S
C852   O905    1.220   .     D
C852   O906    1.398   .     S
C853   O907    1.222   .     D
C853   O908    1.399   .     S
C854   N900    1.387   .     A
C855   N899    1.386   .     A
C855   C244    1.433   1_565 S
C856   N900    1.388   .     A
C857   N899    1.385   .     A
C857   C242    1.431   1_565 S
H889   O902    1.014   .     S
H890   O904    1.014   .     S
H891   O906    1.014   .     S
H893   O908    1.014   .     S
N899   Zn917   2.052   .     S
N900   Zn918   2.052   .     S
O901   Zn917   1.966   .     S
O909   Zn918   1.966   .     S
O910   Zn917   1.964   .     S
O911   Zn918   1.964   .     S
O912   Zn917   1.992   .     S
O913   Zn918   1.992   .     S
O914   Zn917   1.994   .     S
O915   Zn918   1.994   .     S
C919   O1003   1.310   .     A
C919   C937    1.455   .     S
C919   O1013   1.306   .     A
C920   C953    1.498   .     S
C920   C936    1.405   .     A
C920   C1024   1.392   .     S
C921   C936    1.415   .     A
C921   C954    1.492   .     S
C921   C1062   1.400   .     S
C922   C937    1.400   .     A
C922   C955    1.497   .     S
C922   C1124   1.392   1_455 S
C923   C934    1.403   .     A
C923   H961    1.083   .     S
C923   C927    1.384   .     A
C924   H972    1.083   .     S
C924   C935    1.400   .     A
C924   C928    1.379   .     A
C925   C929    1.383   .     A
C925   C935    1.397   .     A
C925   H983    1.083   .     S
C926   C931    1.378   .     A
C926   H994    1.083   .     S
C926   C934    1.398   .     A
C927   C932    1.398   .     A
C927   H996    1.082   .     S
C928   C933    1.397   .     A
C928   H997    1.072   .     S
C929   C933    1.405   .     A
C929   H998    1.080   .     S
C930   O1012   1.313   .     A
C930   O1011   1.304   .     A
C930   C936    1.456   .     S
C931   H999    1.070   .     S
C931   C932    1.395   .     A
C932   C941    1.441   .     S
C933   C952    1.455   .     S
C935   C16     1.451   1_556 S
C937   C960    1.409   .     A
C938   H967    1.108   .     S
C938   C956    1.523   .     S
C938   C939    1.543   .     S
C938   H966    1.091   .     S
C939   C940    1.528   .     S
C939   H964    1.103   .     S
C939   H965    1.095   .     S
C940   H1000   1.107   .     S
C940   H962    1.109   .     S
C940   H963    1.111   .     S
C941   O1017   1.309   .     A
C941   O1014   1.302   .     A
C942   C957    1.530   .     S
C942   C943    1.542   .     S
C942   H975    1.106   .     S
C942   H974    1.090   .     S
C943   H971    1.111   .     S
C943   C944    1.528   .     S
C943   H973    1.107   .     S
C944   H968    1.110   .     S
C944   H970    1.111   .     S
C944   H969    1.107   .     S
C945   C958    1.525   .     S
C945   H981    1.097   .     S
C945   H982    1.107   .     S
C945   C946    1.544   .     S
C946   C947    1.530   .     S
C946   H979    1.103   .     S
C946   H980    1.104   .     S
C947   H977    1.108   .     S
C947   H978    1.111   .     S
C947   H976    1.110   .     S
C948   H989    1.090   .     S
C948   C949    1.539   .     S
C948   C959    1.525   .     S
C948   H990    1.104   .     S
C949   H988    1.106   .     S
C949   C950    1.527   .     S
C949   H987    1.106   .     S
C950   H986    1.111   .     S
C950   H985    1.108   .     S
C950   H984    1.109   .     S
C951   O1004   1.399   .     S
C951   C960    1.498   .     S
C951   O1018   1.221   .     D
C952   O1015   1.314   .     A
C952   O1016   1.303   .     A
C953   O1005   1.222   .     D
C953   O1006   1.398   .     S
C954   O1007   1.220   .     D
C954   O1008   1.398   .     S
C955   O1009   1.222   .     D
C955   O1010   1.399   .     S
C956   N1002   1.387   .     A
C956   C1571   1.431   1_545 S
C957   N1001   1.386   .     A
C957   C1264   1.433   .     S
C958   N1002   1.388   .     A
C958   C1569   1.433   1_545 S
C959   N1001   1.385   .     A
C959   C1262   1.431   .     S
C960   C1125   1.400   1_455 S
H991   O1004   1.014   .     S
H992   O1006   1.014   .     S
H993   O1008   1.014   .     S
H995   O1010   1.014   .     S
N1001  Zn1019  2.052   .     S
N1002  Zn1020  2.052   .     S
O1003  Zn1019  1.966   .     S
O1011  Zn1020  1.966   .     S
O1012  Zn1019  1.964   .     S
O1013  Zn1020  1.964   .     S
O1014  Zn1019  1.992   .     S
O1015  Zn1020  1.992   .     S
O1016  Zn1019  1.994   .     S
O1017  Zn1020  1.994   .     S
C1021  O1105   1.310   .     A
C1021  C1039   1.455   .     S
C1021  O1115   1.306   .     A
C1022  C1055   1.498   .     S
C1022  C1038   1.405   .     A
C1022  C1126   1.392   .     S
C1023  C1038   1.415   .     A
C1023  C1056   1.492   .     S
C1023  C1164   1.400   .     S
C1024  C1039   1.400   .     A
C1024  C1057   1.497   .     S
C1025  C1036   1.403   .     A
C1025  H1063   1.083   .     S
C1025  C1029   1.384   .     A
C1026  H1074   1.083   .     S
C1026  C1037   1.400   .     A
C1026  C1030   1.379   .     A
C1027  C1031   1.383   .     A
C1027  C1037   1.397   .     A
C1027  H1085   1.083   .     S
C1028  C1033   1.378   .     A
C1028  H1096   1.083   .     S
C1028  C1036   1.398   .     A
C1029  C1034   1.398   .     A
C1029  H1098   1.082   .     S
C1030  C1035   1.397   .     A
C1030  H1099   1.072   .     S
C1031  C1035   1.405   .     A
C1031  H1100   1.080   .     S
C1032  O1114   1.313   .     A
C1032  O1113   1.304   .     A
C1032  C1038   1.456   .     S
C1033  H1101   1.070   .     S
C1033  C1034   1.395   .     A
C1034  C1043   1.441   .     S
C1035  C1054   1.455   .     S
C1037  C118    1.451   1_556 S
C1039  C1062   1.409   .     A
C1040  H1069   1.108   .     S
C1040  C1058   1.523   .     S
C1040  C1041   1.543   .     S
C1040  H1068   1.091   .     S
C1041  C1042   1.528   .     S
C1041  H1066   1.103   .     S
C1041  H1067   1.095   .     S
C1042  H1102   1.107   .     S
C1042  H1064   1.109   .     S
C1042  H1065   1.111   .     S
C1043  O1119   1.309   .     A
C1043  O1116   1.302   .     A
C1044  C1059   1.530   .     S
C1044  C1045   1.542   .     S
C1044  H1077   1.106   .     S
C1044  H1076   1.090   .     S
C1045  H1073   1.111   .     S
C1045  C1046   1.528   .     S
C1045  H1075   1.107   .     S
C1046  H1070   1.110   .     S
C1046  H1072   1.111   .     S
C1046  H1071   1.107   .     S
C1047  C1060   1.525   .     S
C1047  H1083   1.097   .     S
C1047  H1084   1.107   .     S
C1047  C1048   1.544   .     S
C1048  C1049   1.530   .     S
C1048  H1081   1.103   .     S
C1048  H1082   1.104   .     S
C1049  H1079   1.108   .     S
C1049  H1080   1.111   .     S
C1049  H1078   1.110   .     S
C1050  H1091   1.090   .     S
C1050  C1051   1.539   .     S
C1050  C1061   1.525   .     S
C1050  H1092   1.104   .     S
C1051  H1090   1.106   .     S
C1051  C1052   1.527   .     S
C1051  H1089   1.106   .     S
C1052  H1088   1.111   .     S
C1052  H1087   1.108   .     S
C1052  H1086   1.109   .     S
C1053  O1106   1.399   .     S
C1053  C1062   1.498   .     S
C1053  O1120   1.221   .     D
C1054  O1117   1.314   .     A
C1054  O1118   1.303   .     A
C1055  O1107   1.222   .     D
C1055  O1108   1.398   .     S
C1056  O1109   1.220   .     D
C1056  O1110   1.398   .     S
C1057  O1111   1.222   .     D
C1057  O1112   1.399   .     S
C1058  N1104   1.387   .     A
C1058  C1673   1.431   1_545 S
C1059  N1103   1.386   .     A
C1059  C1366   1.433   .     S
C1060  N1104   1.388   .     A
C1060  C1671   1.433   1_545 S
C1061  N1103   1.385   .     A
C1061  C1364   1.431   .     S
H1093  O1106   1.014   .     S
H1094  O1108   1.014   .     S
H1095  O1110   1.014   .     S
H1097  O1112   1.014   .     S
N1103  Zn1121  2.052   .     S
N1104  Zn1122  2.052   .     S
O1105  Zn1121  1.966   .     S
O1113  Zn1122  1.966   .     S
O1114  Zn1121  1.964   .     S
O1115  Zn1122  1.964   .     S
O1116  Zn1121  1.992   .     S
O1117  Zn1122  1.992   .     S
O1118  Zn1121  1.994   .     S
O1119  Zn1122  1.994   .     S
C1123  O1207   1.310   .     A
C1123  C1141   1.455   .     S
C1123  O1217   1.306   .     A
C1124  C1157   1.498   .     S
C1124  C1140   1.405   .     A
C1124  C922    1.392   1_655 S
C1125  C1140   1.415   .     A
C1125  C1158   1.492   .     S
C1125  C960    1.400   1_655 S
C1126  C1141   1.400   .     A
C1126  C1159   1.497   .     S
C1127  C1138   1.403   .     A
C1127  H1165   1.083   .     S
C1127  C1131   1.384   .     A
C1128  H1176   1.083   .     S
C1128  C1139   1.400   .     A
C1128  C1132   1.379   .     A
C1129  C1133   1.383   .     A
C1129  C1139   1.397   .     A
C1129  H1187   1.083   .     S
C1130  C1135   1.378   .     A
C1130  H1198   1.083   .     S
C1130  C1138   1.398   .     A
C1131  C1136   1.398   .     A
C1131  H1200   1.082   .     S
C1132  C1137   1.397   .     A
C1132  H1201   1.072   .     S
C1133  C1137   1.405   .     A
C1133  H1202   1.080   .     S
C1134  O1216   1.313   .     A
C1134  O1215   1.304   .     A
C1134  C1140   1.456   .     S
C1135  H1203   1.070   .     S
C1135  C1136   1.395   .     A
C1136  C1145   1.441   .     S
C1137  C1156   1.455   .     S
C1139  C220    1.451   1_556 S
C1141  C1164   1.409   .     A
C1142  H1171   1.108   .     S
C1142  C1160   1.523   .     S
C1142  C1143   1.543   .     S
C1142  H1170   1.091   .     S
C1143  C1144   1.528   .     S
C1143  H1168   1.103   .     S
C1143  H1169   1.095   .     S
C1144  H1204   1.107   .     S
C1144  H1166   1.109   .     S
C1144  H1167   1.111   .     S
C1145  O1221   1.309   .     A
C1145  O1218   1.302   .     A
C1146  C1161   1.530   .     S
C1146  C1147   1.542   .     S
C1146  H1179   1.106   .     S
C1146  H1178   1.090   .     S
C1147  H1175   1.111   .     S
C1147  C1148   1.528   .     S
C1147  H1177   1.107   .     S
C1148  H1172   1.110   .     S
C1148  H1174   1.111   .     S
C1148  H1173   1.107   .     S
C1149  C1162   1.525   .     S
C1149  H1185   1.097   .     S
C1149  H1186   1.107   .     S
C1149  C1150   1.544   .     S
C1150  C1151   1.530   .     S
C1150  H1183   1.103   .     S
C1150  H1184   1.104   .     S
C1151  H1181   1.108   .     S
C1151  H1182   1.111   .     S
C1151  H1180   1.110   .     S
C1152  H1193   1.090   .     S
C1152  C1153   1.539   .     S
C1152  C1163   1.525   .     S
C1152  H1194   1.104   .     S
C1153  H1192   1.106   .     S
C1153  C1154   1.527   .     S
C1153  H1191   1.106   .     S
C1154  H1190   1.111   .     S
C1154  H1189   1.108   .     S
C1154  H1188   1.109   .     S
C1155  O1208   1.399   .     S
C1155  C1164   1.498   .     S
C1155  O1222   1.221   .     D
C1156  O1219   1.314   .     A
C1156  O1220   1.303   .     A
C1157  O1209   1.222   .     D
C1157  O1210   1.398   .     S
C1158  O1211   1.220   .     D
C1158  O1212   1.398   .     S
C1159  O1213   1.222   .     D
C1159  O1214   1.399   .     S
C1160  N1206   1.387   .     A
C1160  C1775   1.431   1_545 S
C1161  N1205   1.386   .     A
C1161  C1468   1.433   .     S
C1162  N1206   1.388   .     A
C1162  C1773   1.433   1_545 S
C1163  N1205   1.385   .     A
C1163  C1466   1.431   .     S
H1195  O1208   1.014   .     S
H1196  O1210   1.014   .     S
H1197  O1212   1.014   .     S
H1199  O1214   1.014   .     S
N1205  Zn1223  2.052   .     S
N1206  Zn1224  2.052   .     S
O1207  Zn1223  1.966   .     S
O1215  Zn1224  1.966   .     S
O1216  Zn1223  1.964   .     S
O1217  Zn1224  1.964   .     S
O1218  Zn1223  1.992   .     S
O1219  Zn1224  1.992   .     S
O1220  Zn1223  1.994   .     S
O1221  Zn1224  1.994   .     S
C1225  O1309   1.310   .     A
C1225  C1243   1.455   .     S
C1225  O1319   1.306   .     A
C1226  C1259   1.498   .     S
C1226  C1242   1.405   .     A
C1226  C1330   1.392   .     S
C1227  C1242   1.415   .     A
C1227  C1260   1.492   .     S
C1227  C1368   1.400   .     S
C1228  C1243   1.400   .     A
C1228  C1261   1.497   .     S
C1228  C1430   1.392   1_455 S
C1229  C1240   1.403   .     A
C1229  H1267   1.083   .     S
C1229  C1233   1.384   .     A
C1230  H1278   1.083   .     S
C1230  C1241   1.400   .     A
C1230  C1234   1.379   .     A
C1231  C1235   1.383   .     A
C1231  C1241   1.397   .     A
C1231  H1289   1.083   .     S
C1232  C1237   1.378   .     A
C1232  H1300   1.083   .     S
C1232  C1240   1.398   .     A
C1233  C1238   1.398   .     A
C1233  H1302   1.082   .     S
C1234  C1239   1.397   .     A
C1234  H1303   1.072   .     S
C1235  C1239   1.405   .     A
C1235  H1304   1.080   .     S
C1236  O1318   1.313   .     A
C1236  O1317   1.304   .     A
C1236  C1242   1.456   .     S
C1237  H1305   1.070   .     S
C1237  C1238   1.395   .     A
C1238  C1247   1.441   .     S
C1239  C1258   1.455   .     S
C1241  C322    1.451   1_556 S
C1243  C1266   1.409   .     A
C1244  H1273   1.108   .     S
C1244  C1262   1.523   .     S
C1244  C1245   1.543   .     S
C1244  H1272   1.091   .     S
C1245  C1246   1.528   .     S
C1245  H1270   1.103   .     S
C1245  H1271   1.095   .     S
C1246  H1306   1.107   .     S
C1246  H1268   1.109   .     S
C1246  H1269   1.111   .     S
C1247  O1323   1.309   .     A
C1247  O1320   1.302   .     A
C1248  C1263   1.530   .     S
C1248  C1249   1.542   .     S
C1248  H1281   1.106   .     S
C1248  H1280   1.090   .     S
C1249  H1277   1.111   .     S
C1249  C1250   1.528   .     S
C1249  H1279   1.107   .     S
C1250  H1274   1.110   .     S
C1250  H1276   1.111   .     S
C1250  H1275   1.107   .     S
C1251  C1264   1.525   .     S
C1251  H1287   1.097   .     S
C1251  H1288   1.107   .     S
C1251  C1252   1.544   .     S
C1252  C1253   1.530   .     S
C1252  H1285   1.103   .     S
C1252  H1286   1.104   .     S
C1253  H1283   1.108   .     S
C1253  H1284   1.111   .     S
C1253  H1282   1.110   .     S
C1254  H1295   1.090   .     S
C1254  C1255   1.539   .     S
C1254  C1265   1.525   .     S
C1254  H1296   1.104   .     S
C1255  H1294   1.106   .     S
C1255  C1256   1.527   .     S
C1255  H1293   1.106   .     S
C1256  H1292   1.111   .     S
C1256  H1291   1.108   .     S
C1256  H1290   1.109   .     S
C1257  O1310   1.399   .     S
C1257  C1266   1.498   .     S
C1257  O1324   1.221   .     D
C1258  O1321   1.314   .     A
C1258  O1322   1.303   .     A
C1259  O1311   1.222   .     D
C1259  O1312   1.398   .     S
C1260  O1313   1.220   .     D
C1260  O1314   1.398   .     S
C1261  O1315   1.222   .     D
C1261  O1316   1.399   .     S
C1262  N1308   1.387   .     A
C1263  N1307   1.386   .     A
C1263  C1570   1.433   .     S
C1264  N1308   1.388   .     A
C1265  N1307   1.385   .     A
C1265  C1568   1.431   .     S
C1266  C1431   1.400   1_455 S
H1297  O1310   1.014   .     S
H1298  O1312   1.014   .     S
H1299  O1314   1.014   .     S
H1301  O1316   1.014   .     S
N1307  Zn1325  2.052   .     S
N1308  Zn1326  2.052   .     S
O1309  Zn1325  1.966   .     S
O1317  Zn1326  1.966   .     S
O1318  Zn1325  1.964   .     S
O1319  Zn1326  1.964   .     S
O1320  Zn1325  1.992   .     S
O1321  Zn1326  1.992   .     S
O1322  Zn1325  1.994   .     S
O1323  Zn1326  1.994   .     S
C1327  O1411   1.310   .     A
C1327  C1345   1.455   .     S
C1327  O1421   1.306   .     A
C1328  C1361   1.498   .     S
C1328  C1344   1.405   .     A
C1328  C1432   1.392   .     S
C1329  C1344   1.415   .     A
C1329  C1362   1.492   .     S
C1329  C1470   1.400   .     S
C1330  C1345   1.400   .     A
C1330  C1363   1.497   .     S
C1331  C1342   1.403   .     A
C1331  H1369   1.083   .     S
C1331  C1335   1.384   .     A
C1332  H1380   1.083   .     S
C1332  C1343   1.400   .     A
C1332  C1336   1.379   .     A
C1333  C1337   1.383   .     A
C1333  C1343   1.397   .     A
C1333  H1391   1.083   .     S
C1334  C1339   1.378   .     A
C1334  H1402   1.083   .     S
C1334  C1342   1.398   .     A
C1335  C1340   1.398   .     A
C1335  H1404   1.082   .     S
C1336  C1341   1.397   .     A
C1336  H1405   1.072   .     S
C1337  C1341   1.405   .     A
C1337  H1406   1.080   .     S
C1338  O1420   1.313   .     A
C1338  O1419   1.304   .     A
C1338  C1344   1.456   .     S
C1339  H1407   1.070   .     S
C1339  C1340   1.395   .     A
C1340  C1349   1.441   .     S
C1341  C1360   1.455   .     S
C1343  C424    1.451   1_556 S
C1345  C1368   1.409   .     A
C1346  H1375   1.108   .     S
C1346  C1364   1.523   .     S
C1346  C1347   1.543   .     S
C1346  H1374   1.091   .     S
C1347  C1348   1.528   .     S
C1347  H1372   1.103   .     S
C1347  H1373   1.095   .     S
C1348  H1408   1.107   .     S
C1348  H1370   1.109   .     S
C1348  H1371   1.111   .     S
C1349  O1425   1.309   .     A
C1349  O1422   1.302   .     A
C1350  C1365   1.530   .     S
C1350  C1351   1.542   .     S
C1350  H1383   1.106   .     S
C1350  H1382   1.090   .     S
C1351  H1379   1.111   .     S
C1351  C1352   1.528   .     S
C1351  H1381   1.107   .     S
C1352  H1376   1.110   .     S
C1352  H1378   1.111   .     S
C1352  H1377   1.107   .     S
C1353  C1366   1.525   .     S
C1353  H1389   1.097   .     S
C1353  H1390   1.107   .     S
C1353  C1354   1.544   .     S
C1354  C1355   1.530   .     S
C1354  H1387   1.103   .     S
C1354  H1388   1.104   .     S
C1355  H1385   1.108   .     S
C1355  H1386   1.111   .     S
C1355  H1384   1.110   .     S
C1356  H1397   1.090   .     S
C1356  C1357   1.539   .     S
C1356  C1367   1.525   .     S
C1356  H1398   1.104   .     S
C1357  H1396   1.106   .     S
C1357  C1358   1.527   .     S
C1357  H1395   1.106   .     S
C1358  H1394   1.111   .     S
C1358  H1393   1.108   .     S
C1358  H1392   1.109   .     S
C1359  O1412   1.399   .     S
C1359  C1368   1.498   .     S
C1359  O1426   1.221   .     D
C1360  O1423   1.314   .     A
C1360  O1424   1.303   .     A
C1361  O1413   1.222   .     D
C1361  O1414   1.398   .     S
C1362  O1415   1.220   .     D
C1362  O1416   1.398   .     S
C1363  O1417   1.222   .     D
C1363  O1418   1.399   .     S
C1364  N1410   1.387   .     A
C1365  N1409   1.386   .     A
C1365  C1672   1.433   .     S
C1366  N1410   1.388   .     A
C1367  N1409   1.385   .     A
C1367  C1670   1.431   .     S
H1399  O1412   1.014   .     S
H1400  O1414   1.014   .     S
H1401  O1416   1.014   .     S
H1403  O1418   1.014   .     S
N1409  Zn1427  2.052   .     S
N1410  Zn1428  2.052   .     S
O1411  Zn1427  1.966   .     S
O1419  Zn1428  1.966   .     S
O1420  Zn1427  1.964   .     S
O1421  Zn1428  1.964   .     S
O1422  Zn1427  1.992   .     S
O1423  Zn1428  1.992   .     S
O1424  Zn1427  1.994   .     S
O1425  Zn1428  1.994   .     S
C1429  O1513   1.310   .     A
C1429  C1447   1.455   .     S
C1429  O1523   1.306   .     A
C1430  C1463   1.498   .     S
C1430  C1446   1.405   .     A
C1430  C1228   1.392   1_655 S
C1431  C1446   1.415   .     A
C1431  C1464   1.492   .     S
C1431  C1266   1.400   1_655 S
C1432  C1447   1.400   .     A
C1432  C1465   1.497   .     S
C1433  C1444   1.403   .     A
C1433  H1471   1.083   .     S
C1433  C1437   1.384   .     A
C1434  H1482   1.083   .     S
C1434  C1445   1.400   .     A
C1434  C1438   1.379   .     A
C1435  C1439   1.383   .     A
C1435  C1445   1.397   .     A
C1435  H1493   1.083   .     S
C1436  C1441   1.378   .     A
C1436  H1504   1.083   .     S
C1436  C1444   1.398   .     A
C1437  C1442   1.398   .     A
C1437  H1506   1.082   .     S
C1438  C1443   1.397   .     A
C1438  H1507   1.072   .     S
C1439  C1443   1.405   .     A
C1439  H1508   1.080   .     S
C1440  O1522   1.313   .     A
C1440  O1521   1.304   .     A
C1440  C1446   1.456   .     S
C1441  H1509   1.070   .     S
C1441  C1442   1.395   .     A
C1442  C1451   1.441   .     S
C1443  C1462   1.455   .     S
C1445  C526    1.451   1_556 S
C1447  C1470   1.409   .     A
C1448  H1477   1.108   .     S
C1448  C1466   1.523   .     S
C1448  C1449   1.543   .     S
C1448  H1476   1.091   .     S
C1449  C1450   1.528   .     S
C1449  H1474   1.103   .     S
C1449  H1475   1.095   .     S
C1450  H1510   1.107   .     S
C1450  H1472   1.109   .     S
C1450  H1473   1.111   .     S
C1451  O1527   1.309   .     A
C1451  O1524   1.302   .     A
C1452  C1467   1.530   .     S
C1452  C1453   1.542   .     S
C1452  H1485   1.106   .     S
C1452  H1484   1.090   .     S
C1453  H1481   1.111   .     S
C1453  C1454   1.528   .     S
C1453  H1483   1.107   .     S
C1454  H1478   1.110   .     S
C1454  H1480   1.111   .     S
C1454  H1479   1.107   .     S
C1455  C1468   1.525   .     S
C1455  H1491   1.097   .     S
C1455  H1492   1.107   .     S
C1455  C1456   1.544   .     S
C1456  C1457   1.530   .     S
C1456  H1489   1.103   .     S
C1456  H1490   1.104   .     S
C1457  H1487   1.108   .     S
C1457  H1488   1.111   .     S
C1457  H1486   1.110   .     S
C1458  H1499   1.090   .     S
C1458  C1459   1.539   .     S
C1458  C1469   1.525   .     S
C1458  H1500   1.104   .     S
C1459  H1498   1.106   .     S
C1459  C1460   1.527   .     S
C1459  H1497   1.106   .     S
C1460  H1496   1.111   .     S
C1460  H1495   1.108   .     S
C1460  H1494   1.109   .     S
C1461  O1514   1.399   .     S
C1461  C1470   1.498   .     S
C1461  O1528   1.221   .     D
C1462  O1525   1.314   .     A
C1462  O1526   1.303   .     A
C1463  O1515   1.222   .     D
C1463  O1516   1.398   .     S
C1464  O1517   1.220   .     D
C1464  O1518   1.398   .     S
C1465  O1519   1.222   .     D
C1465  O1520   1.399   .     S
C1466  N1512   1.387   .     A
C1467  N1511   1.386   .     A
C1467  C1774   1.433   .     S
C1468  N1512   1.388   .     A
C1469  N1511   1.385   .     A
C1469  C1772   1.431   .     S
H1501  O1514   1.014   .     S
H1502  O1516   1.014   .     S
H1503  O1518   1.014   .     S
H1505  O1520   1.014   .     S
N1511  Zn1529  2.052   .     S
N1512  Zn1530  2.052   .     S
O1513  Zn1529  1.966   .     S
O1521  Zn1530  1.966   .     S
O1522  Zn1529  1.964   .     S
O1523  Zn1530  1.964   .     S
O1524  Zn1529  1.992   .     S
O1525  Zn1530  1.992   .     S
O1526  Zn1529  1.994   .     S
O1527  Zn1530  1.994   .     S
C1531  O1615   1.310   .     A
C1531  C1549   1.455   .     S
C1531  O1625   1.306   .     A
C1532  C1565   1.498   .     S
C1532  C1548   1.405   .     A
C1532  C1636   1.392   .     S
C1533  C1548   1.415   .     A
C1533  C1566   1.492   .     S
C1533  C1674   1.400   .     S
C1534  C1549   1.400   .     A
C1534  C1567   1.497   .     S
C1534  C1736   1.392   1_455 S
C1535  C1546   1.403   .     A
C1535  H1573   1.083   .     S
C1535  C1539   1.384   .     A
C1536  H1584   1.083   .     S
C1536  C1547   1.400   .     A
C1536  C1540   1.379   .     A
C1537  C1541   1.383   .     A
C1537  C1547   1.397   .     A
C1537  H1595   1.083   .     S
C1538  C1543   1.378   .     A
C1538  H1606   1.083   .     S
C1538  C1546   1.398   .     A
C1539  C1544   1.398   .     A
C1539  H1608   1.082   .     S
C1540  C1545   1.397   .     A
C1540  H1609   1.072   .     S
C1541  C1545   1.405   .     A
C1541  H1610   1.080   .     S
C1542  O1624   1.313   .     A
C1542  O1623   1.304   .     A
C1542  C1548   1.456   .     S
C1543  H1611   1.070   .     S
C1543  C1544   1.395   .     A
C1544  C1553   1.441   .     S
C1545  C1564   1.455   .     S
C1547  C628    1.451   1_556 S
C1549  C1572   1.409   .     A
C1550  H1579   1.108   .     S
C1550  C1568   1.523   .     S
C1550  C1551   1.543   .     S
C1550  H1578   1.091   .     S
C1551  C1552   1.528   .     S
C1551  H1576   1.103   .     S
C1551  H1577   1.095   .     S
C1552  H1612   1.107   .     S
C1552  H1574   1.109   .     S
C1552  H1575   1.111   .     S
C1553  O1629   1.309   .     A
C1553  O1626   1.302   .     A
C1554  C1569   1.530   .     S
C1554  C1555   1.542   .     S
C1554  H1587   1.106   .     S
C1554  H1586   1.090   .     S
C1555  H1583   1.111   .     S
C1555  C1556   1.528   .     S
C1555  H1585   1.107   .     S
C1556  H1580   1.110   .     S
C1556  H1582   1.111   .     S
C1556  H1581   1.107   .     S
C1557  C1570   1.525   .     S
C1557  H1593   1.097   .     S
C1557  H1594   1.107   .     S
C1557  C1558   1.544   .     S
C1558  C1559   1.530   .     S
C1558  H1591   1.103   .     S
C1558  H1592   1.104   .     S
C1559  H1589   1.108   .     S
C1559  H1590   1.111   .     S
C1559  H1588   1.110   .     S
C1560  H1601   1.090   .     S
C1560  C1561   1.539   .     S
C1560  C1571   1.525   .     S
C1560  H1602   1.104   .     S
C1561  H1600   1.106   .     S
C1561  C1562   1.527   .     S
C1561  H1599   1.106   .     S
C1562  H1598   1.111   .     S
C1562  H1597   1.108   .     S
C1562  H1596   1.109   .     S
C1563  O1616   1.399   .     S
C1563  C1572   1.498   .     S
C1563  O1630   1.221   .     D
C1564  O1627   1.314   .     A
C1564  O1628   1.303   .     A
C1565  O1617   1.222   .     D
C1565  O1618   1.398   .     S
C1566  O1619   1.220   .     D
C1566  O1620   1.398   .     S
C1567  O1621   1.222   .     D
C1567  O1622   1.399   .     S
C1568  N1614   1.387   .     A
C1569  N1613   1.386   .     A
C1569  C958    1.433   1_565 S
C1570  N1614   1.388   .     A
C1571  N1613   1.385   .     A
C1571  C956    1.431   1_565 S
C1572  C1737   1.400   1_455 S
H1603  O1616   1.014   .     S
H1604  O1618   1.014   .     S
H1605  O1620   1.014   .     S
H1607  O1622   1.014   .     S
N1613  Zn1631  2.052   .     S
N1614  Zn1632  2.052   .     S
O1615  Zn1631  1.966   .     S
O1623  Zn1632  1.966   .     S
O1624  Zn1631  1.964   .     S
O1625  Zn1632  1.964   .     S
O1626  Zn1631  1.992   .     S
O1627  Zn1632  1.992   .     S
O1628  Zn1631  1.994   .     S
O1629  Zn1632  1.994   .     S
C1633  O1717   1.310   .     A
C1633  C1651   1.455   .     S
C1633  O1727   1.306   .     A
C1634  C1667   1.498   .     S
C1634  C1650   1.405   .     A
C1634  C1738   1.392   .     S
C1635  C1650   1.415   .     A
C1635  C1668   1.492   .     S
C1635  C1776   1.400   .     S
C1636  C1651   1.400   .     A
C1636  C1669   1.497   .     S
C1637  C1648   1.403   .     A
C1637  H1675   1.083   .     S
C1637  C1641   1.384   .     A
C1638  H1686   1.083   .     S
C1638  C1649   1.400   .     A
C1638  C1642   1.379   .     A
C1639  C1643   1.383   .     A
C1639  C1649   1.397   .     A
C1639  H1697   1.083   .     S
C1640  C1645   1.378   .     A
C1640  H1708   1.083   .     S
C1640  C1648   1.398   .     A
C1641  C1646   1.398   .     A
C1641  H1710   1.082   .     S
C1642  C1647   1.397   .     A
C1642  H1711   1.072   .     S
C1643  C1647   1.405   .     A
C1643  H1712   1.080   .     S
C1644  O1726   1.313   .     A
C1644  O1725   1.304   .     A
C1644  C1650   1.456   .     S
C1645  H1713   1.070   .     S
C1645  C1646   1.395   .     A
C1646  C1655   1.441   .     S
C1647  C1666   1.455   .     S
C1649  C730    1.451   1_556 S
C1651  C1674   1.409   .     A
C1652  H1681   1.108   .     S
C1652  C1670   1.523   .     S
C1652  C1653   1.543   .     S
C1652  H1680   1.091   .     S
C1653  C1654   1.528   .     S
C1653  H1678   1.103   .     S
C1653  H1679   1.095   .     S
C1654  H1714   1.107   .     S
C1654  H1676   1.109   .     S
C1654  H1677   1.111   .     S
C1655  O1731   1.309   .     A
C1655  O1728   1.302   .     A
C1656  C1671   1.530   .     S
C1656  C1657   1.542   .     S
C1656  H1689   1.106   .     S
C1656  H1688   1.090   .     S
C1657  H1685   1.111   .     S
C1657  C1658   1.528   .     S
C1657  H1687   1.107   .     S
C1658  H1682   1.110   .     S
C1658  H1684   1.111   .     S
C1658  H1683   1.107   .     S
C1659  C1672   1.525   .     S
C1659  H1695   1.097   .     S
C1659  H1696   1.107   .     S
C1659  C1660   1.544   .     S
C1660  C1661   1.530   .     S
C1660  H1693   1.103   .     S
C1660  H1694   1.104   .     S
C1661  H1691   1.108   .     S
C1661  H1692   1.111   .     S
C1661  H1690   1.110   .     S
C1662  H1703   1.090   .     S
C1662  C1663   1.539   .     S
C1662  C1673   1.525   .     S
C1662  H1704   1.104   .     S
C1663  H1702   1.106   .     S
C1663  C1664   1.527   .     S
C1663  H1701   1.106   .     S
C1664  H1700   1.111   .     S
C1664  H1699   1.108   .     S
C1664  H1698   1.109   .     S
C1665  O1718   1.399   .     S
C1665  C1674   1.498   .     S
C1665  O1732   1.221   .     D
C1666  O1729   1.314   .     A
C1666  O1730   1.303   .     A
C1667  O1719   1.222   .     D
C1667  O1720   1.398   .     S
C1668  O1721   1.220   .     D
C1668  O1722   1.398   .     S
C1669  O1723   1.222   .     D
C1669  O1724   1.399   .     S
C1670  N1716   1.387   .     A
C1671  N1715   1.386   .     A
C1671  C1060   1.433   1_565 S
C1672  N1716   1.388   .     A
C1673  N1715   1.385   .     A
C1673  C1058   1.431   1_565 S
H1705  O1718   1.014   .     S
H1706  O1720   1.014   .     S
H1707  O1722   1.014   .     S
H1709  O1724   1.014   .     S
N1715  Zn1733  2.052   .     S
N1716  Zn1734  2.052   .     S
O1717  Zn1733  1.966   .     S
O1725  Zn1734  1.966   .     S
O1726  Zn1733  1.964   .     S
O1727  Zn1734  1.964   .     S
O1728  Zn1733  1.992   .     S
O1729  Zn1734  1.992   .     S
O1730  Zn1733  1.994   .     S
O1731  Zn1734  1.994   .     S
C1735  O1819   1.310   .     A
C1735  C1753   1.455   .     S
C1735  O1829   1.306   .     A
C1736  C1769   1.498   .     S
C1736  C1752   1.405   .     A
C1736  C1534   1.392   1_655 S
C1737  C1752   1.415   .     A
C1737  C1770   1.492   .     S
C1737  C1572   1.400   1_655 S
C1738  C1753   1.400   .     A
C1738  C1771   1.497   .     S
C1739  C1750   1.403   .     A
C1739  H1777   1.083   .     S
C1739  C1743   1.384   .     A
C1740  H1788   1.083   .     S
C1740  C1751   1.400   .     A
C1740  C1744   1.379   .     A
C1741  C1745   1.383   .     A
C1741  C1751   1.397   .     A
C1741  H1799   1.083   .     S
C1742  C1747   1.378   .     A
C1742  H1810   1.083   .     S
C1742  C1750   1.398   .     A
C1743  C1748   1.398   .     A
C1743  H1812   1.082   .     S
C1744  C1749   1.397   .     A
C1744  H1813   1.072   .     S
C1745  C1749   1.405   .     A
C1745  H1814   1.080   .     S
C1746  O1828   1.313   .     A
C1746  O1827   1.304   .     A
C1746  C1752   1.456   .     S
C1747  H1815   1.070   .     S
C1747  C1748   1.395   .     A
C1748  C1757   1.441   .     S
C1749  C1768   1.455   .     S
C1751  C832    1.451   1_556 S
C1753  C1776   1.409   .     A
C1754  H1783   1.108   .     S
C1754  C1772   1.523   .     S
C1754  C1755   1.543   .     S
C1754  H1782   1.091   .     S
C1755  C1756   1.528   .     S
C1755  H1780   1.103   .     S
C1755  H1781   1.095   .     S
C1756  H1816   1.107   .     S
C1756  H1778   1.109   .     S
C1756  H1779   1.111   .     S
C1757  O1833   1.309   .     A
C1757  O1830   1.302   .     A
C1758  C1773   1.530   .     S
C1758  C1759   1.542   .     S
C1758  H1791   1.106   .     S
C1758  H1790   1.090   .     S
C1759  H1787   1.111   .     S
C1759  C1760   1.528   .     S
C1759  H1789   1.107   .     S
C1760  H1784   1.110   .     S
C1760  H1786   1.111   .     S
C1760  H1785   1.107   .     S
C1761  C1774   1.525   .     S
C1761  H1797   1.097   .     S
C1761  H1798   1.107   .     S
C1761  C1762   1.544   .     S
C1762  C1763   1.530   .     S
C1762  H1795   1.103   .     S
C1762  H1796   1.104   .     S
C1763  H1793   1.108   .     S
C1763  H1794   1.111   .     S
C1763  H1792   1.110   .     S
C1764  H1805   1.090   .     S
C1764  C1765   1.539   .     S
C1764  C1775   1.525   .     S
C1764  H1806   1.104   .     S
C1765  H1804   1.106   .     S
C1765  C1766   1.527   .     S
C1765  H1803   1.106   .     S
C1766  H1802   1.111   .     S
C1766  H1801   1.108   .     S
C1766  H1800   1.109   .     S
C1767  O1820   1.399   .     S
C1767  C1776   1.498   .     S
C1767  O1834   1.221   .     D
C1768  O1831   1.314   .     A
C1768  O1832   1.303   .     A
C1769  O1821   1.222   .     D
C1769  O1822   1.398   .     S
C1770  O1823   1.220   .     D
C1770  O1824   1.398   .     S
C1771  O1825   1.222   .     D
C1771  O1826   1.399   .     S
C1772  N1818   1.387   .     A
C1773  N1817   1.386   .     A
C1773  C1162   1.433   1_565 S
C1774  N1818   1.388   .     A
C1775  N1817   1.385   .     A
C1775  C1160   1.431   1_565 S
H1807  O1820   1.014   .     S
H1808  O1822   1.014   .     S
H1809  O1824   1.014   .     S
H1811  O1826   1.014   .     S
N1817  Zn1835  2.052   .     S
N1818  Zn1836  2.052   .     S
O1819  Zn1835  1.966   .     S
O1827  Zn1836  1.966   .     S
O1828  Zn1835  1.964   .     S
O1829  Zn1836  1.964   .     S
O1830  Zn1835  1.992   .     S
O1831  Zn1836  1.992   .     S
O1832  Zn1835  1.994   .     S
O1833  Zn1836  1.994   .     S
