data_str_m2_o1_o2_pcu_sym.130
_audit_creation_date              2020-01-03
_audit_creation_method            'Materials Studio'
_symmetry_space_group_name_H-M    'P1'
_symmetry_Int_Tables_number       1
_symmetry_cell_setting            triclinic
loop_
_symmetry_equiv_pos_as_xyz
  x,y,z
_cell_length_a                    32.7756
_cell_length_b                    28.5854
_cell_length_c                    30.2644
_cell_angle_alpha                 90.0163
_cell_angle_beta                  90.2229
_cell_angle_gamma                 89.7939
loop_
_atom_site_label
_atom_site_type_symbol
_atom_site_fract_x
_atom_site_fract_y
_atom_site_fract_z
_atom_site_U_iso_or_equiv
_atom_site_adp_type
_atom_site_occupancy
C1     C     0.08723   0.16677   0.24986   0.00000  Uiso   1.00
C2     C     0.24587   0.16662   0.24997   0.00000  Uiso   1.00
C3     C     0.16668   0.16666   0.16498   0.00000  Uiso   1.00
C4     C     0.16677   0.16667   0.33502   0.00000  Uiso   1.00
C5     C     0.15351   0.02477   0.21391   0.00000  Uiso   1.00
C6     C     0.18019   0.30853   0.28595   0.00000  Uiso   1.00
C7     C     0.17992   0.02468   0.28606   0.00000  Uiso   1.00
C8     C     0.15339   0.30863   0.21396   0.00000  Uiso   1.00
C9     C     0.02028   0.12429   0.25059   0.00000  Uiso   1.00
C10    C     0.31189   0.20725   0.23725   0.00000  Uiso   1.00
C11    C     0.31252   0.12625   0.26193   0.00000  Uiso   1.00
C12    C     0.01984   0.20959   0.24841   0.00000  Uiso   1.00
C13    C     0.15504   0.20672   0.04751   0.00000  Uiso   1.00
C14    C     0.15516   0.12658   0.45235   0.00000  Uiso   1.00
C15    C     0.17978   0.20653   0.45239   0.00000  Uiso   1.00
C16    C     0.17970   0.12659   0.04777   0.00000  Uiso   1.00
C17    C     0.15507   0.20684   0.09343   0.00000  Uiso   1.00
C18    C     0.15524   0.12649   0.40643   0.00000  Uiso   1.00
C19    C     0.17927   0.20667   0.40646   0.00000  Uiso   1.00
C20    C     0.17914   0.12648   0.09368   0.00000  Uiso   1.00
C21    C     0.16694   0.16665   0.11675   0.00000  Uiso   1.00
C22    C     0.16707   0.16663   0.38325   0.00000  Uiso   1.00
C23    C     0.16747   0.16664   0.02430   0.00000  Uiso   1.00
C24    C     0.16753   0.16656   0.47571   0.00000  Uiso   1.00
C25    C     0.29035   0.16667   0.24974   0.00000  Uiso   1.00
C26    C     0.04232   0.16696   0.24965   0.00000  Uiso   1.00
Cu27   Cu    0.16667   0.21355   0.25000   0.00000  Uiso   1.00
Cu28   Cu    0.16667   0.11978   0.25000   0.00000  Uiso   1.00
H29    H     0.14477   0.23778   0.03021   0.00000  Uiso   1.00
H30    H     0.14490   0.09559   0.46954   0.00000  Uiso   1.00
H31    H     0.19017   0.23751   0.46960   0.00000  Uiso   1.00
H32    H     0.19012   0.09551   0.03066   0.00000  Uiso   1.00
H33    H     0.14524   0.23811   0.11065   0.00000  Uiso   1.00
H34    H     0.14546   0.09530   0.38910   0.00000  Uiso   1.00
H35    H     0.18892   0.23787   0.38916   0.00000  Uiso   1.00
H36    H     0.18878   0.09521   0.11110   0.00000  Uiso   1.00
N37    N     0.16667   0.28402   0.25000   0.00000  Uiso   1.00
N38    N     0.16667   0.04931   0.25000   0.00000  Uiso   1.00
O39    O     0.10655   0.20625   0.25000   0.00000  Uiso   1.00
O40    O     0.22679   0.12709   0.25001   0.00000  Uiso   1.00
O41    O     0.22679   0.20625   0.25001   0.00000  Uiso   1.00
O42    O     0.10655   0.12709   0.24999   0.00000  Uiso   1.00
O43    O     0.16666   0.20626   0.18573   0.00000  Uiso   1.00
O44    O     0.16667   0.12707   0.31427   0.00000  Uiso   1.00
O45    O     0.16667   0.20626   0.31427   0.00000  Uiso   1.00
O46    O     0.16666   0.12707   0.18573   0.00000  Uiso   1.00
H47    H     0.14291   0.04313   0.18486   0.00000  Uiso   1.00
H48    H     0.19142   0.29010   0.31471   0.00000  Uiso   1.00
H49    H     0.19080   0.04301   0.31498   0.00000  Uiso   1.00
H50    H     0.14237   0.29028   0.18509   0.00000  Uiso   1.00
S51    S     0.03963   0.07045   0.22960   0.00000  Uiso   1.00
O52    O     0.06471   0.04665   0.26473   0.00000  Uiso   1.00
O53    O     0.00536   0.03879   0.21591   0.00000  Uiso   1.00
O54    O     0.06882   0.08039   0.18501   0.00000  Uiso   1.00
H55    H     0.05135   0.09904   0.16480   0.00000  Uiso   1.00
S56    S     0.29058   0.25062   0.20148   0.00000  Uiso   1.00
O57    O     0.26775   0.28650   0.22807   0.00000  Uiso   1.00
O58    O     0.32375   0.27443   0.17586   0.00000  Uiso   1.00
O59    O     0.25835   0.22514   0.16545   0.00000  Uiso   1.00
H60    H     0.24387   0.25139   0.15077   0.00000  Uiso   1.00
S61    S     0.29240   0.08223   0.29721   0.00000  Uiso   1.00
O62    O     0.27020   0.04626   0.27020   0.00000  Uiso   1.00
O63    O     0.32643   0.05882   0.32237   0.00000  Uiso   1.00
O64    O     0.25997   0.10664   0.33357   0.00000  Uiso   1.00
H65    H     0.25198   0.08081   0.35352   0.00000  Uiso   1.00
S66    S     0.03941   0.26439   0.26655   0.00000  Uiso   1.00
O67    O     0.06282   0.28641   0.22944   0.00000  Uiso   1.00
O68    O     0.00510   0.29628   0.27994   0.00000  Uiso   1.00
O69    O     0.07017   0.25696   0.31068   0.00000  Uiso   1.00
H70    H     0.08457   0.28715   0.31416   0.00000  Uiso   1.00
C71    C     0.42056   0.16677   0.24986   0.00000  Uiso   1.00
C72    C     0.57921   0.16662   0.24997   0.00000  Uiso   1.00
C73    C     0.50002   0.16666   0.16498   0.00000  Uiso   1.00
C74    C     0.50010   0.16667   0.33502   0.00000  Uiso   1.00
C75    C     0.48684   0.02477   0.21391   0.00000  Uiso   1.00
C76    C     0.51352   0.30853   0.28595   0.00000  Uiso   1.00
C77    C     0.51326   0.02468   0.28606   0.00000  Uiso   1.00
C78    C     0.48672   0.30863   0.21396   0.00000  Uiso   1.00
C79    C     0.35362   0.12429   0.25059   0.00000  Uiso   1.00
C80    C     0.64522   0.20725   0.23725   0.00000  Uiso   1.00
C81    C     0.64585   0.12625   0.26193   0.00000  Uiso   1.00
C82    C     0.35318   0.20959   0.24841   0.00000  Uiso   1.00
C83    C     0.48837   0.20672   0.04751   0.00000  Uiso   1.00
C84    C     0.48850   0.12658   0.45235   0.00000  Uiso   1.00
C85    C     0.51311   0.20653   0.45239   0.00000  Uiso   1.00
C86    C     0.51303   0.12659   0.04777   0.00000  Uiso   1.00
C87    C     0.48840   0.20684   0.09343   0.00000  Uiso   1.00
C88    C     0.48857   0.12649   0.40643   0.00000  Uiso   1.00
C89    C     0.51260   0.20667   0.40646   0.00000  Uiso   1.00
C90    C     0.51247   0.12648   0.09368   0.00000  Uiso   1.00
C91    C     0.50027   0.16665   0.11675   0.00000  Uiso   1.00
C92    C     0.50040   0.16663   0.38325   0.00000  Uiso   1.00
C93    C     0.50081   0.16664   0.02430   0.00000  Uiso   1.00
C94    C     0.50086   0.16656   0.47571   0.00000  Uiso   1.00
C95    C     0.62368   0.16667   0.24974   0.00000  Uiso   1.00
C96    C     0.37566   0.16696   0.24965   0.00000  Uiso   1.00
Cu97   Cu    0.50000   0.21355   0.25000   0.00000  Uiso   1.00
Cu98   Cu    0.50000   0.11978   0.25000   0.00000  Uiso   1.00
H99    H     0.47810   0.23778   0.03021   0.00000  Uiso   1.00
H100   H     0.47823   0.09559   0.46954   0.00000  Uiso   1.00
H101   H     0.52351   0.23751   0.46960   0.00000  Uiso   1.00
H102   H     0.52346   0.09551   0.03066   0.00000  Uiso   1.00
H103   H     0.47857   0.23811   0.11065   0.00000  Uiso   1.00
H104   H     0.47879   0.09530   0.38910   0.00000  Uiso   1.00
H105   H     0.52225   0.23787   0.38916   0.00000  Uiso   1.00
H106   H     0.52211   0.09521   0.11110   0.00000  Uiso   1.00
N107   N     0.50000   0.28402   0.25000   0.00000  Uiso   1.00
N108   N     0.50000   0.04931   0.25000   0.00000  Uiso   1.00
O109   O     0.43988   0.20625   0.25000   0.00000  Uiso   1.00
O110   O     0.56012   0.12709   0.25001   0.00000  Uiso   1.00
O111   O     0.56012   0.20625   0.25001   0.00000  Uiso   1.00
O112   O     0.43988   0.12709   0.24999   0.00000  Uiso   1.00
O113   O     0.50000   0.20626   0.18573   0.00000  Uiso   1.00
O114   O     0.50000   0.12707   0.31427   0.00000  Uiso   1.00
O115   O     0.50000   0.20626   0.31427   0.00000  Uiso   1.00
O116   O     0.50000   0.12707   0.18573   0.00000  Uiso   1.00
H117   H     0.47625   0.04313   0.18486   0.00000  Uiso   1.00
H118   H     0.52475   0.29010   0.31471   0.00000  Uiso   1.00
H119   H     0.52413   0.04301   0.31498   0.00000  Uiso   1.00
H120   H     0.47570   0.29028   0.18509   0.00000  Uiso   1.00
S121   S     0.37296   0.07045   0.22960   0.00000  Uiso   1.00
O122   O     0.39804   0.04665   0.26473   0.00000  Uiso   1.00
O123   O     0.33870   0.03879   0.21591   0.00000  Uiso   1.00
O124   O     0.40215   0.08039   0.18501   0.00000  Uiso   1.00
H125   H     0.38468   0.09904   0.16480   0.00000  Uiso   1.00
S126   S     0.62391   0.25062   0.20148   0.00000  Uiso   1.00
O127   O     0.60108   0.28650   0.22807   0.00000  Uiso   1.00
O128   O     0.65708   0.27443   0.17586   0.00000  Uiso   1.00
O129   O     0.59168   0.22514   0.16545   0.00000  Uiso   1.00
H130   H     0.57720   0.25139   0.15077   0.00000  Uiso   1.00
S131   S     0.62573   0.08223   0.29721   0.00000  Uiso   1.00
O132   O     0.60354   0.04626   0.27020   0.00000  Uiso   1.00
O133   O     0.65976   0.05882   0.32237   0.00000  Uiso   1.00
O134   O     0.59330   0.10664   0.33357   0.00000  Uiso   1.00
H135   H     0.58531   0.08081   0.35352   0.00000  Uiso   1.00
S136   S     0.37274   0.26439   0.26655   0.00000  Uiso   1.00
O137   O     0.39616   0.28641   0.22944   0.00000  Uiso   1.00
O138   O     0.33844   0.29628   0.27994   0.00000  Uiso   1.00
O139   O     0.40350   0.25696   0.31068   0.00000  Uiso   1.00
H140   H     0.41791   0.28715   0.31416   0.00000  Uiso   1.00
C141   C     0.75389   0.16677   0.24986   0.00000  Uiso   1.00
C142   C     0.91254   0.16662   0.24997   0.00000  Uiso   1.00
C143   C     0.83335   0.16666   0.16498   0.00000  Uiso   1.00
C144   C     0.83343   0.16667   0.33502   0.00000  Uiso   1.00
C145   C     0.82018   0.02477   0.21391   0.00000  Uiso   1.00
C146   C     0.84685   0.30853   0.28595   0.00000  Uiso   1.00
C147   C     0.84659   0.02468   0.28606   0.00000  Uiso   1.00
C148   C     0.82006   0.30863   0.21396   0.00000  Uiso   1.00
C149   C     0.68695   0.12429   0.25059   0.00000  Uiso   1.00
C150   C     0.97856   0.20725   0.23725   0.00000  Uiso   1.00
C151   C     0.97919   0.12625   0.26193   0.00000  Uiso   1.00
C152   C     0.68651   0.20959   0.24841   0.00000  Uiso   1.00
C153   C     0.82170   0.20672   0.04751   0.00000  Uiso   1.00
C154   C     0.82183   0.12658   0.45235   0.00000  Uiso   1.00
C155   C     0.84645   0.20653   0.45239   0.00000  Uiso   1.00
C156   C     0.84637   0.12659   0.04777   0.00000  Uiso   1.00
C157   C     0.82173   0.20684   0.09343   0.00000  Uiso   1.00
C158   C     0.82190   0.12649   0.40643   0.00000  Uiso   1.00
C159   C     0.84593   0.20667   0.40646   0.00000  Uiso   1.00
C160   C     0.84581   0.12648   0.09368   0.00000  Uiso   1.00
C161   C     0.83360   0.16665   0.11675   0.00000  Uiso   1.00
C162   C     0.83374   0.16663   0.38325   0.00000  Uiso   1.00
C163   C     0.83414   0.16664   0.02430   0.00000  Uiso   1.00
C164   C     0.83419   0.16656   0.47571   0.00000  Uiso   1.00
C165   C     0.95702   0.16667   0.24974   0.00000  Uiso   1.00
C166   C     0.70899   0.16696   0.24965   0.00000  Uiso   1.00
Cu167  Cu    0.83333   0.21355   0.25000   0.00000  Uiso   1.00
Cu168  Cu    0.83333   0.11978   0.25000   0.00000  Uiso   1.00
H169   H     0.81144   0.23778   0.03021   0.00000  Uiso   1.00
H170   H     0.81156   0.09559   0.46954   0.00000  Uiso   1.00
H171   H     0.85684   0.23751   0.46960   0.00000  Uiso   1.00
H172   H     0.85679   0.09551   0.03066   0.00000  Uiso   1.00
H173   H     0.81190   0.23811   0.11065   0.00000  Uiso   1.00
H174   H     0.81212   0.09530   0.38910   0.00000  Uiso   1.00
H175   H     0.85559   0.23787   0.38916   0.00000  Uiso   1.00
H176   H     0.85544   0.09521   0.11110   0.00000  Uiso   1.00
N177   N     0.83333   0.28402   0.25000   0.00000  Uiso   1.00
N178   N     0.83333   0.04931   0.25000   0.00000  Uiso   1.00
O179   O     0.77321   0.20625   0.25000   0.00000  Uiso   1.00
O180   O     0.89345   0.12709   0.25001   0.00000  Uiso   1.00
O181   O     0.89345   0.20625   0.25001   0.00000  Uiso   1.00
O182   O     0.77321   0.12709   0.24999   0.00000  Uiso   1.00
O183   O     0.83333   0.20626   0.18573   0.00000  Uiso   1.00
O184   O     0.83334   0.12707   0.31427   0.00000  Uiso   1.00
O185   O     0.83334   0.20626   0.31427   0.00000  Uiso   1.00
O186   O     0.83333   0.12707   0.18573   0.00000  Uiso   1.00
H187   H     0.80958   0.04313   0.18486   0.00000  Uiso   1.00
H188   H     0.85808   0.29010   0.31471   0.00000  Uiso   1.00
H189   H     0.85747   0.04301   0.31498   0.00000  Uiso   1.00
H190   H     0.80904   0.29028   0.18509   0.00000  Uiso   1.00
S191   S     0.70630   0.07045   0.22960   0.00000  Uiso   1.00
O192   O     0.73138   0.04665   0.26473   0.00000  Uiso   1.00
O193   O     0.67203   0.03879   0.21591   0.00000  Uiso   1.00
O194   O     0.73548   0.08039   0.18501   0.00000  Uiso   1.00
H195   H     0.71802   0.09904   0.16480   0.00000  Uiso   1.00
S196   S     0.95724   0.25062   0.20148   0.00000  Uiso   1.00
O197   O     0.93441   0.28650   0.22807   0.00000  Uiso   1.00
O198   O     0.99042   0.27443   0.17586   0.00000  Uiso   1.00
O199   O     0.92502   0.22514   0.16545   0.00000  Uiso   1.00
H200   H     0.91054   0.25139   0.15077   0.00000  Uiso   1.00
S201   S     0.95906   0.08223   0.29721   0.00000  Uiso   1.00
O202   O     0.93687   0.04626   0.27020   0.00000  Uiso   1.00
O203   O     0.99309   0.05882   0.32237   0.00000  Uiso   1.00
O204   O     0.92663   0.10664   0.33357   0.00000  Uiso   1.00
H205   H     0.91864   0.08081   0.35352   0.00000  Uiso   1.00
S206   S     0.70607   0.26439   0.26655   0.00000  Uiso   1.00
O207   O     0.72949   0.28641   0.22944   0.00000  Uiso   1.00
O208   O     0.67177   0.29628   0.27994   0.00000  Uiso   1.00
O209   O     0.73683   0.25696   0.31068   0.00000  Uiso   1.00
H210   H     0.75124   0.28715   0.31416   0.00000  Uiso   1.00
C211   C     0.08723   0.50010   0.24986   0.00000  Uiso   1.00
C212   C     0.24587   0.49995   0.24997   0.00000  Uiso   1.00
C213   C     0.16668   0.49999   0.16498   0.00000  Uiso   1.00
C214   C     0.16677   0.50000   0.33502   0.00000  Uiso   1.00
C215   C     0.15351   0.35810   0.21391   0.00000  Uiso   1.00
C216   C     0.18019   0.64186   0.28595   0.00000  Uiso   1.00
C217   C     0.17992   0.35802   0.28606   0.00000  Uiso   1.00
C218   C     0.15339   0.64196   0.21396   0.00000  Uiso   1.00
C219   C     0.02028   0.45762   0.25059   0.00000  Uiso   1.00
C220   C     0.31189   0.54058   0.23725   0.00000  Uiso   1.00
C221   C     0.31252   0.45958   0.26193   0.00000  Uiso   1.00
C222   C     0.01984   0.54292   0.24841   0.00000  Uiso   1.00
C223   C     0.15504   0.54006   0.04751   0.00000  Uiso   1.00
C224   C     0.15516   0.45991   0.45235   0.00000  Uiso   1.00
C225   C     0.17978   0.53986   0.45239   0.00000  Uiso   1.00
C226   C     0.17970   0.45992   0.04777   0.00000  Uiso   1.00
C227   C     0.15507   0.54017   0.09343   0.00000  Uiso   1.00
C228   C     0.15524   0.45983   0.40643   0.00000  Uiso   1.00
C229   C     0.17927   0.54000   0.40646   0.00000  Uiso   1.00
C230   C     0.17914   0.45981   0.09368   0.00000  Uiso   1.00
C231   C     0.16694   0.49998   0.11675   0.00000  Uiso   1.00
C232   C     0.16707   0.49996   0.38325   0.00000  Uiso   1.00
C233   C     0.16747   0.49997   0.02430   0.00000  Uiso   1.00
C234   C     0.16753   0.49990   0.47571   0.00000  Uiso   1.00
C235   C     0.29035   0.50000   0.24974   0.00000  Uiso   1.00
C236   C     0.04232   0.50029   0.24965   0.00000  Uiso   1.00
Cu237  Cu    0.16667   0.54689   0.25000   0.00000  Uiso   1.00
Cu238  Cu    0.16667   0.45311   0.25000   0.00000  Uiso   1.00
H239   H     0.14477   0.57111   0.03021   0.00000  Uiso   1.00
H240   H     0.14490   0.42892   0.46954   0.00000  Uiso   1.00
H241   H     0.19017   0.57085   0.46960   0.00000  Uiso   1.00
H242   H     0.19012   0.42885   0.03066   0.00000  Uiso   1.00
H243   H     0.14524   0.57144   0.11065   0.00000  Uiso   1.00
H244   H     0.14546   0.42863   0.38910   0.00000  Uiso   1.00
H245   H     0.18892   0.57120   0.38916   0.00000  Uiso   1.00
H246   H     0.18878   0.42855   0.11110   0.00000  Uiso   1.00
N247   N     0.16667   0.61736   0.25000   0.00000  Uiso   1.00
N248   N     0.16667   0.38264   0.25000   0.00000  Uiso   1.00
O249   O     0.10655   0.53958   0.25000   0.00000  Uiso   1.00
O250   O     0.22679   0.46042   0.25001   0.00000  Uiso   1.00
O251   O     0.22679   0.53958   0.25001   0.00000  Uiso   1.00
O252   O     0.10655   0.46042   0.24999   0.00000  Uiso   1.00
O253   O     0.16666   0.53959   0.18573   0.00000  Uiso   1.00
O254   O     0.16667   0.46041   0.31427   0.00000  Uiso   1.00
O255   O     0.16667   0.53959   0.31427   0.00000  Uiso   1.00
O256   O     0.16666   0.46041   0.18573   0.00000  Uiso   1.00
H257   H     0.14291   0.37646   0.18486   0.00000  Uiso   1.00
H258   H     0.19142   0.62343   0.31471   0.00000  Uiso   1.00
H259   H     0.19080   0.37635   0.31498   0.00000  Uiso   1.00
H260   H     0.14237   0.62361   0.18509   0.00000  Uiso   1.00
S261   S     0.03963   0.40378   0.22960   0.00000  Uiso   1.00
O262   O     0.06471   0.37999   0.26473   0.00000  Uiso   1.00
O263   O     0.00536   0.37212   0.21591   0.00000  Uiso   1.00
O264   O     0.06882   0.41373   0.18501   0.00000  Uiso   1.00
H265   H     0.05135   0.43237   0.16480   0.00000  Uiso   1.00
S266   S     0.29058   0.58395   0.20148   0.00000  Uiso   1.00
O267   O     0.26775   0.61984   0.22807   0.00000  Uiso   1.00
O268   O     0.32375   0.60776   0.17586   0.00000  Uiso   1.00
O269   O     0.25835   0.55848   0.16545   0.00000  Uiso   1.00
H270   H     0.24387   0.58472   0.15077   0.00000  Uiso   1.00
S271   S     0.29240   0.41556   0.29721   0.00000  Uiso   1.00
O272   O     0.27020   0.37959   0.27020   0.00000  Uiso   1.00
O273   O     0.32643   0.39216   0.32237   0.00000  Uiso   1.00
O274   O     0.25997   0.43998   0.33357   0.00000  Uiso   1.00
H275   H     0.25198   0.41415   0.35352   0.00000  Uiso   1.00
S276   S     0.03941   0.59773   0.26655   0.00000  Uiso   1.00
O277   O     0.06282   0.61974   0.22944   0.00000  Uiso   1.00
O278   O     0.00510   0.62962   0.27994   0.00000  Uiso   1.00
O279   O     0.07017   0.59029   0.31068   0.00000  Uiso   1.00
H280   H     0.08457   0.62048   0.31416   0.00000  Uiso   1.00
C281   C     0.42056   0.50010   0.24986   0.00000  Uiso   1.00
C282   C     0.57921   0.49995   0.24997   0.00000  Uiso   1.00
C283   C     0.50002   0.49999   0.16498   0.00000  Uiso   1.00
C284   C     0.50010   0.50000   0.33502   0.00000  Uiso   1.00
C285   C     0.48684   0.35810   0.21391   0.00000  Uiso   1.00
C286   C     0.51352   0.64186   0.28595   0.00000  Uiso   1.00
C287   C     0.51326   0.35802   0.28606   0.00000  Uiso   1.00
C288   C     0.48672   0.64196   0.21396   0.00000  Uiso   1.00
C289   C     0.35362   0.45762   0.25059   0.00000  Uiso   1.00
C290   C     0.64522   0.54058   0.23725   0.00000  Uiso   1.00
C291   C     0.64585   0.45958   0.26193   0.00000  Uiso   1.00
C292   C     0.35318   0.54292   0.24841   0.00000  Uiso   1.00
C293   C     0.48837   0.54006   0.04751   0.00000  Uiso   1.00
C294   C     0.48850   0.45991   0.45235   0.00000  Uiso   1.00
C295   C     0.51311   0.53986   0.45239   0.00000  Uiso   1.00
C296   C     0.51303   0.45992   0.04777   0.00000  Uiso   1.00
C297   C     0.48840   0.54017   0.09343   0.00000  Uiso   1.00
C298   C     0.48857   0.45983   0.40643   0.00000  Uiso   1.00
C299   C     0.51260   0.54000   0.40646   0.00000  Uiso   1.00
C300   C     0.51247   0.45981   0.09368   0.00000  Uiso   1.00
C301   C     0.50027   0.49998   0.11675   0.00000  Uiso   1.00
C302   C     0.50040   0.49996   0.38325   0.00000  Uiso   1.00
C303   C     0.50081   0.49997   0.02430   0.00000  Uiso   1.00
C304   C     0.50086   0.49990   0.47571   0.00000  Uiso   1.00
C305   C     0.62368   0.50000   0.24974   0.00000  Uiso   1.00
C306   C     0.37566   0.50029   0.24965   0.00000  Uiso   1.00
Cu307  Cu    0.50000   0.54689   0.25000   0.00000  Uiso   1.00
Cu308  Cu    0.50000   0.45311   0.25000   0.00000  Uiso   1.00
H309   H     0.47810   0.57111   0.03021   0.00000  Uiso   1.00
H310   H     0.47823   0.42892   0.46954   0.00000  Uiso   1.00
H311   H     0.52351   0.57085   0.46960   0.00000  Uiso   1.00
H312   H     0.52346   0.42885   0.03066   0.00000  Uiso   1.00
H313   H     0.47857   0.57144   0.11065   0.00000  Uiso   1.00
H314   H     0.47879   0.42863   0.38910   0.00000  Uiso   1.00
H315   H     0.52225   0.57120   0.38916   0.00000  Uiso   1.00
H316   H     0.52211   0.42855   0.11110   0.00000  Uiso   1.00
N317   N     0.50000   0.61736   0.25000   0.00000  Uiso   1.00
N318   N     0.50000   0.38264   0.25000   0.00000  Uiso   1.00
O319   O     0.43988   0.53958   0.25000   0.00000  Uiso   1.00
O320   O     0.56012   0.46042   0.25001   0.00000  Uiso   1.00
O321   O     0.56012   0.53958   0.25001   0.00000  Uiso   1.00
O322   O     0.43988   0.46042   0.24999   0.00000  Uiso   1.00
O323   O     0.50000   0.53959   0.18573   0.00000  Uiso   1.00
O324   O     0.50000   0.46041   0.31427   0.00000  Uiso   1.00
O325   O     0.50000   0.53959   0.31427   0.00000  Uiso   1.00
O326   O     0.50000   0.46041   0.18573   0.00000  Uiso   1.00
H327   H     0.47625   0.37646   0.18486   0.00000  Uiso   1.00
H328   H     0.52475   0.62343   0.31471   0.00000  Uiso   1.00
H329   H     0.52413   0.37635   0.31498   0.00000  Uiso   1.00
H330   H     0.47570   0.62361   0.18509   0.00000  Uiso   1.00
S331   S     0.37296   0.40378   0.22960   0.00000  Uiso   1.00
O332   O     0.39804   0.37999   0.26473   0.00000  Uiso   1.00
O333   O     0.33870   0.37212   0.21591   0.00000  Uiso   1.00
O334   O     0.40215   0.41373   0.18501   0.00000  Uiso   1.00
H335   H     0.38468   0.43237   0.16480   0.00000  Uiso   1.00
S336   S     0.62391   0.58395   0.20148   0.00000  Uiso   1.00
O337   O     0.60108   0.61984   0.22807   0.00000  Uiso   1.00
O338   O     0.65708   0.60776   0.17586   0.00000  Uiso   1.00
O339   O     0.59168   0.55848   0.16545   0.00000  Uiso   1.00
H340   H     0.57720   0.58472   0.15077   0.00000  Uiso   1.00
S341   S     0.62573   0.41556   0.29721   0.00000  Uiso   1.00
O342   O     0.60354   0.37959   0.27020   0.00000  Uiso   1.00
O343   O     0.65976   0.39216   0.32237   0.00000  Uiso   1.00
O344   O     0.59330   0.43998   0.33357   0.00000  Uiso   1.00
H345   H     0.58531   0.41415   0.35352   0.00000  Uiso   1.00
S346   S     0.37274   0.59773   0.26655   0.00000  Uiso   1.00
O347   O     0.39616   0.61974   0.22944   0.00000  Uiso   1.00
O348   O     0.33844   0.62962   0.27994   0.00000  Uiso   1.00
O349   O     0.40350   0.59029   0.31068   0.00000  Uiso   1.00
H350   H     0.41791   0.62048   0.31416   0.00000  Uiso   1.00
C351   C     0.75389   0.50010   0.24986   0.00000  Uiso   1.00
C352   C     0.91254   0.49995   0.24997   0.00000  Uiso   1.00
C353   C     0.83335   0.49999   0.16498   0.00000  Uiso   1.00
C354   C     0.83343   0.50000   0.33502   0.00000  Uiso   1.00
C355   C     0.82018   0.35810   0.21391   0.00000  Uiso   1.00
C356   C     0.84685   0.64186   0.28595   0.00000  Uiso   1.00
C357   C     0.84659   0.35802   0.28606   0.00000  Uiso   1.00
C358   C     0.82006   0.64196   0.21396   0.00000  Uiso   1.00
C359   C     0.68695   0.45762   0.25059   0.00000  Uiso   1.00
C360   C     0.97856   0.54058   0.23725   0.00000  Uiso   1.00
C361   C     0.97919   0.45958   0.26193   0.00000  Uiso   1.00
C362   C     0.68651   0.54292   0.24841   0.00000  Uiso   1.00
C363   C     0.82170   0.54006   0.04751   0.00000  Uiso   1.00
C364   C     0.82183   0.45991   0.45235   0.00000  Uiso   1.00
C365   C     0.84645   0.53986   0.45239   0.00000  Uiso   1.00
C366   C     0.84637   0.45992   0.04777   0.00000  Uiso   1.00
C367   C     0.82173   0.54017   0.09343   0.00000  Uiso   1.00
C368   C     0.82190   0.45983   0.40643   0.00000  Uiso   1.00
C369   C     0.84593   0.54000   0.40646   0.00000  Uiso   1.00
C370   C     0.84581   0.45981   0.09368   0.00000  Uiso   1.00
C371   C     0.83360   0.49998   0.11675   0.00000  Uiso   1.00
C372   C     0.83374   0.49996   0.38325   0.00000  Uiso   1.00
C373   C     0.83414   0.49997   0.02430   0.00000  Uiso   1.00
C374   C     0.83419   0.49990   0.47571   0.00000  Uiso   1.00
C375   C     0.95702   0.50000   0.24974   0.00000  Uiso   1.00
C376   C     0.70899   0.50029   0.24965   0.00000  Uiso   1.00
Cu377  Cu    0.83333   0.54689   0.25000   0.00000  Uiso   1.00
Cu378  Cu    0.83333   0.45311   0.25000   0.00000  Uiso   1.00
H379   H     0.81144   0.57111   0.03021   0.00000  Uiso   1.00
H380   H     0.81156   0.42892   0.46954   0.00000  Uiso   1.00
H381   H     0.85684   0.57085   0.46960   0.00000  Uiso   1.00
H382   H     0.85679   0.42885   0.03066   0.00000  Uiso   1.00
H383   H     0.81190   0.57144   0.11065   0.00000  Uiso   1.00
H384   H     0.81212   0.42863   0.38910   0.00000  Uiso   1.00
H385   H     0.85559   0.57120   0.38916   0.00000  Uiso   1.00
H386   H     0.85544   0.42855   0.11110   0.00000  Uiso   1.00
N387   N     0.83333   0.61736   0.25000   0.00000  Uiso   1.00
N388   N     0.83333   0.38264   0.25000   0.00000  Uiso   1.00
O389   O     0.77321   0.53958   0.25000   0.00000  Uiso   1.00
O390   O     0.89345   0.46042   0.25001   0.00000  Uiso   1.00
O391   O     0.89345   0.53958   0.25001   0.00000  Uiso   1.00
O392   O     0.77321   0.46042   0.24999   0.00000  Uiso   1.00
O393   O     0.83333   0.53959   0.18573   0.00000  Uiso   1.00
O394   O     0.83334   0.46041   0.31427   0.00000  Uiso   1.00
O395   O     0.83334   0.53959   0.31427   0.00000  Uiso   1.00
O396   O     0.83333   0.46041   0.18573   0.00000  Uiso   1.00
H397   H     0.80958   0.37646   0.18486   0.00000  Uiso   1.00
H398   H     0.85808   0.62343   0.31471   0.00000  Uiso   1.00
H399   H     0.85747   0.37635   0.31498   0.00000  Uiso   1.00
H400   H     0.80904   0.62361   0.18509   0.00000  Uiso   1.00
S401   S     0.70630   0.40378   0.22960   0.00000  Uiso   1.00
O402   O     0.73138   0.37999   0.26473   0.00000  Uiso   1.00
O403   O     0.67203   0.37212   0.21591   0.00000  Uiso   1.00
O404   O     0.73548   0.41373   0.18501   0.00000  Uiso   1.00
H405   H     0.71802   0.43237   0.16480   0.00000  Uiso   1.00
S406   S     0.95724   0.58395   0.20148   0.00000  Uiso   1.00
O407   O     0.93441   0.61984   0.22807   0.00000  Uiso   1.00
O408   O     0.99042   0.60776   0.17586   0.00000  Uiso   1.00
O409   O     0.92502   0.55848   0.16545   0.00000  Uiso   1.00
H410   H     0.91054   0.58472   0.15077   0.00000  Uiso   1.00
S411   S     0.95906   0.41556   0.29721   0.00000  Uiso   1.00
O412   O     0.93687   0.37959   0.27020   0.00000  Uiso   1.00
O413   O     0.99309   0.39216   0.32237   0.00000  Uiso   1.00
O414   O     0.92663   0.43998   0.33357   0.00000  Uiso   1.00
H415   H     0.91864   0.41415   0.35352   0.00000  Uiso   1.00
S416   S     0.70607   0.59773   0.26655   0.00000  Uiso   1.00
O417   O     0.72949   0.61974   0.22944   0.00000  Uiso   1.00
O418   O     0.67177   0.62962   0.27994   0.00000  Uiso   1.00
O419   O     0.73683   0.59029   0.31068   0.00000  Uiso   1.00
H420   H     0.75124   0.62048   0.31416   0.00000  Uiso   1.00
C421   C     0.08723   0.83344   0.24986   0.00000  Uiso   1.00
C422   C     0.24587   0.83329   0.24997   0.00000  Uiso   1.00
C423   C     0.16668   0.83333   0.16498   0.00000  Uiso   1.00
C424   C     0.16677   0.83333   0.33502   0.00000  Uiso   1.00
C425   C     0.15351   0.69143   0.21391   0.00000  Uiso   1.00
C426   C     0.18019   0.97519   0.28595   0.00000  Uiso   1.00
C427   C     0.17992   0.69135   0.28606   0.00000  Uiso   1.00
C428   C     0.15339   0.97529   0.21396   0.00000  Uiso   1.00
C429   C     0.02028   0.79095   0.25059   0.00000  Uiso   1.00
C430   C     0.31189   0.87392   0.23725   0.00000  Uiso   1.00
C431   C     0.31252   0.79291   0.26193   0.00000  Uiso   1.00
C432   C     0.01984   0.87626   0.24841   0.00000  Uiso   1.00
C433   C     0.15504   0.87339   0.04751   0.00000  Uiso   1.00
C434   C     0.15516   0.79325   0.45235   0.00000  Uiso   1.00
C435   C     0.17978   0.87320   0.45239   0.00000  Uiso   1.00
C436   C     0.17970   0.79325   0.04777   0.00000  Uiso   1.00
C437   C     0.15507   0.87350   0.09343   0.00000  Uiso   1.00
C438   C     0.15524   0.79316   0.40643   0.00000  Uiso   1.00
C439   C     0.17927   0.87334   0.40646   0.00000  Uiso   1.00
C440   C     0.17914   0.79315   0.09368   0.00000  Uiso   1.00
C441   C     0.16694   0.83332   0.11675   0.00000  Uiso   1.00
C442   C     0.16707   0.83329   0.38325   0.00000  Uiso   1.00
C443   C     0.16747   0.83331   0.02430   0.00000  Uiso   1.00
C444   C     0.16753   0.83323   0.47571   0.00000  Uiso   1.00
C445   C     0.29035   0.83333   0.24974   0.00000  Uiso   1.00
C446   C     0.04232   0.83362   0.24965   0.00000  Uiso   1.00
Cu447  Cu    0.16667   0.88022   0.25000   0.00000  Uiso   1.00
Cu448  Cu    0.16667   0.78645   0.25000   0.00000  Uiso   1.00
H449   H     0.14477   0.90445   0.03021   0.00000  Uiso   1.00
H450   H     0.14490   0.76225   0.46954   0.00000  Uiso   1.00
H451   H     0.19017   0.90418   0.46960   0.00000  Uiso   1.00
H452   H     0.19012   0.76218   0.03066   0.00000  Uiso   1.00
H453   H     0.14524   0.90478   0.11065   0.00000  Uiso   1.00
H454   H     0.14546   0.76196   0.38910   0.00000  Uiso   1.00
H455   H     0.18892   0.90454   0.38916   0.00000  Uiso   1.00
H456   H     0.18878   0.76188   0.11110   0.00000  Uiso   1.00
N457   N     0.16667   0.95069   0.25000   0.00000  Uiso   1.00
N458   N     0.16667   0.71598   0.25000   0.00000  Uiso   1.00
O459   O     0.10655   0.87291   0.25000   0.00000  Uiso   1.00
O460   O     0.22679   0.79375   0.25001   0.00000  Uiso   1.00
O461   O     0.22679   0.87291   0.25001   0.00000  Uiso   1.00
O462   O     0.10655   0.79375   0.24999   0.00000  Uiso   1.00
O463   O     0.16666   0.87293   0.18573   0.00000  Uiso   1.00
O464   O     0.16667   0.79374   0.31427   0.00000  Uiso   1.00
O465   O     0.16667   0.87293   0.31427   0.00000  Uiso   1.00
O466   O     0.16666   0.79374   0.18573   0.00000  Uiso   1.00
H467   H     0.14291   0.70980   0.18486   0.00000  Uiso   1.00
H468   H     0.19142   0.95676   0.31471   0.00000  Uiso   1.00
H469   H     0.19080   0.70968   0.31498   0.00000  Uiso   1.00
H470   H     0.14237   0.95695   0.18509   0.00000  Uiso   1.00
S471   S     0.03963   0.73712   0.22960   0.00000  Uiso   1.00
O472   O     0.06471   0.71332   0.26473   0.00000  Uiso   1.00
O473   O     0.00536   0.70546   0.21591   0.00000  Uiso   1.00
O474   O     0.06882   0.74706   0.18501   0.00000  Uiso   1.00
H475   H     0.05135   0.76570   0.16480   0.00000  Uiso   1.00
S476   S     0.29058   0.91729   0.20148   0.00000  Uiso   1.00
O477   O     0.26775   0.95317   0.22807   0.00000  Uiso   1.00
O478   O     0.32375   0.94109   0.17586   0.00000  Uiso   1.00
O479   O     0.25835   0.89181   0.16545   0.00000  Uiso   1.00
H480   H     0.24387   0.91806   0.15077   0.00000  Uiso   1.00
S481   S     0.29240   0.74889   0.29721   0.00000  Uiso   1.00
O482   O     0.27020   0.71293   0.27020   0.00000  Uiso   1.00
O483   O     0.32643   0.72549   0.32237   0.00000  Uiso   1.00
O484   O     0.25997   0.77331   0.33357   0.00000  Uiso   1.00
H485   H     0.25198   0.74748   0.35352   0.00000  Uiso   1.00
S486   S     0.03941   0.93106   0.26655   0.00000  Uiso   1.00
O487   O     0.06282   0.95308   0.22944   0.00000  Uiso   1.00
O488   O     0.00510   0.96295   0.27994   0.00000  Uiso   1.00
O489   O     0.07017   0.92362   0.31068   0.00000  Uiso   1.00
H490   H     0.08457   0.95382   0.31416   0.00000  Uiso   1.00
C491   C     0.42056   0.83344   0.24986   0.00000  Uiso   1.00
C492   C     0.57921   0.83329   0.24997   0.00000  Uiso   1.00
C493   C     0.50002   0.83333   0.16498   0.00000  Uiso   1.00
C494   C     0.50010   0.83333   0.33502   0.00000  Uiso   1.00
C495   C     0.48684   0.69143   0.21391   0.00000  Uiso   1.00
C496   C     0.51352   0.97519   0.28595   0.00000  Uiso   1.00
C497   C     0.51326   0.69135   0.28606   0.00000  Uiso   1.00
C498   C     0.48672   0.97529   0.21396   0.00000  Uiso   1.00
C499   C     0.35362   0.79095   0.25059   0.00000  Uiso   1.00
C500   C     0.64522   0.87392   0.23725   0.00000  Uiso   1.00
C501   C     0.64585   0.79291   0.26193   0.00000  Uiso   1.00
C502   C     0.35318   0.87626   0.24841   0.00000  Uiso   1.00
C503   C     0.48837   0.87339   0.04751   0.00000  Uiso   1.00
C504   C     0.48850   0.79325   0.45235   0.00000  Uiso   1.00
C505   C     0.51311   0.87320   0.45239   0.00000  Uiso   1.00
C506   C     0.51303   0.79325   0.04777   0.00000  Uiso   1.00
C507   C     0.48840   0.87350   0.09343   0.00000  Uiso   1.00
C508   C     0.48857   0.79316   0.40643   0.00000  Uiso   1.00
C509   C     0.51260   0.87334   0.40646   0.00000  Uiso   1.00
C510   C     0.51247   0.79315   0.09368   0.00000  Uiso   1.00
C511   C     0.50027   0.83332   0.11675   0.00000  Uiso   1.00
C512   C     0.50040   0.83329   0.38325   0.00000  Uiso   1.00
C513   C     0.50081   0.83331   0.02430   0.00000  Uiso   1.00
C514   C     0.50086   0.83323   0.47571   0.00000  Uiso   1.00
C515   C     0.62368   0.83333   0.24974   0.00000  Uiso   1.00
C516   C     0.37566   0.83362   0.24965   0.00000  Uiso   1.00
Cu517  Cu    0.50000   0.88022   0.25000   0.00000  Uiso   1.00
Cu518  Cu    0.50000   0.78645   0.25000   0.00000  Uiso   1.00
H519   H     0.47810   0.90445   0.03021   0.00000  Uiso   1.00
H520   H     0.47823   0.76225   0.46954   0.00000  Uiso   1.00
H521   H     0.52351   0.90418   0.46960   0.00000  Uiso   1.00
H522   H     0.52346   0.76218   0.03066   0.00000  Uiso   1.00
H523   H     0.47857   0.90478   0.11065   0.00000  Uiso   1.00
H524   H     0.47879   0.76196   0.38910   0.00000  Uiso   1.00
H525   H     0.52225   0.90454   0.38916   0.00000  Uiso   1.00
H526   H     0.52211   0.76188   0.11110   0.00000  Uiso   1.00
N527   N     0.50000   0.95069   0.25000   0.00000  Uiso   1.00
N528   N     0.50000   0.71598   0.25000   0.00000  Uiso   1.00
O529   O     0.43988   0.87291   0.25000   0.00000  Uiso   1.00
O530   O     0.56012   0.79375   0.25001   0.00000  Uiso   1.00
O531   O     0.56012   0.87291   0.25001   0.00000  Uiso   1.00
O532   O     0.43988   0.79375   0.24999   0.00000  Uiso   1.00
O533   O     0.50000   0.87293   0.18573   0.00000  Uiso   1.00
O534   O     0.50000   0.79374   0.31427   0.00000  Uiso   1.00
O535   O     0.50000   0.87293   0.31427   0.00000  Uiso   1.00
O536   O     0.50000   0.79374   0.18573   0.00000  Uiso   1.00
H537   H     0.47625   0.70980   0.18486   0.00000  Uiso   1.00
H538   H     0.52475   0.95676   0.31471   0.00000  Uiso   1.00
H539   H     0.52413   0.70968   0.31498   0.00000  Uiso   1.00
H540   H     0.47570   0.95695   0.18509   0.00000  Uiso   1.00
S541   S     0.37296   0.73712   0.22960   0.00000  Uiso   1.00
O542   O     0.39804   0.71332   0.26473   0.00000  Uiso   1.00
O543   O     0.33870   0.70546   0.21591   0.00000  Uiso   1.00
O544   O     0.40215   0.74706   0.18501   0.00000  Uiso   1.00
H545   H     0.38468   0.76570   0.16480   0.00000  Uiso   1.00
S546   S     0.62391   0.91729   0.20148   0.00000  Uiso   1.00
O547   O     0.60108   0.95317   0.22807   0.00000  Uiso   1.00
O548   O     0.65708   0.94109   0.17586   0.00000  Uiso   1.00
O549   O     0.59168   0.89181   0.16545   0.00000  Uiso   1.00
H550   H     0.57720   0.91806   0.15077   0.00000  Uiso   1.00
S551   S     0.62573   0.74889   0.29721   0.00000  Uiso   1.00
O552   O     0.60354   0.71293   0.27020   0.00000  Uiso   1.00
O553   O     0.65976   0.72549   0.32237   0.00000  Uiso   1.00
O554   O     0.59330   0.77331   0.33357   0.00000  Uiso   1.00
H555   H     0.58531   0.74748   0.35352   0.00000  Uiso   1.00
S556   S     0.37274   0.93106   0.26655   0.00000  Uiso   1.00
O557   O     0.39616   0.95308   0.22944   0.00000  Uiso   1.00
O558   O     0.33844   0.96295   0.27994   0.00000  Uiso   1.00
O559   O     0.40350   0.92362   0.31068   0.00000  Uiso   1.00
H560   H     0.41791   0.95382   0.31416   0.00000  Uiso   1.00
C561   C     0.75389   0.83344   0.24986   0.00000  Uiso   1.00
C562   C     0.91254   0.83329   0.24997   0.00000  Uiso   1.00
C563   C     0.83335   0.83333   0.16498   0.00000  Uiso   1.00
C564   C     0.83343   0.83333   0.33502   0.00000  Uiso   1.00
C565   C     0.82018   0.69143   0.21391   0.00000  Uiso   1.00
C566   C     0.84685   0.97519   0.28595   0.00000  Uiso   1.00
C567   C     0.84659   0.69135   0.28606   0.00000  Uiso   1.00
C568   C     0.82006   0.97529   0.21396   0.00000  Uiso   1.00
C569   C     0.68695   0.79095   0.25059   0.00000  Uiso   1.00
C570   C     0.97856   0.87392   0.23725   0.00000  Uiso   1.00
C571   C     0.97919   0.79291   0.26193   0.00000  Uiso   1.00
C572   C     0.68651   0.87626   0.24841   0.00000  Uiso   1.00
C573   C     0.82170   0.87339   0.04751   0.00000  Uiso   1.00
C574   C     0.82183   0.79325   0.45235   0.00000  Uiso   1.00
C575   C     0.84645   0.87320   0.45239   0.00000  Uiso   1.00
C576   C     0.84637   0.79325   0.04777   0.00000  Uiso   1.00
C577   C     0.82173   0.87350   0.09343   0.00000  Uiso   1.00
C578   C     0.82190   0.79316   0.40643   0.00000  Uiso   1.00
C579   C     0.84593   0.87334   0.40646   0.00000  Uiso   1.00
C580   C     0.84581   0.79315   0.09368   0.00000  Uiso   1.00
C581   C     0.83360   0.83332   0.11675   0.00000  Uiso   1.00
C582   C     0.83374   0.83329   0.38325   0.00000  Uiso   1.00
C583   C     0.83414   0.83331   0.02430   0.00000  Uiso   1.00
C584   C     0.83419   0.83323   0.47571   0.00000  Uiso   1.00
C585   C     0.95702   0.83333   0.24974   0.00000  Uiso   1.00
C586   C     0.70899   0.83362   0.24965   0.00000  Uiso   1.00
Cu587  Cu    0.83333   0.88022   0.25000   0.00000  Uiso   1.00
Cu588  Cu    0.83333   0.78645   0.25000   0.00000  Uiso   1.00
H589   H     0.81144   0.90445   0.03021   0.00000  Uiso   1.00
H590   H     0.81156   0.76225   0.46954   0.00000  Uiso   1.00
H591   H     0.85684   0.90418   0.46960   0.00000  Uiso   1.00
H592   H     0.85679   0.76218   0.03066   0.00000  Uiso   1.00
H593   H     0.81190   0.90478   0.11065   0.00000  Uiso   1.00
H594   H     0.81212   0.76196   0.38910   0.00000  Uiso   1.00
H595   H     0.85559   0.90454   0.38916   0.00000  Uiso   1.00
H596   H     0.85544   0.76188   0.11110   0.00000  Uiso   1.00
N597   N     0.83333   0.95069   0.25000   0.00000  Uiso   1.00
N598   N     0.83333   0.71598   0.25000   0.00000  Uiso   1.00
O599   O     0.77321   0.87291   0.25000   0.00000  Uiso   1.00
O600   O     0.89345   0.79375   0.25001   0.00000  Uiso   1.00
O601   O     0.89345   0.87291   0.25001   0.00000  Uiso   1.00
O602   O     0.77321   0.79375   0.24999   0.00000  Uiso   1.00
O603   O     0.83333   0.87293   0.18573   0.00000  Uiso   1.00
O604   O     0.83334   0.79374   0.31427   0.00000  Uiso   1.00
O605   O     0.83334   0.87293   0.31427   0.00000  Uiso   1.00
O606   O     0.83333   0.79374   0.18573   0.00000  Uiso   1.00
H607   H     0.80958   0.70980   0.18486   0.00000  Uiso   1.00
H608   H     0.85808   0.95676   0.31471   0.00000  Uiso   1.00
H609   H     0.85747   0.70968   0.31498   0.00000  Uiso   1.00
H610   H     0.80904   0.95695   0.18509   0.00000  Uiso   1.00
S611   S     0.70630   0.73712   0.22960   0.00000  Uiso   1.00
O612   O     0.73138   0.71332   0.26473   0.00000  Uiso   1.00
O613   O     0.67203   0.70546   0.21591   0.00000  Uiso   1.00
O614   O     0.73548   0.74706   0.18501   0.00000  Uiso   1.00
H615   H     0.71802   0.76570   0.16480   0.00000  Uiso   1.00
S616   S     0.95724   0.91729   0.20148   0.00000  Uiso   1.00
O617   O     0.93441   0.95317   0.22807   0.00000  Uiso   1.00
O618   O     0.99042   0.94109   0.17586   0.00000  Uiso   1.00
O619   O     0.92502   0.89181   0.16545   0.00000  Uiso   1.00
H620   H     0.91054   0.91806   0.15077   0.00000  Uiso   1.00
S621   S     0.95906   0.74889   0.29721   0.00000  Uiso   1.00
O622   O     0.93687   0.71293   0.27020   0.00000  Uiso   1.00
O623   O     0.99309   0.72549   0.32237   0.00000  Uiso   1.00
O624   O     0.92663   0.77331   0.33357   0.00000  Uiso   1.00
H625   H     0.91864   0.74748   0.35352   0.00000  Uiso   1.00
S626   S     0.70607   0.93106   0.26655   0.00000  Uiso   1.00
O627   O     0.72949   0.95308   0.22944   0.00000  Uiso   1.00
O628   O     0.67177   0.96295   0.27994   0.00000  Uiso   1.00
O629   O     0.73683   0.92362   0.31068   0.00000  Uiso   1.00
H630   H     0.75124   0.95382   0.31416   0.00000  Uiso   1.00
C631   C     0.08723   0.16677   0.74986   0.00000  Uiso   1.00
C632   C     0.24587   0.16662   0.74997   0.00000  Uiso   1.00
C633   C     0.16668   0.16666   0.66498   0.00000  Uiso   1.00
C634   C     0.16677   0.16667   0.83502   0.00000  Uiso   1.00
C635   C     0.15351   0.02477   0.71391   0.00000  Uiso   1.00
C636   C     0.18019   0.30853   0.78595   0.00000  Uiso   1.00
C637   C     0.17992   0.02468   0.78606   0.00000  Uiso   1.00
C638   C     0.15339   0.30863   0.71396   0.00000  Uiso   1.00
C639   C     0.02028   0.12429   0.75059   0.00000  Uiso   1.00
C640   C     0.31189   0.20725   0.73725   0.00000  Uiso   1.00
C641   C     0.31252   0.12625   0.76193   0.00000  Uiso   1.00
C642   C     0.01984   0.20959   0.74841   0.00000  Uiso   1.00
C643   C     0.15504   0.20672   0.54751   0.00000  Uiso   1.00
C644   C     0.15516   0.12658   0.95235   0.00000  Uiso   1.00
C645   C     0.17978   0.20653   0.95239   0.00000  Uiso   1.00
C646   C     0.17970   0.12659   0.54777   0.00000  Uiso   1.00
C647   C     0.15507   0.20684   0.59343   0.00000  Uiso   1.00
C648   C     0.15524   0.12649   0.90643   0.00000  Uiso   1.00
C649   C     0.17927   0.20667   0.90646   0.00000  Uiso   1.00
C650   C     0.17914   0.12648   0.59368   0.00000  Uiso   1.00
C651   C     0.16694   0.16665   0.61675   0.00000  Uiso   1.00
C652   C     0.16707   0.16663   0.88325   0.00000  Uiso   1.00
C653   C     0.16747   0.16664   0.52430   0.00000  Uiso   1.00
C654   C     0.16753   0.16656   0.97571   0.00000  Uiso   1.00
C655   C     0.29035   0.16667   0.74974   0.00000  Uiso   1.00
C656   C     0.04232   0.16696   0.74965   0.00000  Uiso   1.00
Cu657  Cu    0.16667   0.21355   0.75000   0.00000  Uiso   1.00
Cu658  Cu    0.16667   0.11978   0.75000   0.00000  Uiso   1.00
H659   H     0.14477   0.23778   0.53021   0.00000  Uiso   1.00
H660   H     0.14490   0.09559   0.96954   0.00000  Uiso   1.00
H661   H     0.19017   0.23751   0.96960   0.00000  Uiso   1.00
H662   H     0.19012   0.09551   0.53066   0.00000  Uiso   1.00
H663   H     0.14524   0.23811   0.61065   0.00000  Uiso   1.00
H664   H     0.14546   0.09530   0.88910   0.00000  Uiso   1.00
H665   H     0.18892   0.23787   0.88916   0.00000  Uiso   1.00
H666   H     0.18878   0.09521   0.61110   0.00000  Uiso   1.00
N667   N     0.16667   0.28402   0.75000   0.00000  Uiso   1.00
N668   N     0.16667   0.04931   0.75000   0.00000  Uiso   1.00
O669   O     0.10655   0.20625   0.75000   0.00000  Uiso   1.00
O670   O     0.22679   0.12709   0.75001   0.00000  Uiso   1.00
O671   O     0.22679   0.20625   0.75001   0.00000  Uiso   1.00
O672   O     0.10655   0.12709   0.74999   0.00000  Uiso   1.00
O673   O     0.16666   0.20626   0.68573   0.00000  Uiso   1.00
O674   O     0.16667   0.12707   0.81427   0.00000  Uiso   1.00
O675   O     0.16667   0.20626   0.81427   0.00000  Uiso   1.00
O676   O     0.16666   0.12707   0.68573   0.00000  Uiso   1.00
H677   H     0.14291   0.04313   0.68486   0.00000  Uiso   1.00
H678   H     0.19142   0.29010   0.81471   0.00000  Uiso   1.00
H679   H     0.19080   0.04301   0.81498   0.00000  Uiso   1.00
H680   H     0.14237   0.29028   0.68509   0.00000  Uiso   1.00
S681   S     0.03963   0.07045   0.72960   0.00000  Uiso   1.00
O682   O     0.06471   0.04665   0.76473   0.00000  Uiso   1.00
O683   O     0.00536   0.03879   0.71591   0.00000  Uiso   1.00
O684   O     0.06882   0.08039   0.68501   0.00000  Uiso   1.00
H685   H     0.05135   0.09904   0.66480   0.00000  Uiso   1.00
S686   S     0.29058   0.25062   0.70148   0.00000  Uiso   1.00
O687   O     0.26775   0.28650   0.72807   0.00000  Uiso   1.00
O688   O     0.32375   0.27443   0.67586   0.00000  Uiso   1.00
O689   O     0.25835   0.22514   0.66545   0.00000  Uiso   1.00
H690   H     0.24387   0.25139   0.65077   0.00000  Uiso   1.00
S691   S     0.29240   0.08223   0.79721   0.00000  Uiso   1.00
O692   O     0.27020   0.04626   0.77020   0.00000  Uiso   1.00
O693   O     0.32643   0.05882   0.82237   0.00000  Uiso   1.00
O694   O     0.25997   0.10664   0.83357   0.00000  Uiso   1.00
H695   H     0.25198   0.08081   0.85352   0.00000  Uiso   1.00
S696   S     0.03941   0.26439   0.76655   0.00000  Uiso   1.00
O697   O     0.06282   0.28641   0.72944   0.00000  Uiso   1.00
O698   O     0.00510   0.29628   0.77994   0.00000  Uiso   1.00
O699   O     0.07017   0.25696   0.81068   0.00000  Uiso   1.00
H700   H     0.08457   0.28715   0.81416   0.00000  Uiso   1.00
C701   C     0.42056   0.16677   0.74986   0.00000  Uiso   1.00
C702   C     0.57921   0.16662   0.74997   0.00000  Uiso   1.00
C703   C     0.50002   0.16666   0.66498   0.00000  Uiso   1.00
C704   C     0.50010   0.16667   0.83502   0.00000  Uiso   1.00
C705   C     0.48684   0.02477   0.71391   0.00000  Uiso   1.00
C706   C     0.51352   0.30853   0.78595   0.00000  Uiso   1.00
C707   C     0.51326   0.02468   0.78606   0.00000  Uiso   1.00
C708   C     0.48672   0.30863   0.71396   0.00000  Uiso   1.00
C709   C     0.35362   0.12429   0.75059   0.00000  Uiso   1.00
C710   C     0.64522   0.20725   0.73725   0.00000  Uiso   1.00
C711   C     0.64585   0.12625   0.76193   0.00000  Uiso   1.00
C712   C     0.35318   0.20959   0.74841   0.00000  Uiso   1.00
C713   C     0.48837   0.20672   0.54751   0.00000  Uiso   1.00
C714   C     0.48850   0.12658   0.95235   0.00000  Uiso   1.00
C715   C     0.51311   0.20653   0.95239   0.00000  Uiso   1.00
C716   C     0.51303   0.12659   0.54777   0.00000  Uiso   1.00
C717   C     0.48840   0.20684   0.59343   0.00000  Uiso   1.00
C718   C     0.48857   0.12649   0.90643   0.00000  Uiso   1.00
C719   C     0.51260   0.20667   0.90646   0.00000  Uiso   1.00
C720   C     0.51247   0.12648   0.59368   0.00000  Uiso   1.00
C721   C     0.50027   0.16665   0.61675   0.00000  Uiso   1.00
C722   C     0.50040   0.16663   0.88325   0.00000  Uiso   1.00
C723   C     0.50081   0.16664   0.52430   0.00000  Uiso   1.00
C724   C     0.50086   0.16656   0.97571   0.00000  Uiso   1.00
C725   C     0.62368   0.16667   0.74974   0.00000  Uiso   1.00
C726   C     0.37566   0.16696   0.74965   0.00000  Uiso   1.00
Cu727  Cu    0.50000   0.21355   0.75000   0.00000  Uiso   1.00
Cu728  Cu    0.50000   0.11978   0.75000   0.00000  Uiso   1.00
H729   H     0.47810   0.23778   0.53021   0.00000  Uiso   1.00
H730   H     0.47823   0.09559   0.96954   0.00000  Uiso   1.00
H731   H     0.52351   0.23751   0.96960   0.00000  Uiso   1.00
H732   H     0.52346   0.09551   0.53066   0.00000  Uiso   1.00
H733   H     0.47857   0.23811   0.61065   0.00000  Uiso   1.00
H734   H     0.47879   0.09530   0.88910   0.00000  Uiso   1.00
H735   H     0.52225   0.23787   0.88916   0.00000  Uiso   1.00
H736   H     0.52211   0.09521   0.61110   0.00000  Uiso   1.00
N737   N     0.50000   0.28402   0.75000   0.00000  Uiso   1.00
N738   N     0.50000   0.04931   0.75000   0.00000  Uiso   1.00
O739   O     0.43988   0.20625   0.75000   0.00000  Uiso   1.00
O740   O     0.56012   0.12709   0.75001   0.00000  Uiso   1.00
O741   O     0.56012   0.20625   0.75001   0.00000  Uiso   1.00
O742   O     0.43988   0.12709   0.74999   0.00000  Uiso   1.00
O743   O     0.50000   0.20626   0.68573   0.00000  Uiso   1.00
O744   O     0.50000   0.12707   0.81427   0.00000  Uiso   1.00
O745   O     0.50000   0.20626   0.81427   0.00000  Uiso   1.00
O746   O     0.50000   0.12707   0.68573   0.00000  Uiso   1.00
H747   H     0.47625   0.04313   0.68486   0.00000  Uiso   1.00
H748   H     0.52475   0.29010   0.81471   0.00000  Uiso   1.00
H749   H     0.52413   0.04301   0.81498   0.00000  Uiso   1.00
H750   H     0.47570   0.29028   0.68509   0.00000  Uiso   1.00
S751   S     0.37296   0.07045   0.72960   0.00000  Uiso   1.00
O752   O     0.39804   0.04665   0.76473   0.00000  Uiso   1.00
O753   O     0.33870   0.03879   0.71591   0.00000  Uiso   1.00
O754   O     0.40215   0.08039   0.68501   0.00000  Uiso   1.00
H755   H     0.38468   0.09904   0.66480   0.00000  Uiso   1.00
S756   S     0.62391   0.25062   0.70148   0.00000  Uiso   1.00
O757   O     0.60108   0.28650   0.72807   0.00000  Uiso   1.00
O758   O     0.65708   0.27443   0.67586   0.00000  Uiso   1.00
O759   O     0.59168   0.22514   0.66545   0.00000  Uiso   1.00
H760   H     0.57720   0.25139   0.65077   0.00000  Uiso   1.00
S761   S     0.62573   0.08223   0.79721   0.00000  Uiso   1.00
O762   O     0.60354   0.04626   0.77020   0.00000  Uiso   1.00
O763   O     0.65976   0.05882   0.82237   0.00000  Uiso   1.00
O764   O     0.59330   0.10664   0.83357   0.00000  Uiso   1.00
H765   H     0.58531   0.08081   0.85352   0.00000  Uiso   1.00
S766   S     0.37274   0.26439   0.76655   0.00000  Uiso   1.00
O767   O     0.39616   0.28641   0.72944   0.00000  Uiso   1.00
O768   O     0.33844   0.29628   0.77994   0.00000  Uiso   1.00
O769   O     0.40350   0.25696   0.81068   0.00000  Uiso   1.00
H770   H     0.41791   0.28715   0.81416   0.00000  Uiso   1.00
C771   C     0.75389   0.16677   0.74986   0.00000  Uiso   1.00
C772   C     0.91254   0.16662   0.74997   0.00000  Uiso   1.00
C773   C     0.83335   0.16666   0.66498   0.00000  Uiso   1.00
C774   C     0.83343   0.16667   0.83502   0.00000  Uiso   1.00
C775   C     0.82018   0.02477   0.71391   0.00000  Uiso   1.00
C776   C     0.84685   0.30853   0.78595   0.00000  Uiso   1.00
C777   C     0.84659   0.02468   0.78606   0.00000  Uiso   1.00
C778   C     0.82006   0.30863   0.71396   0.00000  Uiso   1.00
C779   C     0.68695   0.12429   0.75059   0.00000  Uiso   1.00
C780   C     0.97856   0.20725   0.73725   0.00000  Uiso   1.00
C781   C     0.97919   0.12625   0.76193   0.00000  Uiso   1.00
C782   C     0.68651   0.20959   0.74841   0.00000  Uiso   1.00
C783   C     0.82170   0.20672   0.54751   0.00000  Uiso   1.00
C784   C     0.82183   0.12658   0.95235   0.00000  Uiso   1.00
C785   C     0.84645   0.20653   0.95239   0.00000  Uiso   1.00
C786   C     0.84637   0.12659   0.54777   0.00000  Uiso   1.00
C787   C     0.82173   0.20684   0.59343   0.00000  Uiso   1.00
C788   C     0.82190   0.12649   0.90643   0.00000  Uiso   1.00
C789   C     0.84593   0.20667   0.90646   0.00000  Uiso   1.00
C790   C     0.84581   0.12648   0.59368   0.00000  Uiso   1.00
C791   C     0.83360   0.16665   0.61675   0.00000  Uiso   1.00
C792   C     0.83374   0.16663   0.88325   0.00000  Uiso   1.00
C793   C     0.83414   0.16664   0.52430   0.00000  Uiso   1.00
C794   C     0.83419   0.16656   0.97571   0.00000  Uiso   1.00
C795   C     0.95702   0.16667   0.74974   0.00000  Uiso   1.00
C796   C     0.70899   0.16696   0.74965   0.00000  Uiso   1.00
Cu797  Cu    0.83333   0.21355   0.75000   0.00000  Uiso   1.00
Cu798  Cu    0.83333   0.11978   0.75000   0.00000  Uiso   1.00
H799   H     0.81144   0.23778   0.53021   0.00000  Uiso   1.00
H800   H     0.81156   0.09559   0.96954   0.00000  Uiso   1.00
H801   H     0.85684   0.23751   0.96960   0.00000  Uiso   1.00
H802   H     0.85679   0.09551   0.53066   0.00000  Uiso   1.00
H803   H     0.81190   0.23811   0.61065   0.00000  Uiso   1.00
H804   H     0.81212   0.09530   0.88910   0.00000  Uiso   1.00
H805   H     0.85559   0.23787   0.88916   0.00000  Uiso   1.00
H806   H     0.85544   0.09521   0.61110   0.00000  Uiso   1.00
N807   N     0.83333   0.28402   0.75000   0.00000  Uiso   1.00
N808   N     0.83333   0.04931   0.75000   0.00000  Uiso   1.00
O809   O     0.77321   0.20625   0.75000   0.00000  Uiso   1.00
O810   O     0.89345   0.12709   0.75001   0.00000  Uiso   1.00
O811   O     0.89345   0.20625   0.75001   0.00000  Uiso   1.00
O812   O     0.77321   0.12709   0.74999   0.00000  Uiso   1.00
O813   O     0.83333   0.20626   0.68573   0.00000  Uiso   1.00
O814   O     0.83334   0.12707   0.81427   0.00000  Uiso   1.00
O815   O     0.83334   0.20626   0.81427   0.00000  Uiso   1.00
O816   O     0.83333   0.12707   0.68573   0.00000  Uiso   1.00
H817   H     0.80958   0.04313   0.68486   0.00000  Uiso   1.00
H818   H     0.85808   0.29010   0.81471   0.00000  Uiso   1.00
H819   H     0.85747   0.04301   0.81498   0.00000  Uiso   1.00
H820   H     0.80904   0.29028   0.68509   0.00000  Uiso   1.00
S821   S     0.70630   0.07045   0.72960   0.00000  Uiso   1.00
O822   O     0.73138   0.04665   0.76473   0.00000  Uiso   1.00
O823   O     0.67203   0.03879   0.71591   0.00000  Uiso   1.00
O824   O     0.73548   0.08039   0.68501   0.00000  Uiso   1.00
H825   H     0.71802   0.09904   0.66480   0.00000  Uiso   1.00
S826   S     0.95724   0.25062   0.70148   0.00000  Uiso   1.00
O827   O     0.93441   0.28650   0.72807   0.00000  Uiso   1.00
O828   O     0.99042   0.27443   0.67586   0.00000  Uiso   1.00
O829   O     0.92502   0.22514   0.66545   0.00000  Uiso   1.00
H830   H     0.91054   0.25139   0.65077   0.00000  Uiso   1.00
S831   S     0.95906   0.08223   0.79721   0.00000  Uiso   1.00
O832   O     0.93687   0.04626   0.77020   0.00000  Uiso   1.00
O833   O     0.99309   0.05882   0.82237   0.00000  Uiso   1.00
O834   O     0.92663   0.10664   0.83357   0.00000  Uiso   1.00
H835   H     0.91864   0.08081   0.85352   0.00000  Uiso   1.00
S836   S     0.70607   0.26439   0.76655   0.00000  Uiso   1.00
O837   O     0.72949   0.28641   0.72944   0.00000  Uiso   1.00
O838   O     0.67177   0.29628   0.77994   0.00000  Uiso   1.00
O839   O     0.73683   0.25696   0.81068   0.00000  Uiso   1.00
H840   H     0.75124   0.28715   0.81416   0.00000  Uiso   1.00
C841   C     0.08723   0.50010   0.74986   0.00000  Uiso   1.00
C842   C     0.24587   0.49995   0.74997   0.00000  Uiso   1.00
C843   C     0.16668   0.49999   0.66498   0.00000  Uiso   1.00
C844   C     0.16677   0.50000   0.83502   0.00000  Uiso   1.00
C845   C     0.15351   0.35810   0.71391   0.00000  Uiso   1.00
C846   C     0.18019   0.64186   0.78595   0.00000  Uiso   1.00
C847   C     0.17992   0.35802   0.78606   0.00000  Uiso   1.00
C848   C     0.15339   0.64196   0.71396   0.00000  Uiso   1.00
C849   C     0.02028   0.45762   0.75059   0.00000  Uiso   1.00
C850   C     0.31189   0.54058   0.73725   0.00000  Uiso   1.00
C851   C     0.31252   0.45958   0.76193   0.00000  Uiso   1.00
C852   C     0.01984   0.54292   0.74841   0.00000  Uiso   1.00
C853   C     0.15504   0.54006   0.54751   0.00000  Uiso   1.00
C854   C     0.15516   0.45991   0.95235   0.00000  Uiso   1.00
C855   C     0.17978   0.53986   0.95239   0.00000  Uiso   1.00
C856   C     0.17970   0.45992   0.54777   0.00000  Uiso   1.00
C857   C     0.15507   0.54017   0.59343   0.00000  Uiso   1.00
C858   C     0.15524   0.45983   0.90643   0.00000  Uiso   1.00
C859   C     0.17927   0.54000   0.90646   0.00000  Uiso   1.00
C860   C     0.17914   0.45981   0.59368   0.00000  Uiso   1.00
C861   C     0.16694   0.49998   0.61675   0.00000  Uiso   1.00
C862   C     0.16707   0.49996   0.88325   0.00000  Uiso   1.00
C863   C     0.16747   0.49997   0.52430   0.00000  Uiso   1.00
C864   C     0.16753   0.49990   0.97571   0.00000  Uiso   1.00
C865   C     0.29035   0.50000   0.74974   0.00000  Uiso   1.00
C866   C     0.04232   0.50029   0.74965   0.00000  Uiso   1.00
Cu867  Cu    0.16667   0.54689   0.75000   0.00000  Uiso   1.00
Cu868  Cu    0.16667   0.45311   0.75000   0.00000  Uiso   1.00
H869   H     0.14477   0.57111   0.53021   0.00000  Uiso   1.00
H870   H     0.14490   0.42892   0.96954   0.00000  Uiso   1.00
H871   H     0.19017   0.57085   0.96960   0.00000  Uiso   1.00
H872   H     0.19012   0.42885   0.53066   0.00000  Uiso   1.00
H873   H     0.14524   0.57144   0.61065   0.00000  Uiso   1.00
H874   H     0.14546   0.42863   0.88910   0.00000  Uiso   1.00
H875   H     0.18892   0.57120   0.88916   0.00000  Uiso   1.00
H876   H     0.18878   0.42855   0.61110   0.00000  Uiso   1.00
N877   N     0.16667   0.61736   0.75000   0.00000  Uiso   1.00
N878   N     0.16667   0.38264   0.75000   0.00000  Uiso   1.00
O879   O     0.10655   0.53958   0.75000   0.00000  Uiso   1.00
O880   O     0.22679   0.46042   0.75001   0.00000  Uiso   1.00
O881   O     0.22679   0.53958   0.75001   0.00000  Uiso   1.00
O882   O     0.10655   0.46042   0.74999   0.00000  Uiso   1.00
O883   O     0.16666   0.53959   0.68573   0.00000  Uiso   1.00
O884   O     0.16667   0.46041   0.81427   0.00000  Uiso   1.00
O885   O     0.16667   0.53959   0.81427   0.00000  Uiso   1.00
O886   O     0.16666   0.46041   0.68573   0.00000  Uiso   1.00
H887   H     0.14291   0.37646   0.68486   0.00000  Uiso   1.00
H888   H     0.19142   0.62343   0.81471   0.00000  Uiso   1.00
H889   H     0.19080   0.37635   0.81498   0.00000  Uiso   1.00
H890   H     0.14237   0.62361   0.68509   0.00000  Uiso   1.00
S891   S     0.03963   0.40378   0.72960   0.00000  Uiso   1.00
O892   O     0.06471   0.37999   0.76473   0.00000  Uiso   1.00
O893   O     0.00536   0.37212   0.71591   0.00000  Uiso   1.00
O894   O     0.06882   0.41373   0.68501   0.00000  Uiso   1.00
H895   H     0.05135   0.43237   0.66480   0.00000  Uiso   1.00
S896   S     0.29058   0.58395   0.70148   0.00000  Uiso   1.00
O897   O     0.26775   0.61984   0.72807   0.00000  Uiso   1.00
O898   O     0.32375   0.60776   0.67586   0.00000  Uiso   1.00
O899   O     0.25835   0.55848   0.66545   0.00000  Uiso   1.00
H900   H     0.24387   0.58472   0.65077   0.00000  Uiso   1.00
S901   S     0.29240   0.41556   0.79721   0.00000  Uiso   1.00
O902   O     0.27020   0.37959   0.77020   0.00000  Uiso   1.00
O903   O     0.32643   0.39216   0.82237   0.00000  Uiso   1.00
O904   O     0.25997   0.43998   0.83357   0.00000  Uiso   1.00
H905   H     0.25198   0.41415   0.85352   0.00000  Uiso   1.00
S906   S     0.03941   0.59773   0.76655   0.00000  Uiso   1.00
O907   O     0.06282   0.61974   0.72944   0.00000  Uiso   1.00
O908   O     0.00510   0.62962   0.77994   0.00000  Uiso   1.00
O909   O     0.07017   0.59029   0.81068   0.00000  Uiso   1.00
H910   H     0.08457   0.62048   0.81416   0.00000  Uiso   1.00
C911   C     0.42056   0.50010   0.74986   0.00000  Uiso   1.00
C912   C     0.57921   0.49995   0.74997   0.00000  Uiso   1.00
C913   C     0.50002   0.49999   0.66498   0.00000  Uiso   1.00
C914   C     0.50010   0.50000   0.83502   0.00000  Uiso   1.00
C915   C     0.48684   0.35810   0.71391   0.00000  Uiso   1.00
C916   C     0.51352   0.64186   0.78595   0.00000  Uiso   1.00
C917   C     0.51326   0.35802   0.78606   0.00000  Uiso   1.00
C918   C     0.48672   0.64196   0.71396   0.00000  Uiso   1.00
C919   C     0.35362   0.45762   0.75059   0.00000  Uiso   1.00
C920   C     0.64522   0.54058   0.73725   0.00000  Uiso   1.00
C921   C     0.64585   0.45958   0.76193   0.00000  Uiso   1.00
C922   C     0.35318   0.54292   0.74841   0.00000  Uiso   1.00
C923   C     0.48837   0.54006   0.54751   0.00000  Uiso   1.00
C924   C     0.48850   0.45991   0.95235   0.00000  Uiso   1.00
C925   C     0.51311   0.53986   0.95239   0.00000  Uiso   1.00
C926   C     0.51303   0.45992   0.54777   0.00000  Uiso   1.00
C927   C     0.48840   0.54017   0.59343   0.00000  Uiso   1.00
C928   C     0.48857   0.45983   0.90643   0.00000  Uiso   1.00
C929   C     0.51260   0.54000   0.90646   0.00000  Uiso   1.00
C930   C     0.51247   0.45981   0.59368   0.00000  Uiso   1.00
C931   C     0.50027   0.49998   0.61675   0.00000  Uiso   1.00
C932   C     0.50040   0.49996   0.88325   0.00000  Uiso   1.00
C933   C     0.50081   0.49997   0.52430   0.00000  Uiso   1.00
C934   C     0.50086   0.49990   0.97571   0.00000  Uiso   1.00
C935   C     0.62368   0.50000   0.74974   0.00000  Uiso   1.00
C936   C     0.37566   0.50029   0.74965   0.00000  Uiso   1.00
Cu937  Cu    0.50000   0.54689   0.75000   0.00000  Uiso   1.00
Cu938  Cu    0.50000   0.45311   0.75000   0.00000  Uiso   1.00
H939   H     0.47810   0.57111   0.53021   0.00000  Uiso   1.00
H940   H     0.47823   0.42892   0.96954   0.00000  Uiso   1.00
H941   H     0.52351   0.57085   0.96960   0.00000  Uiso   1.00
H942   H     0.52346   0.42885   0.53066   0.00000  Uiso   1.00
H943   H     0.47857   0.57144   0.61065   0.00000  Uiso   1.00
H944   H     0.47879   0.42863   0.88910   0.00000  Uiso   1.00
H945   H     0.52225   0.57120   0.88916   0.00000  Uiso   1.00
H946   H     0.52211   0.42855   0.61110   0.00000  Uiso   1.00
N947   N     0.50000   0.61736   0.75000   0.00000  Uiso   1.00
N948   N     0.50000   0.38264   0.75000   0.00000  Uiso   1.00
O949   O     0.43988   0.53958   0.75000   0.00000  Uiso   1.00
O950   O     0.56012   0.46042   0.75001   0.00000  Uiso   1.00
O951   O     0.56012   0.53958   0.75001   0.00000  Uiso   1.00
O952   O     0.43988   0.46042   0.74999   0.00000  Uiso   1.00
O953   O     0.50000   0.53959   0.68573   0.00000  Uiso   1.00
O954   O     0.50000   0.46041   0.81427   0.00000  Uiso   1.00
O955   O     0.50000   0.53959   0.81427   0.00000  Uiso   1.00
O956   O     0.50000   0.46041   0.68573   0.00000  Uiso   1.00
H957   H     0.47625   0.37646   0.68486   0.00000  Uiso   1.00
H958   H     0.52475   0.62343   0.81471   0.00000  Uiso   1.00
H959   H     0.52413   0.37635   0.81498   0.00000  Uiso   1.00
H960   H     0.47570   0.62361   0.68509   0.00000  Uiso   1.00
S961   S     0.37296   0.40378   0.72960   0.00000  Uiso   1.00
O962   O     0.39804   0.37999   0.76473   0.00000  Uiso   1.00
O963   O     0.33870   0.37212   0.71591   0.00000  Uiso   1.00
O964   O     0.40215   0.41373   0.68501   0.00000  Uiso   1.00
H965   H     0.38468   0.43237   0.66480   0.00000  Uiso   1.00
S966   S     0.62391   0.58395   0.70148   0.00000  Uiso   1.00
O967   O     0.60108   0.61984   0.72807   0.00000  Uiso   1.00
O968   O     0.65708   0.60776   0.67586   0.00000  Uiso   1.00
O969   O     0.59168   0.55848   0.66545   0.00000  Uiso   1.00
H970   H     0.57720   0.58472   0.65077   0.00000  Uiso   1.00
S971   S     0.62573   0.41556   0.79721   0.00000  Uiso   1.00
O972   O     0.60354   0.37959   0.77020   0.00000  Uiso   1.00
O973   O     0.65976   0.39216   0.82237   0.00000  Uiso   1.00
O974   O     0.59330   0.43998   0.83357   0.00000  Uiso   1.00
H975   H     0.58531   0.41415   0.85352   0.00000  Uiso   1.00
S976   S     0.37274   0.59773   0.76655   0.00000  Uiso   1.00
O977   O     0.39616   0.61974   0.72944   0.00000  Uiso   1.00
O978   O     0.33844   0.62962   0.77994   0.00000  Uiso   1.00
O979   O     0.40350   0.59029   0.81068   0.00000  Uiso   1.00
H980   H     0.41791   0.62048   0.81416   0.00000  Uiso   1.00
C981   C     0.75389   0.50010   0.74986   0.00000  Uiso   1.00
C982   C     0.91254   0.49995   0.74997   0.00000  Uiso   1.00
C983   C     0.83335   0.49999   0.66498   0.00000  Uiso   1.00
C984   C     0.83343   0.50000   0.83502   0.00000  Uiso   1.00
C985   C     0.82018   0.35810   0.71391   0.00000  Uiso   1.00
C986   C     0.84685   0.64186   0.78595   0.00000  Uiso   1.00
C987   C     0.84659   0.35802   0.78606   0.00000  Uiso   1.00
C988   C     0.82006   0.64196   0.71396   0.00000  Uiso   1.00
C989   C     0.68695   0.45762   0.75059   0.00000  Uiso   1.00
C990   C     0.97856   0.54058   0.73725   0.00000  Uiso   1.00
C991   C     0.97919   0.45958   0.76193   0.00000  Uiso   1.00
C992   C     0.68651   0.54292   0.74841   0.00000  Uiso   1.00
C993   C     0.82170   0.54006   0.54751   0.00000  Uiso   1.00
C994   C     0.82183   0.45991   0.95235   0.00000  Uiso   1.00
C995   C     0.84645   0.53986   0.95239   0.00000  Uiso   1.00
C996   C     0.84637   0.45992   0.54777   0.00000  Uiso   1.00
C997   C     0.82173   0.54017   0.59343   0.00000  Uiso   1.00
C998   C     0.82190   0.45983   0.90643   0.00000  Uiso   1.00
C999   C     0.84593   0.54000   0.90646   0.00000  Uiso   1.00
C1000  C     0.84581   0.45981   0.59368   0.00000  Uiso   1.00
C1001  C     0.83360   0.49998   0.61675   0.00000  Uiso   1.00
C1002  C     0.83374   0.49996   0.88325   0.00000  Uiso   1.00
C1003  C     0.83414   0.49997   0.52430   0.00000  Uiso   1.00
C1004  C     0.83419   0.49990   0.97571   0.00000  Uiso   1.00
C1005  C     0.95702   0.50000   0.74974   0.00000  Uiso   1.00
C1006  C     0.70899   0.50029   0.74965   0.00000  Uiso   1.00
Cu1007 Cu    0.83333   0.54689   0.75000   0.00000  Uiso   1.00
Cu1008 Cu    0.83333   0.45311   0.75000   0.00000  Uiso   1.00
H1009  H     0.81144   0.57111   0.53021   0.00000  Uiso   1.00
H1010  H     0.81156   0.42892   0.96954   0.00000  Uiso   1.00
H1011  H     0.85684   0.57085   0.96960   0.00000  Uiso   1.00
H1012  H     0.85679   0.42885   0.53066   0.00000  Uiso   1.00
H1013  H     0.81190   0.57144   0.61065   0.00000  Uiso   1.00
H1014  H     0.81212   0.42863   0.88910   0.00000  Uiso   1.00
H1015  H     0.85559   0.57120   0.88916   0.00000  Uiso   1.00
H1016  H     0.85544   0.42855   0.61110   0.00000  Uiso   1.00
N1017  N     0.83333   0.61736   0.75000   0.00000  Uiso   1.00
N1018  N     0.83333   0.38264   0.75000   0.00000  Uiso   1.00
O1019  O     0.77321   0.53958   0.75000   0.00000  Uiso   1.00
O1020  O     0.89345   0.46042   0.75001   0.00000  Uiso   1.00
O1021  O     0.89345   0.53958   0.75001   0.00000  Uiso   1.00
O1022  O     0.77321   0.46042   0.74999   0.00000  Uiso   1.00
O1023  O     0.83333   0.53959   0.68573   0.00000  Uiso   1.00
O1024  O     0.83334   0.46041   0.81427   0.00000  Uiso   1.00
O1025  O     0.83334   0.53959   0.81427   0.00000  Uiso   1.00
O1026  O     0.83333   0.46041   0.68573   0.00000  Uiso   1.00
H1027  H     0.80958   0.37646   0.68486   0.00000  Uiso   1.00
H1028  H     0.85808   0.62343   0.81471   0.00000  Uiso   1.00
H1029  H     0.85747   0.37635   0.81498   0.00000  Uiso   1.00
H1030  H     0.80904   0.62361   0.68509   0.00000  Uiso   1.00
S1031  S     0.70630   0.40378   0.72960   0.00000  Uiso   1.00
O1032  O     0.73138   0.37999   0.76473   0.00000  Uiso   1.00
O1033  O     0.67203   0.37212   0.71591   0.00000  Uiso   1.00
O1034  O     0.73548   0.41373   0.68501   0.00000  Uiso   1.00
H1035  H     0.71802   0.43237   0.66480   0.00000  Uiso   1.00
S1036  S     0.95724   0.58395   0.70148   0.00000  Uiso   1.00
O1037  O     0.93441   0.61984   0.72807   0.00000  Uiso   1.00
O1038  O     0.99042   0.60776   0.67586   0.00000  Uiso   1.00
O1039  O     0.92502   0.55848   0.66545   0.00000  Uiso   1.00
H1040  H     0.91054   0.58472   0.65077   0.00000  Uiso   1.00
S1041  S     0.95906   0.41556   0.79721   0.00000  Uiso   1.00
O1042  O     0.93687   0.37959   0.77020   0.00000  Uiso   1.00
O1043  O     0.99309   0.39216   0.82237   0.00000  Uiso   1.00
O1044  O     0.92663   0.43998   0.83357   0.00000  Uiso   1.00
H1045  H     0.91864   0.41415   0.85352   0.00000  Uiso   1.00
S1046  S     0.70607   0.59773   0.76655   0.00000  Uiso   1.00
O1047  O     0.72949   0.61974   0.72944   0.00000  Uiso   1.00
O1048  O     0.67177   0.62962   0.77994   0.00000  Uiso   1.00
O1049  O     0.73683   0.59029   0.81068   0.00000  Uiso   1.00
H1050  H     0.75124   0.62048   0.81416   0.00000  Uiso   1.00
C1051  C     0.08723   0.83344   0.74986   0.00000  Uiso   1.00
C1052  C     0.24587   0.83329   0.74997   0.00000  Uiso   1.00
C1053  C     0.16668   0.83333   0.66498   0.00000  Uiso   1.00
C1054  C     0.16677   0.83333   0.83502   0.00000  Uiso   1.00
C1055  C     0.15351   0.69143   0.71391   0.00000  Uiso   1.00
C1056  C     0.18019   0.97519   0.78595   0.00000  Uiso   1.00
C1057  C     0.17992   0.69135   0.78606   0.00000  Uiso   1.00
C1058  C     0.15339   0.97529   0.71396   0.00000  Uiso   1.00
C1059  C     0.02028   0.79095   0.75059   0.00000  Uiso   1.00
C1060  C     0.31189   0.87392   0.73725   0.00000  Uiso   1.00
C1061  C     0.31252   0.79291   0.76193   0.00000  Uiso   1.00
C1062  C     0.01984   0.87626   0.74841   0.00000  Uiso   1.00
C1063  C     0.15504   0.87339   0.54751   0.00000  Uiso   1.00
C1064  C     0.15516   0.79325   0.95235   0.00000  Uiso   1.00
C1065  C     0.17978   0.87320   0.95239   0.00000  Uiso   1.00
C1066  C     0.17970   0.79325   0.54777   0.00000  Uiso   1.00
C1067  C     0.15507   0.87350   0.59343   0.00000  Uiso   1.00
C1068  C     0.15524   0.79316   0.90643   0.00000  Uiso   1.00
C1069  C     0.17927   0.87334   0.90646   0.00000  Uiso   1.00
C1070  C     0.17914   0.79315   0.59368   0.00000  Uiso   1.00
C1071  C     0.16694   0.83332   0.61675   0.00000  Uiso   1.00
C1072  C     0.16707   0.83329   0.88325   0.00000  Uiso   1.00
C1073  C     0.16747   0.83331   0.52430   0.00000  Uiso   1.00
C1074  C     0.16753   0.83323   0.97571   0.00000  Uiso   1.00
C1075  C     0.29035   0.83333   0.74974   0.00000  Uiso   1.00
C1076  C     0.04232   0.83362   0.74965   0.00000  Uiso   1.00
Cu1077 Cu    0.16667   0.88022   0.75000   0.00000  Uiso   1.00
Cu1078 Cu    0.16667   0.78645   0.75000   0.00000  Uiso   1.00
H1079  H     0.14477   0.90445   0.53021   0.00000  Uiso   1.00
H1080  H     0.14490   0.76225   0.96954   0.00000  Uiso   1.00
H1081  H     0.19017   0.90418   0.96960   0.00000  Uiso   1.00
H1082  H     0.19012   0.76218   0.53066   0.00000  Uiso   1.00
H1083  H     0.14524   0.90478   0.61065   0.00000  Uiso   1.00
H1084  H     0.14546   0.76196   0.88910   0.00000  Uiso   1.00
H1085  H     0.18892   0.90454   0.88916   0.00000  Uiso   1.00
H1086  H     0.18878   0.76188   0.61110   0.00000  Uiso   1.00
N1087  N     0.16667   0.95069   0.75000   0.00000  Uiso   1.00
N1088  N     0.16667   0.71598   0.75000   0.00000  Uiso   1.00
O1089  O     0.10655   0.87291   0.75000   0.00000  Uiso   1.00
O1090  O     0.22679   0.79375   0.75001   0.00000  Uiso   1.00
O1091  O     0.22679   0.87291   0.75001   0.00000  Uiso   1.00
O1092  O     0.10655   0.79375   0.74999   0.00000  Uiso   1.00
O1093  O     0.16666   0.87293   0.68573   0.00000  Uiso   1.00
O1094  O     0.16667   0.79374   0.81427   0.00000  Uiso   1.00
O1095  O     0.16667   0.87293   0.81427   0.00000  Uiso   1.00
O1096  O     0.16666   0.79374   0.68573   0.00000  Uiso   1.00
H1097  H     0.14291   0.70980   0.68486   0.00000  Uiso   1.00
H1098  H     0.19142   0.95676   0.81471   0.00000  Uiso   1.00
H1099  H     0.19080   0.70968   0.81498   0.00000  Uiso   1.00
H1100  H     0.14237   0.95695   0.68509   0.00000  Uiso   1.00
S1101  S     0.03963   0.73712   0.72960   0.00000  Uiso   1.00
O1102  O     0.06471   0.71332   0.76473   0.00000  Uiso   1.00
O1103  O     0.00536   0.70546   0.71591   0.00000  Uiso   1.00
O1104  O     0.06882   0.74706   0.68501   0.00000  Uiso   1.00
H1105  H     0.05135   0.76570   0.66480   0.00000  Uiso   1.00
S1106  S     0.29058   0.91729   0.70148   0.00000  Uiso   1.00
O1107  O     0.26775   0.95317   0.72807   0.00000  Uiso   1.00
O1108  O     0.32375   0.94109   0.67586   0.00000  Uiso   1.00
O1109  O     0.25835   0.89181   0.66545   0.00000  Uiso   1.00
H1110  H     0.24387   0.91806   0.65077   0.00000  Uiso   1.00
S1111  S     0.29240   0.74889   0.79721   0.00000  Uiso   1.00
O1112  O     0.27020   0.71293   0.77020   0.00000  Uiso   1.00
O1113  O     0.32643   0.72549   0.82237   0.00000  Uiso   1.00
O1114  O     0.25997   0.77331   0.83357   0.00000  Uiso   1.00
H1115  H     0.25198   0.74748   0.85352   0.00000  Uiso   1.00
S1116  S     0.03941   0.93106   0.76655   0.00000  Uiso   1.00
O1117  O     0.06282   0.95308   0.72944   0.00000  Uiso   1.00
O1118  O     0.00510   0.96295   0.77994   0.00000  Uiso   1.00
O1119  O     0.07017   0.92362   0.81068   0.00000  Uiso   1.00
H1120  H     0.08457   0.95382   0.81416   0.00000  Uiso   1.00
C1121  C     0.42056   0.83344   0.74986   0.00000  Uiso   1.00
C1122  C     0.57921   0.83329   0.74997   0.00000  Uiso   1.00
C1123  C     0.50002   0.83333   0.66498   0.00000  Uiso   1.00
C1124  C     0.50010   0.83333   0.83502   0.00000  Uiso   1.00
C1125  C     0.48684   0.69143   0.71391   0.00000  Uiso   1.00
C1126  C     0.51352   0.97519   0.78595   0.00000  Uiso   1.00
C1127  C     0.51326   0.69135   0.78606   0.00000  Uiso   1.00
C1128  C     0.48672   0.97529   0.71396   0.00000  Uiso   1.00
C1129  C     0.35362   0.79095   0.75059   0.00000  Uiso   1.00
C1130  C     0.64522   0.87392   0.73725   0.00000  Uiso   1.00
C1131  C     0.64585   0.79291   0.76193   0.00000  Uiso   1.00
C1132  C     0.35318   0.87626   0.74841   0.00000  Uiso   1.00
C1133  C     0.48837   0.87339   0.54751   0.00000  Uiso   1.00
C1134  C     0.48850   0.79325   0.95235   0.00000  Uiso   1.00
C1135  C     0.51311   0.87320   0.95239   0.00000  Uiso   1.00
C1136  C     0.51303   0.79325   0.54777   0.00000  Uiso   1.00
C1137  C     0.48840   0.87350   0.59343   0.00000  Uiso   1.00
C1138  C     0.48857   0.79316   0.90643   0.00000  Uiso   1.00
C1139  C     0.51260   0.87334   0.90646   0.00000  Uiso   1.00
C1140  C     0.51247   0.79315   0.59368   0.00000  Uiso   1.00
C1141  C     0.50027   0.83332   0.61675   0.00000  Uiso   1.00
C1142  C     0.50040   0.83329   0.88325   0.00000  Uiso   1.00
C1143  C     0.50081   0.83331   0.52430   0.00000  Uiso   1.00
C1144  C     0.50086   0.83323   0.97571   0.00000  Uiso   1.00
C1145  C     0.62368   0.83333   0.74974   0.00000  Uiso   1.00
C1146  C     0.37566   0.83362   0.74965   0.00000  Uiso   1.00
Cu1147 Cu    0.50000   0.88022   0.75000   0.00000  Uiso   1.00
Cu1148 Cu    0.50000   0.78645   0.75000   0.00000  Uiso   1.00
H1149  H     0.47810   0.90445   0.53021   0.00000  Uiso   1.00
H1150  H     0.47823   0.76225   0.96954   0.00000  Uiso   1.00
H1151  H     0.52351   0.90418   0.96960   0.00000  Uiso   1.00
H1152  H     0.52346   0.76218   0.53066   0.00000  Uiso   1.00
H1153  H     0.47857   0.90478   0.61065   0.00000  Uiso   1.00
H1154  H     0.47879   0.76196   0.88910   0.00000  Uiso   1.00
H1155  H     0.52225   0.90454   0.88916   0.00000  Uiso   1.00
H1156  H     0.52211   0.76188   0.61110   0.00000  Uiso   1.00
N1157  N     0.50000   0.95069   0.75000   0.00000  Uiso   1.00
N1158  N     0.50000   0.71598   0.75000   0.00000  Uiso   1.00
O1159  O     0.43988   0.87291   0.75000   0.00000  Uiso   1.00
O1160  O     0.56012   0.79375   0.75001   0.00000  Uiso   1.00
O1161  O     0.56012   0.87291   0.75001   0.00000  Uiso   1.00
O1162  O     0.43988   0.79375   0.74999   0.00000  Uiso   1.00
O1163  O     0.50000   0.87293   0.68573   0.00000  Uiso   1.00
O1164  O     0.50000   0.79374   0.81427   0.00000  Uiso   1.00
O1165  O     0.50000   0.87293   0.81427   0.00000  Uiso   1.00
O1166  O     0.50000   0.79374   0.68573   0.00000  Uiso   1.00
H1167  H     0.47625   0.70980   0.68486   0.00000  Uiso   1.00
H1168  H     0.52475   0.95676   0.81471   0.00000  Uiso   1.00
H1169  H     0.52413   0.70968   0.81498   0.00000  Uiso   1.00
H1170  H     0.47570   0.95695   0.68509   0.00000  Uiso   1.00
S1171  S     0.37296   0.73712   0.72960   0.00000  Uiso   1.00
O1172  O     0.39804   0.71332   0.76473   0.00000  Uiso   1.00
O1173  O     0.33870   0.70546   0.71591   0.00000  Uiso   1.00
O1174  O     0.40215   0.74706   0.68501   0.00000  Uiso   1.00
H1175  H     0.38468   0.76570   0.66480   0.00000  Uiso   1.00
S1176  S     0.62391   0.91729   0.70148   0.00000  Uiso   1.00
O1177  O     0.60108   0.95317   0.72807   0.00000  Uiso   1.00
O1178  O     0.65708   0.94109   0.67586   0.00000  Uiso   1.00
O1179  O     0.59168   0.89181   0.66545   0.00000  Uiso   1.00
H1180  H     0.57720   0.91806   0.65077   0.00000  Uiso   1.00
S1181  S     0.62573   0.74889   0.79721   0.00000  Uiso   1.00
O1182  O     0.60354   0.71293   0.77020   0.00000  Uiso   1.00
O1183  O     0.65976   0.72549   0.82237   0.00000  Uiso   1.00
O1184  O     0.59330   0.77331   0.83357   0.00000  Uiso   1.00
H1185  H     0.58531   0.74748   0.85352   0.00000  Uiso   1.00
S1186  S     0.37274   0.93106   0.76655   0.00000  Uiso   1.00
O1187  O     0.39616   0.95308   0.72944   0.00000  Uiso   1.00
O1188  O     0.33844   0.96295   0.77994   0.00000  Uiso   1.00
O1189  O     0.40350   0.92362   0.81068   0.00000  Uiso   1.00
H1190  H     0.41791   0.95382   0.81416   0.00000  Uiso   1.00
C1191  C     0.75389   0.83344   0.74986   0.00000  Uiso   1.00
C1192  C     0.91254   0.83329   0.74997   0.00000  Uiso   1.00
C1193  C     0.83335   0.83333   0.66498   0.00000  Uiso   1.00
C1194  C     0.83343   0.83333   0.83502   0.00000  Uiso   1.00
C1195  C     0.82018   0.69143   0.71391   0.00000  Uiso   1.00
C1196  C     0.84685   0.97519   0.78595   0.00000  Uiso   1.00
C1197  C     0.84659   0.69135   0.78606   0.00000  Uiso   1.00
C1198  C     0.82006   0.97529   0.71396   0.00000  Uiso   1.00
C1199  C     0.68695   0.79095   0.75059   0.00000  Uiso   1.00
C1200  C     0.97856   0.87392   0.73725   0.00000  Uiso   1.00
C1201  C     0.97919   0.79291   0.76193   0.00000  Uiso   1.00
C1202  C     0.68651   0.87626   0.74841   0.00000  Uiso   1.00
C1203  C     0.82170   0.87339   0.54751   0.00000  Uiso   1.00
C1204  C     0.82183   0.79325   0.95235   0.00000  Uiso   1.00
C1205  C     0.84645   0.87320   0.95239   0.00000  Uiso   1.00
C1206  C     0.84637   0.79325   0.54777   0.00000  Uiso   1.00
C1207  C     0.82173   0.87350   0.59343   0.00000  Uiso   1.00
C1208  C     0.82190   0.79316   0.90643   0.00000  Uiso   1.00
C1209  C     0.84593   0.87334   0.90646   0.00000  Uiso   1.00
C1210  C     0.84581   0.79315   0.59368   0.00000  Uiso   1.00
C1211  C     0.83360   0.83332   0.61675   0.00000  Uiso   1.00
C1212  C     0.83374   0.83329   0.88325   0.00000  Uiso   1.00
C1213  C     0.83414   0.83331   0.52430   0.00000  Uiso   1.00
C1214  C     0.83419   0.83323   0.97571   0.00000  Uiso   1.00
C1215  C     0.95702   0.83333   0.74974   0.00000  Uiso   1.00
C1216  C     0.70899   0.83362   0.74965   0.00000  Uiso   1.00
Cu1217 Cu    0.83333   0.88022   0.75000   0.00000  Uiso   1.00
Cu1218 Cu    0.83333   0.78645   0.75000   0.00000  Uiso   1.00
H1219  H     0.81144   0.90445   0.53021   0.00000  Uiso   1.00
H1220  H     0.81156   0.76225   0.96954   0.00000  Uiso   1.00
H1221  H     0.85684   0.90418   0.96960   0.00000  Uiso   1.00
H1222  H     0.85679   0.76218   0.53066   0.00000  Uiso   1.00
H1223  H     0.81190   0.90478   0.61065   0.00000  Uiso   1.00
H1224  H     0.81212   0.76196   0.88910   0.00000  Uiso   1.00
H1225  H     0.85559   0.90454   0.88916   0.00000  Uiso   1.00
H1226  H     0.85544   0.76188   0.61110   0.00000  Uiso   1.00
N1227  N     0.83333   0.95069   0.75000   0.00000  Uiso   1.00
N1228  N     0.83333   0.71598   0.75000   0.00000  Uiso   1.00
O1229  O     0.77321   0.87291   0.75000   0.00000  Uiso   1.00
O1230  O     0.89345   0.79375   0.75001   0.00000  Uiso   1.00
O1231  O     0.89345   0.87291   0.75001   0.00000  Uiso   1.00
O1232  O     0.77321   0.79375   0.74999   0.00000  Uiso   1.00
O1233  O     0.83333   0.87293   0.68573   0.00000  Uiso   1.00
O1234  O     0.83334   0.79374   0.81427   0.00000  Uiso   1.00
O1235  O     0.83334   0.87293   0.81427   0.00000  Uiso   1.00
O1236  O     0.83333   0.79374   0.68573   0.00000  Uiso   1.00
H1237  H     0.80958   0.70980   0.68486   0.00000  Uiso   1.00
H1238  H     0.85808   0.95676   0.81471   0.00000  Uiso   1.00
H1239  H     0.85747   0.70968   0.81498   0.00000  Uiso   1.00
H1240  H     0.80904   0.95695   0.68509   0.00000  Uiso   1.00
S1241  S     0.70630   0.73712   0.72960   0.00000  Uiso   1.00
O1242  O     0.73138   0.71332   0.76473   0.00000  Uiso   1.00
O1243  O     0.67203   0.70546   0.71591   0.00000  Uiso   1.00
O1244  O     0.73548   0.74706   0.68501   0.00000  Uiso   1.00
H1245  H     0.71802   0.76570   0.66480   0.00000  Uiso   1.00
S1246  S     0.95724   0.91729   0.70148   0.00000  Uiso   1.00
O1247  O     0.93441   0.95317   0.72807   0.00000  Uiso   1.00
O1248  O     0.99042   0.94109   0.67586   0.00000  Uiso   1.00
O1249  O     0.92502   0.89181   0.66545   0.00000  Uiso   1.00
H1250  H     0.91054   0.91806   0.65077   0.00000  Uiso   1.00
S1251  S     0.95906   0.74889   0.79721   0.00000  Uiso   1.00
O1252  O     0.93687   0.71293   0.77020   0.00000  Uiso   1.00
O1253  O     0.99309   0.72549   0.82237   0.00000  Uiso   1.00
O1254  O     0.92663   0.77331   0.83357   0.00000  Uiso   1.00
H1255  H     0.91864   0.74748   0.85352   0.00000  Uiso   1.00
S1256  S     0.70607   0.93106   0.76655   0.00000  Uiso   1.00
O1257  O     0.72949   0.95308   0.72944   0.00000  Uiso   1.00
O1258  O     0.67177   0.96295   0.77994   0.00000  Uiso   1.00
O1259  O     0.73683   0.92362   0.81068   0.00000  Uiso   1.00
H1260  H     0.75124   0.95382   0.81416   0.00000  Uiso   1.00
loop_
_geom_bond_atom_site_label_1
_geom_bond_atom_site_label_2
_geom_bond_distance
_geom_bond_site_symmetry_2
_ccdc_geom_bond_type
C1     C26     1.472   .     S
C1     O39     1.296   .     A
C1     O42     1.297   .     A
C2     C25     1.458   .     S
C2     O41     1.292   .     A
C2     O40     1.294   .     A
C3     O46     1.294   .     A
C3     O43     1.294   .     A
C3     C21     1.460   .     S
C4     C22     1.460   .     S
C4     O45     1.295   .     A
C4     O44     1.294   .     A
C5     N38     1.367   .     A
C5     H47     1.080   .     S
C5     C428    1.414   1_545 S
C6     N37     1.367   .     A
C6     H48     1.080   .     S
C6     C217    1.415   .     S
C7     H49     1.080   .     S
C7     N38     1.367   .     A
C7     C426    1.415   1_545 S
C8     H50     1.080   .     S
C8     N37     1.367   .     A
C8     C215    1.414   .     S
C9     S51     1.780   .     S
C9     C26     1.420   .     A
C9     C151    1.392   1_455 S
C10    C25     1.413   .     A
C10    S56     1.785   .     S
C10    C82     1.395   .     S
C11    C25     1.411   .     A
C11    S61     1.781   .     S
C11    C79     1.392   .     S
C12    S66     1.781   .     S
C12    C26     1.422   .     A
C12    C150    1.395   1_455 S
C13    C17     1.390   .     A
C13    C23     1.404   .     A
C13    H29     1.083   .     S
C14    C18     1.390   .     A
C14    H30     1.083   .     S
C14    C24     1.404   .     A
C15    H31     1.083   .     S
C15    C19     1.390   .     A
C15    C24     1.404   .     A
C16    H32     1.083   .     S
C16    C20     1.390   .     A
C16    C23     1.404   .     A
C17    H33     1.083   .     S
C17    C21     1.402   .     A
C18    H34     1.083   .     S
C18    C22     1.402   .     A
C19    H35     1.083   .     S
C19    C22     1.402   .     A
C20    C21     1.402   .     A
C20    H36     1.083   .     S
C23    C654    1.470   1_554 S
C24    C653    1.470   .     S
Cu27   O45     1.956   .     S
Cu27   N37     2.014   .     S
Cu27   O39     1.982   .     S
Cu27   Cu28    2.681   .     S
Cu27   O43     1.956   .     S
Cu27   O41     1.981   .     S
Cu28   O46     1.956   .     S
Cu28   O42     1.981   .     S
Cu28   O40     1.982   .     S
Cu28   N38     2.014   .     S
Cu28   O44     1.956   .     S
S51    O54     1.682   .     S
S51    O52     1.503   .     D
S51    O53     1.502   .     D
O54    H55     0.991   .     S
S56    O59     1.683   .     S
S56    O58     1.503   .     D
S56    O57     1.503   .     D
O59    H60     0.991   .     S
S61    O64     1.683   .     S
S61    O62     1.502   .     D
S61    O63     1.503   .     D
O64    H65     0.990   .     S
S66    O68     1.502   .     D
S66    O67     1.502   .     D
S66    O69     1.683   .     S
O69    H70     0.991   .     S
C71    C96     1.472   .     S
C71    O109    1.296   .     A
C71    O112    1.297   .     A
C72    C95     1.458   .     S
C72    O111    1.292   .     A
C72    O110    1.294   .     A
C73    O116    1.294   .     A
C73    O113    1.294   .     A
C73    C91     1.460   .     S
C74    C92     1.460   .     S
C74    O115    1.295   .     A
C74    O114    1.294   .     A
C75    N108    1.367   .     A
C75    H117    1.080   .     S
C75    C498    1.414   1_545 S
C76    N107    1.367   .     A
C76    H118    1.080   .     S
C76    C287    1.415   .     S
C77    H119    1.080   .     S
C77    N108    1.367   .     A
C77    C496    1.415   1_545 S
C78    H120    1.080   .     S
C78    N107    1.367   .     A
C78    C285    1.414   .     S
C79    S121    1.780   .     S
C79    C96     1.420   .     A
C80    C95     1.413   .     A
C80    S126    1.785   .     S
C80    C152    1.395   .     S
C81    C95     1.411   .     A
C81    S131    1.781   .     S
C81    C149    1.392   .     S
C82    S136    1.781   .     S
C82    C96     1.422   .     A
C83    C87     1.390   .     A
C83    C93     1.404   .     A
C83    H99     1.083   .     S
C84    C88     1.390   .     A
C84    H100    1.083   .     S
C84    C94     1.404   .     A
C85    H101    1.083   .     S
C85    C89     1.390   .     A
C85    C94     1.404   .     A
C86    H102    1.083   .     S
C86    C90     1.390   .     A
C86    C93     1.404   .     A
C87    H103    1.083   .     S
C87    C91     1.402   .     A
C88    H104    1.083   .     S
C88    C92     1.402   .     A
C89    H105    1.083   .     S
C89    C92     1.402   .     A
C90    C91     1.402   .     A
C90    H106    1.083   .     S
C93    C724    1.470   1_554 S
C94    C723    1.470   .     S
Cu97   O115    1.956   .     S
Cu97   N107    2.014   .     S
Cu97   O109    1.982   .     S
Cu97   Cu98    2.681   .     S
Cu97   O113    1.956   .     S
Cu97   O111    1.981   .     S
Cu98   O116    1.956   .     S
Cu98   O112    1.981   .     S
Cu98   O110    1.982   .     S
Cu98   N108    2.014   .     S
Cu98   O114    1.956   .     S
S121   O124    1.682   .     S
S121   O122    1.503   .     D
S121   O123    1.502   .     D
O124   H125    0.991   .     S
S126   O129    1.683   .     S
S126   O128    1.503   .     D
S126   O127    1.503   .     D
O129   H130    0.991   .     S
S131   O134    1.683   .     S
S131   O132    1.502   .     D
S131   O133    1.503   .     D
O134   H135    0.990   .     S
S136   O138    1.502   .     D
S136   O137    1.502   .     D
S136   O139    1.683   .     S
O139   H140    0.991   .     S
C141   C166    1.472   .     S
C141   O179    1.296   .     A
C141   O182    1.297   .     A
C142   C165    1.458   .     S
C142   O181    1.292   .     A
C142   O180    1.294   .     A
C143   O186    1.294   .     A
C143   O183    1.294   .     A
C143   C161    1.460   .     S
C144   C162    1.460   .     S
C144   O185    1.295   .     A
C144   O184    1.294   .     A
C145   N178    1.367   .     A
C145   H187    1.080   .     S
C145   C568    1.414   1_545 S
C146   N177    1.367   .     A
C146   H188    1.080   .     S
C146   C357    1.415   .     S
C147   H189    1.080   .     S
C147   N178    1.367   .     A
C147   C566    1.415   1_545 S
C148   H190    1.080   .     S
C148   N177    1.367   .     A
C148   C355    1.414   .     S
C149   S191    1.780   .     S
C149   C166    1.420   .     A
C150   C165    1.413   .     A
C150   S196    1.785   .     S
C150   C12     1.395   1_655 S
C151   C165    1.411   .     A
C151   S201    1.781   .     S
C151   C9      1.392   1_655 S
C152   S206    1.781   .     S
C152   C166    1.422   .     A
C153   C157    1.390   .     A
C153   C163    1.404   .     A
C153   H169    1.083   .     S
C154   C158    1.390   .     A
C154   H170    1.083   .     S
C154   C164    1.404   .     A
C155   H171    1.083   .     S
C155   C159    1.390   .     A
C155   C164    1.404   .     A
C156   H172    1.083   .     S
C156   C160    1.390   .     A
C156   C163    1.404   .     A
C157   H173    1.083   .     S
C157   C161    1.402   .     A
C158   H174    1.083   .     S
C158   C162    1.402   .     A
C159   H175    1.083   .     S
C159   C162    1.402   .     A
C160   C161    1.402   .     A
C160   H176    1.083   .     S
C163   C794    1.470   1_554 S
C164   C793    1.470   .     S
Cu167  O185    1.956   .     S
Cu167  N177    2.014   .     S
Cu167  O179    1.982   .     S
Cu167  Cu168   2.681   .     S
Cu167  O183    1.956   .     S
Cu167  O181    1.981   .     S
Cu168  O186    1.956   .     S
Cu168  O182    1.981   .     S
Cu168  O180    1.982   .     S
Cu168  N178    2.014   .     S
Cu168  O184    1.956   .     S
S191   O194    1.682   .     S
S191   O192    1.503   .     D
S191   O193    1.502   .     D
O194   H195    0.991   .     S
S196   O199    1.683   .     S
S196   O198    1.503   .     D
S196   O197    1.503   .     D
O199   H200    0.991   .     S
S201   O204    1.683   .     S
S201   O202    1.502   .     D
S201   O203    1.503   .     D
O204   H205    0.990   .     S
S206   O208    1.502   .     D
S206   O207    1.502   .     D
S206   O209    1.683   .     S
O209   H210    0.991   .     S
C211   C236    1.472   .     S
C211   O249    1.296   .     A
C211   O252    1.297   .     A
C212   C235    1.458   .     S
C212   O251    1.292   .     A
C212   O250    1.294   .     A
C213   O256    1.294   .     A
C213   O253    1.294   .     A
C213   C231    1.460   .     S
C214   C232    1.460   .     S
C214   O255    1.295   .     A
C214   O254    1.294   .     A
C215   N248    1.367   .     A
C215   H257    1.080   .     S
C216   N247    1.367   .     A
C216   H258    1.080   .     S
C216   C427    1.415   .     S
C217   H259    1.080   .     S
C217   N248    1.367   .     A
C218   H260    1.080   .     S
C218   N247    1.367   .     A
C218   C425    1.414   .     S
C219   S261    1.780   .     S
C219   C236    1.420   .     A
C219   C361    1.392   1_455 S
C220   C235    1.413   .     A
C220   S266    1.785   .     S
C220   C292    1.395   .     S
C221   C235    1.411   .     A
C221   S271    1.781   .     S
C221   C289    1.392   .     S
C222   S276    1.781   .     S
C222   C236    1.422   .     A
C222   C360    1.395   1_455 S
C223   C227    1.390   .     A
C223   C233    1.404   .     A
C223   H239    1.083   .     S
C224   C228    1.390   .     A
C224   H240    1.083   .     S
C224   C234    1.404   .     A
C225   H241    1.083   .     S
C225   C229    1.390   .     A
C225   C234    1.404   .     A
C226   H242    1.083   .     S
C226   C230    1.390   .     A
C226   C233    1.404   .     A
C227   H243    1.083   .     S
C227   C231    1.402   .     A
C228   H244    1.083   .     S
C228   C232    1.402   .     A
C229   H245    1.083   .     S
C229   C232    1.402   .     A
C230   C231    1.402   .     A
C230   H246    1.083   .     S
C233   C864    1.470   1_554 S
C234   C863    1.470   .     S
Cu237  O255    1.956   .     S
Cu237  N247    2.014   .     S
Cu237  O249    1.982   .     S
Cu237  Cu238   2.681   .     S
Cu237  O253    1.956   .     S
Cu237  O251    1.981   .     S
Cu238  O256    1.956   .     S
Cu238  O252    1.981   .     S
Cu238  O250    1.982   .     S
Cu238  N248    2.014   .     S
Cu238  O254    1.956   .     S
S261   O264    1.682   .     S
S261   O262    1.503   .     D
S261   O263    1.502   .     D
O264   H265    0.991   .     S
S266   O269    1.683   .     S
S266   O268    1.503   .     D
S266   O267    1.503   .     D
O269   H270    0.991   .     S
S271   O274    1.683   .     S
S271   O272    1.502   .     D
S271   O273    1.503   .     D
O274   H275    0.990   .     S
S276   O278    1.502   .     D
S276   O277    1.502   .     D
S276   O279    1.683   .     S
O279   H280    0.991   .     S
C281   C306    1.472   .     S
C281   O319    1.296   .     A
C281   O322    1.297   .     A
C282   C305    1.458   .     S
C282   O321    1.292   .     A
C282   O320    1.294   .     A
C283   O326    1.294   .     A
C283   O323    1.294   .     A
C283   C301    1.460   .     S
C284   C302    1.460   .     S
C284   O325    1.295   .     A
C284   O324    1.294   .     A
C285   N318    1.367   .     A
C285   H327    1.080   .     S
C286   N317    1.367   .     A
C286   H328    1.080   .     S
C286   C497    1.415   .     S
C287   H329    1.080   .     S
C287   N318    1.367   .     A
C288   H330    1.080   .     S
C288   N317    1.367   .     A
C288   C495    1.414   .     S
C289   S331    1.780   .     S
C289   C306    1.420   .     A
C290   C305    1.413   .     A
C290   S336    1.785   .     S
C290   C362    1.395   .     S
C291   C305    1.411   .     A
C291   S341    1.781   .     S
C291   C359    1.392   .     S
C292   S346    1.781   .     S
C292   C306    1.422   .     A
C293   C297    1.390   .     A
C293   C303    1.404   .     A
C293   H309    1.083   .     S
C294   C298    1.390   .     A
C294   H310    1.083   .     S
C294   C304    1.404   .     A
C295   H311    1.083   .     S
C295   C299    1.390   .     A
C295   C304    1.404   .     A
C296   H312    1.083   .     S
C296   C300    1.390   .     A
C296   C303    1.404   .     A
C297   H313    1.083   .     S
C297   C301    1.402   .     A
C298   H314    1.083   .     S
C298   C302    1.402   .     A
C299   H315    1.083   .     S
C299   C302    1.402   .     A
C300   C301    1.402   .     A
C300   H316    1.083   .     S
C303   C934    1.470   1_554 S
C304   C933    1.470   .     S
Cu307  O325    1.956   .     S
Cu307  N317    2.014   .     S
Cu307  O319    1.982   .     S
Cu307  Cu308   2.681   .     S
Cu307  O323    1.956   .     S
Cu307  O321    1.981   .     S
Cu308  O326    1.956   .     S
Cu308  O322    1.981   .     S
Cu308  O320    1.982   .     S
Cu308  N318    2.014   .     S
Cu308  O324    1.956   .     S
S331   O334    1.682   .     S
S331   O332    1.503   .     D
S331   O333    1.502   .     D
O334   H335    0.991   .     S
S336   O339    1.683   .     S
S336   O338    1.503   .     D
S336   O337    1.503   .     D
O339   H340    0.991   .     S
S341   O344    1.683   .     S
S341   O342    1.502   .     D
S341   O343    1.503   .     D
O344   H345    0.990   .     S
S346   O348    1.502   .     D
S346   O347    1.502   .     D
S346   O349    1.683   .     S
O349   H350    0.991   .     S
C351   C376    1.472   .     S
C351   O389    1.296   .     A
C351   O392    1.297   .     A
C352   C375    1.458   .     S
C352   O391    1.292   .     A
C352   O390    1.294   .     A
C353   O396    1.294   .     A
C353   O393    1.294   .     A
C353   C371    1.460   .     S
C354   C372    1.460   .     S
C354   O395    1.295   .     A
C354   O394    1.294   .     A
C355   N388    1.367   .     A
C355   H397    1.080   .     S
C356   N387    1.367   .     A
C356   H398    1.080   .     S
C356   C567    1.415   .     S
C357   H399    1.080   .     S
C357   N388    1.367   .     A
C358   H400    1.080   .     S
C358   N387    1.367   .     A
C358   C565    1.414   .     S
C359   S401    1.780   .     S
C359   C376    1.420   .     A
C360   C375    1.413   .     A
C360   S406    1.785   .     S
C360   C222    1.395   1_655 S
C361   C375    1.411   .     A
C361   S411    1.781   .     S
C361   C219    1.392   1_655 S
C362   S416    1.781   .     S
C362   C376    1.422   .     A
C363   C367    1.390   .     A
C363   C373    1.404   .     A
C363   H379    1.083   .     S
C364   C368    1.390   .     A
C364   H380    1.083   .     S
C364   C374    1.404   .     A
C365   H381    1.083   .     S
C365   C369    1.390   .     A
C365   C374    1.404   .     A
C366   H382    1.083   .     S
C366   C370    1.390   .     A
C366   C373    1.404   .     A
C367   H383    1.083   .     S
C367   C371    1.402   .     A
C368   H384    1.083   .     S
C368   C372    1.402   .     A
C369   H385    1.083   .     S
C369   C372    1.402   .     A
C370   C371    1.402   .     A
C370   H386    1.083   .     S
C373   C1004   1.470   1_554 S
C374   C1003   1.470   .     S
Cu377  O395    1.956   .     S
Cu377  N387    2.014   .     S
Cu377  O389    1.982   .     S
Cu377  Cu378   2.681   .     S
Cu377  O393    1.956   .     S
Cu377  O391    1.981   .     S
Cu378  O396    1.956   .     S
Cu378  O392    1.981   .     S
Cu378  O390    1.982   .     S
Cu378  N388    2.014   .     S
Cu378  O394    1.956   .     S
S401   O404    1.682   .     S
S401   O402    1.503   .     D
S401   O403    1.502   .     D
O404   H405    0.991   .     S
S406   O409    1.683   .     S
S406   O408    1.503   .     D
S406   O407    1.503   .     D
O409   H410    0.991   .     S
S411   O414    1.683   .     S
S411   O412    1.502   .     D
S411   O413    1.503   .     D
O414   H415    0.990   .     S
S416   O418    1.502   .     D
S416   O417    1.502   .     D
S416   O419    1.683   .     S
O419   H420    0.991   .     S
C421   C446    1.472   .     S
C421   O459    1.296   .     A
C421   O462    1.297   .     A
C422   C445    1.458   .     S
C422   O461    1.292   .     A
C422   O460    1.294   .     A
C423   O466    1.294   .     A
C423   O463    1.294   .     A
C423   C441    1.460   .     S
C424   C442    1.460   .     S
C424   O465    1.295   .     A
C424   O464    1.294   .     A
C425   N458    1.367   .     A
C425   H467    1.080   .     S
C426   N457    1.367   .     A
C426   H468    1.080   .     S
C426   C7      1.415   1_565 S
C427   H469    1.080   .     S
C427   N458    1.367   .     A
C428   H470    1.080   .     S
C428   N457    1.367   .     A
C428   C5      1.414   1_565 S
C429   S471    1.780   .     S
C429   C446    1.420   .     A
C429   C571    1.392   1_455 S
C430   C445    1.413   .     A
C430   S476    1.785   .     S
C430   C502    1.395   .     S
C431   C445    1.411   .     A
C431   S481    1.781   .     S
C431   C499    1.392   .     S
C432   S486    1.781   .     S
C432   C446    1.422   .     A
C432   C570    1.395   1_455 S
C433   C437    1.390   .     A
C433   C443    1.404   .     A
C433   H449    1.083   .     S
C434   C438    1.390   .     A
C434   H450    1.083   .     S
C434   C444    1.404   .     A
C435   H451    1.083   .     S
C435   C439    1.390   .     A
C435   C444    1.404   .     A
C436   H452    1.083   .     S
C436   C440    1.390   .     A
C436   C443    1.404   .     A
C437   H453    1.083   .     S
C437   C441    1.402   .     A
C438   H454    1.083   .     S
C438   C442    1.402   .     A
C439   H455    1.083   .     S
C439   C442    1.402   .     A
C440   C441    1.402   .     A
C440   H456    1.083   .     S
C443   C1074   1.470   1_554 S
C444   C1073   1.470   .     S
Cu447  O465    1.956   .     S
Cu447  N457    2.014   .     S
Cu447  O459    1.982   .     S
Cu447  Cu448   2.681   .     S
Cu447  O463    1.956   .     S
Cu447  O461    1.981   .     S
Cu448  O466    1.956   .     S
Cu448  O462    1.981   .     S
Cu448  O460    1.982   .     S
Cu448  N458    2.014   .     S
Cu448  O464    1.956   .     S
S471   O474    1.682   .     S
S471   O472    1.503   .     D
S471   O473    1.502   .     D
O474   H475    0.991   .     S
S476   O479    1.683   .     S
S476   O478    1.503   .     D
S476   O477    1.503   .     D
O479   H480    0.991   .     S
S481   O484    1.683   .     S
S481   O482    1.502   .     D
S481   O483    1.503   .     D
O484   H485    0.990   .     S
S486   O488    1.502   .     D
S486   O487    1.502   .     D
S486   O489    1.683   .     S
O489   H490    0.991   .     S
C491   C516    1.472   .     S
C491   O529    1.296   .     A
C491   O532    1.297   .     A
C492   C515    1.458   .     S
C492   O531    1.292   .     A
C492   O530    1.294   .     A
C493   O536    1.294   .     A
C493   O533    1.294   .     A
C493   C511    1.460   .     S
C494   C512    1.460   .     S
C494   O535    1.295   .     A
C494   O534    1.294   .     A
C495   N528    1.367   .     A
C495   H537    1.080   .     S
C496   N527    1.367   .     A
C496   H538    1.080   .     S
C496   C77     1.415   1_565 S
C497   H539    1.080   .     S
C497   N528    1.367   .     A
C498   H540    1.080   .     S
C498   N527    1.367   .     A
C498   C75     1.414   1_565 S
C499   S541    1.780   .     S
C499   C516    1.420   .     A
C500   C515    1.413   .     A
C500   S546    1.785   .     S
C500   C572    1.395   .     S
C501   C515    1.411   .     A
C501   S551    1.781   .     S
C501   C569    1.392   .     S
C502   S556    1.781   .     S
C502   C516    1.422   .     A
C503   C507    1.390   .     A
C503   C513    1.404   .     A
C503   H519    1.083   .     S
C504   C508    1.390   .     A
C504   H520    1.083   .     S
C504   C514    1.404   .     A
C505   H521    1.083   .     S
C505   C509    1.390   .     A
C505   C514    1.404   .     A
C506   H522    1.083   .     S
C506   C510    1.390   .     A
C506   C513    1.404   .     A
C507   H523    1.083   .     S
C507   C511    1.402   .     A
C508   H524    1.083   .     S
C508   C512    1.402   .     A
C509   H525    1.083   .     S
C509   C512    1.402   .     A
C510   C511    1.402   .     A
C510   H526    1.083   .     S
C513   C1144   1.470   1_554 S
C514   C1143   1.470   .     S
Cu517  O535    1.956   .     S
Cu517  N527    2.014   .     S
Cu517  O529    1.982   .     S
Cu517  Cu518   2.681   .     S
Cu517  O533    1.956   .     S
Cu517  O531    1.981   .     S
Cu518  O536    1.956   .     S
Cu518  O532    1.981   .     S
Cu518  O530    1.982   .     S
Cu518  N528    2.014   .     S
Cu518  O534    1.956   .     S
S541   O544    1.682   .     S
S541   O542    1.503   .     D
S541   O543    1.502   .     D
O544   H545    0.991   .     S
S546   O549    1.683   .     S
S546   O548    1.503   .     D
S546   O547    1.503   .     D
O549   H550    0.991   .     S
S551   O554    1.683   .     S
S551   O552    1.502   .     D
S551   O553    1.503   .     D
O554   H555    0.990   .     S
S556   O558    1.502   .     D
S556   O557    1.502   .     D
S556   O559    1.683   .     S
O559   H560    0.991   .     S
C561   C586    1.472   .     S
C561   O599    1.296   .     A
C561   O602    1.297   .     A
C562   C585    1.458   .     S
C562   O601    1.292   .     A
C562   O600    1.294   .     A
C563   O606    1.294   .     A
C563   O603    1.294   .     A
C563   C581    1.460   .     S
C564   C582    1.460   .     S
C564   O605    1.295   .     A
C564   O604    1.294   .     A
C565   N598    1.367   .     A
C565   H607    1.080   .     S
C566   N597    1.367   .     A
C566   H608    1.080   .     S
C566   C147    1.415   1_565 S
C567   H609    1.080   .     S
C567   N598    1.367   .     A
C568   H610    1.080   .     S
C568   N597    1.367   .     A
C568   C145    1.414   1_565 S
C569   S611    1.780   .     S
C569   C586    1.420   .     A
C570   C585    1.413   .     A
C570   S616    1.785   .     S
C570   C432    1.395   1_655 S
C571   C585    1.411   .     A
C571   S621    1.781   .     S
C571   C429    1.392   1_655 S
C572   S626    1.781   .     S
C572   C586    1.422   .     A
C573   C577    1.390   .     A
C573   C583    1.404   .     A
C573   H589    1.083   .     S
C574   C578    1.390   .     A
C574   H590    1.083   .     S
C574   C584    1.404   .     A
C575   H591    1.083   .     S
C575   C579    1.390   .     A
C575   C584    1.404   .     A
C576   H592    1.083   .     S
C576   C580    1.390   .     A
C576   C583    1.404   .     A
C577   H593    1.083   .     S
C577   C581    1.402   .     A
C578   H594    1.083   .     S
C578   C582    1.402   .     A
C579   H595    1.083   .     S
C579   C582    1.402   .     A
C580   C581    1.402   .     A
C580   H596    1.083   .     S
C583   C1214   1.470   1_554 S
C584   C1213   1.470   .     S
Cu587  O605    1.956   .     S
Cu587  N597    2.014   .     S
Cu587  O599    1.982   .     S
Cu587  Cu588   2.681   .     S
Cu587  O603    1.956   .     S
Cu587  O601    1.981   .     S
Cu588  O606    1.956   .     S
Cu588  O602    1.981   .     S
Cu588  O600    1.982   .     S
Cu588  N598    2.014   .     S
Cu588  O604    1.956   .     S
S611   O614    1.682   .     S
S611   O612    1.503   .     D
S611   O613    1.502   .     D
O614   H615    0.991   .     S
S616   O619    1.683   .     S
S616   O618    1.503   .     D
S616   O617    1.503   .     D
O619   H620    0.991   .     S
S621   O624    1.683   .     S
S621   O622    1.502   .     D
S621   O623    1.503   .     D
O624   H625    0.990   .     S
S626   O628    1.502   .     D
S626   O627    1.502   .     D
S626   O629    1.683   .     S
O629   H630    0.991   .     S
C631   C656    1.472   .     S
C631   O669    1.296   .     A
C631   O672    1.297   .     A
C632   C655    1.458   .     S
C632   O671    1.292   .     A
C632   O670    1.294   .     A
C633   O676    1.294   .     A
C633   O673    1.294   .     A
C633   C651    1.460   .     S
C634   C652    1.460   .     S
C634   O675    1.295   .     A
C634   O674    1.294   .     A
C635   N668    1.367   .     A
C635   H677    1.080   .     S
C635   C1058   1.414   1_545 S
C636   N667    1.367   .     A
C636   H678    1.080   .     S
C636   C847    1.415   .     S
C637   H679    1.080   .     S
C637   N668    1.367   .     A
C637   C1056   1.415   1_545 S
C638   H680    1.080   .     S
C638   N667    1.367   .     A
C638   C845    1.414   .     S
C639   S681    1.780   .     S
C639   C656    1.420   .     A
C639   C781    1.392   1_455 S
C640   C655    1.413   .     A
C640   S686    1.785   .     S
C640   C712    1.395   .     S
C641   C655    1.411   .     A
C641   S691    1.781   .     S
C641   C709    1.392   .     S
C642   S696    1.781   .     S
C642   C656    1.422   .     A
C642   C780    1.395   1_455 S
C643   C647    1.390   .     A
C643   C653    1.404   .     A
C643   H659    1.083   .     S
C644   C648    1.390   .     A
C644   H660    1.083   .     S
C644   C654    1.404   .     A
C645   H661    1.083   .     S
C645   C649    1.390   .     A
C645   C654    1.404   .     A
C646   H662    1.083   .     S
C646   C650    1.390   .     A
C646   C653    1.404   .     A
C647   H663    1.083   .     S
C647   C651    1.402   .     A
C648   H664    1.083   .     S
C648   C652    1.402   .     A
C649   H665    1.083   .     S
C649   C652    1.402   .     A
C650   C651    1.402   .     A
C650   H666    1.083   .     S
C654   C23     1.470   1_556 S
Cu657  O675    1.956   .     S
Cu657  N667    2.014   .     S
Cu657  O669    1.982   .     S
Cu657  Cu658   2.681   .     S
Cu657  O673    1.956   .     S
Cu657  O671    1.981   .     S
Cu658  O676    1.956   .     S
Cu658  O672    1.981   .     S
Cu658  O670    1.982   .     S
Cu658  N668    2.014   .     S
Cu658  O674    1.956   .     S
S681   O684    1.682   .     S
S681   O682    1.503   .     D
S681   O683    1.502   .     D
O684   H685    0.991   .     S
S686   O689    1.683   .     S
S686   O688    1.503   .     D
S686   O687    1.503   .     D
O689   H690    0.991   .     S
S691   O694    1.683   .     S
S691   O692    1.502   .     D
S691   O693    1.503   .     D
O694   H695    0.990   .     S
S696   O698    1.502   .     D
S696   O697    1.502   .     D
S696   O699    1.683   .     S
O699   H700    0.991   .     S
C701   C726    1.472   .     S
C701   O739    1.296   .     A
C701   O742    1.297   .     A
C702   C725    1.458   .     S
C702   O741    1.292   .     A
C702   O740    1.294   .     A
C703   O746    1.294   .     A
C703   O743    1.294   .     A
C703   C721    1.460   .     S
C704   C722    1.460   .     S
C704   O745    1.295   .     A
C704   O744    1.294   .     A
C705   N738    1.367   .     A
C705   H747    1.080   .     S
C705   C1128   1.414   1_545 S
C706   N737    1.367   .     A
C706   H748    1.080   .     S
C706   C917    1.415   .     S
C707   H749    1.080   .     S
C707   N738    1.367   .     A
C707   C1126   1.415   1_545 S
C708   H750    1.080   .     S
C708   N737    1.367   .     A
C708   C915    1.414   .     S
C709   S751    1.780   .     S
C709   C726    1.420   .     A
C710   C725    1.413   .     A
C710   S756    1.785   .     S
C710   C782    1.395   .     S
C711   C725    1.411   .     A
C711   S761    1.781   .     S
C711   C779    1.392   .     S
C712   S766    1.781   .     S
C712   C726    1.422   .     A
C713   C717    1.390   .     A
C713   C723    1.404   .     A
C713   H729    1.083   .     S
C714   C718    1.390   .     A
C714   H730    1.083   .     S
C714   C724    1.404   .     A
C715   H731    1.083   .     S
C715   C719    1.390   .     A
C715   C724    1.404   .     A
C716   H732    1.083   .     S
C716   C720    1.390   .     A
C716   C723    1.404   .     A
C717   H733    1.083   .     S
C717   C721    1.402   .     A
C718   H734    1.083   .     S
C718   C722    1.402   .     A
C719   H735    1.083   .     S
C719   C722    1.402   .     A
C720   C721    1.402   .     A
C720   H736    1.083   .     S
C724   C93     1.470   1_556 S
Cu727  O745    1.956   .     S
Cu727  N737    2.014   .     S
Cu727  O739    1.982   .     S
Cu727  Cu728   2.681   .     S
Cu727  O743    1.956   .     S
Cu727  O741    1.981   .     S
Cu728  O746    1.956   .     S
Cu728  O742    1.981   .     S
Cu728  O740    1.982   .     S
Cu728  N738    2.014   .     S
Cu728  O744    1.956   .     S
S751   O754    1.682   .     S
S751   O752    1.503   .     D
S751   O753    1.502   .     D
O754   H755    0.991   .     S
S756   O759    1.683   .     S
S756   O758    1.503   .     D
S756   O757    1.503   .     D
O759   H760    0.991   .     S
S761   O764    1.683   .     S
S761   O762    1.502   .     D
S761   O763    1.503   .     D
O764   H765    0.990   .     S
S766   O768    1.502   .     D
S766   O767    1.502   .     D
S766   O769    1.683   .     S
O769   H770    0.991   .     S
C771   C796    1.472   .     S
C771   O809    1.296   .     A
C771   O812    1.297   .     A
C772   C795    1.458   .     S
C772   O811    1.292   .     A
C772   O810    1.294   .     A
C773   O816    1.294   .     A
C773   O813    1.294   .     A
C773   C791    1.460   .     S
C774   C792    1.460   .     S
C774   O815    1.295   .     A
C774   O814    1.294   .     A
C775   N808    1.367   .     A
C775   H817    1.080   .     S
C775   C1198   1.414   1_545 S
C776   N807    1.367   .     A
C776   H818    1.080   .     S
C776   C987    1.415   .     S
C777   H819    1.080   .     S
C777   N808    1.367   .     A
C777   C1196   1.415   1_545 S
C778   H820    1.080   .     S
C778   N807    1.367   .     A
C778   C985    1.414   .     S
C779   S821    1.780   .     S
C779   C796    1.420   .     A
C780   C795    1.413   .     A
C780   S826    1.785   .     S
C780   C642    1.395   1_655 S
C781   C795    1.411   .     A
C781   S831    1.781   .     S
C781   C639    1.392   1_655 S
C782   S836    1.781   .     S
C782   C796    1.422   .     A
C783   C787    1.390   .     A
C783   C793    1.404   .     A
C783   H799    1.083   .     S
C784   C788    1.390   .     A
C784   H800    1.083   .     S
C784   C794    1.404   .     A
C785   H801    1.083   .     S
C785   C789    1.390   .     A
C785   C794    1.404   .     A
C786   H802    1.083   .     S
C786   C790    1.390   .     A
C786   C793    1.404   .     A
C787   H803    1.083   .     S
C787   C791    1.402   .     A
C788   H804    1.083   .     S
C788   C792    1.402   .     A
C789   H805    1.083   .     S
C789   C792    1.402   .     A
C790   C791    1.402   .     A
C790   H806    1.083   .     S
C794   C163    1.470   1_556 S
Cu797  O815    1.956   .     S
Cu797  N807    2.014   .     S
Cu797  O809    1.982   .     S
Cu797  Cu798   2.681   .     S
Cu797  O813    1.956   .     S
Cu797  O811    1.981   .     S
Cu798  O816    1.956   .     S
Cu798  O812    1.981   .     S
Cu798  O810    1.982   .     S
Cu798  N808    2.014   .     S
Cu798  O814    1.956   .     S
S821   O824    1.682   .     S
S821   O822    1.503   .     D
S821   O823    1.502   .     D
O824   H825    0.991   .     S
S826   O829    1.683   .     S
S826   O828    1.503   .     D
S826   O827    1.503   .     D
O829   H830    0.991   .     S
S831   O834    1.683   .     S
S831   O832    1.502   .     D
S831   O833    1.503   .     D
O834   H835    0.990   .     S
S836   O838    1.502   .     D
S836   O837    1.502   .     D
S836   O839    1.683   .     S
O839   H840    0.991   .     S
C841   C866    1.472   .     S
C841   O879    1.296   .     A
C841   O882    1.297   .     A
C842   C865    1.458   .     S
C842   O881    1.292   .     A
C842   O880    1.294   .     A
C843   O886    1.294   .     A
C843   O883    1.294   .     A
C843   C861    1.460   .     S
C844   C862    1.460   .     S
C844   O885    1.295   .     A
C844   O884    1.294   .     A
C845   N878    1.367   .     A
C845   H887    1.080   .     S
C846   N877    1.367   .     A
C846   H888    1.080   .     S
C846   C1057   1.415   .     S
C847   H889    1.080   .     S
C847   N878    1.367   .     A
C848   H890    1.080   .     S
C848   N877    1.367   .     A
C848   C1055   1.414   .     S
C849   S891    1.780   .     S
C849   C866    1.420   .     A
C849   C991    1.392   1_455 S
C850   C865    1.413   .     A
C850   S896    1.785   .     S
C850   C922    1.395   .     S
C851   C865    1.411   .     A
C851   S901    1.781   .     S
C851   C919    1.392   .     S
C852   S906    1.781   .     S
C852   C866    1.422   .     A
C852   C990    1.395   1_455 S
C853   C857    1.390   .     A
C853   C863    1.404   .     A
C853   H869    1.083   .     S
C854   C858    1.390   .     A
C854   H870    1.083   .     S
C854   C864    1.404   .     A
C855   H871    1.083   .     S
C855   C859    1.390   .     A
C855   C864    1.404   .     A
C856   H872    1.083   .     S
C856   C860    1.390   .     A
C856   C863    1.404   .     A
C857   H873    1.083   .     S
C857   C861    1.402   .     A
C858   H874    1.083   .     S
C858   C862    1.402   .     A
C859   H875    1.083   .     S
C859   C862    1.402   .     A
C860   C861    1.402   .     A
C860   H876    1.083   .     S
C864   C233    1.470   1_556 S
Cu867  O885    1.956   .     S
Cu867  N877    2.014   .     S
Cu867  O879    1.982   .     S
Cu867  Cu868   2.681   .     S
Cu867  O883    1.956   .     S
Cu867  O881    1.981   .     S
Cu868  O886    1.956   .     S
Cu868  O882    1.981   .     S
Cu868  O880    1.982   .     S
Cu868  N878    2.014   .     S
Cu868  O884    1.956   .     S
S891   O894    1.682   .     S
S891   O892    1.503   .     D
S891   O893    1.502   .     D
O894   H895    0.991   .     S
S896   O899    1.683   .     S
S896   O898    1.503   .     D
S896   O897    1.503   .     D
O899   H900    0.991   .     S
S901   O904    1.683   .     S
S901   O902    1.502   .     D
S901   O903    1.503   .     D
O904   H905    0.990   .     S
S906   O908    1.502   .     D
S906   O907    1.502   .     D
S906   O909    1.683   .     S
O909   H910    0.991   .     S
C911   C936    1.472   .     S
C911   O949    1.296   .     A
C911   O952    1.297   .     A
C912   C935    1.458   .     S
C912   O951    1.292   .     A
C912   O950    1.294   .     A
C913   O956    1.294   .     A
C913   O953    1.294   .     A
C913   C931    1.460   .     S
C914   C932    1.460   .     S
C914   O955    1.295   .     A
C914   O954    1.294   .     A
C915   N948    1.367   .     A
C915   H957    1.080   .     S
C916   N947    1.367   .     A
C916   H958    1.080   .     S
C916   C1127   1.415   .     S
C917   H959    1.080   .     S
C917   N948    1.367   .     A
C918   H960    1.080   .     S
C918   N947    1.367   .     A
C918   C1125   1.414   .     S
C919   S961    1.780   .     S
C919   C936    1.420   .     A
C920   C935    1.413   .     A
C920   S966    1.785   .     S
C920   C992    1.395   .     S
C921   C935    1.411   .     A
C921   S971    1.781   .     S
C921   C989    1.392   .     S
C922   S976    1.781   .     S
C922   C936    1.422   .     A
C923   C927    1.390   .     A
C923   C933    1.404   .     A
C923   H939    1.083   .     S
C924   C928    1.390   .     A
C924   H940    1.083   .     S
C924   C934    1.404   .     A
C925   H941    1.083   .     S
C925   C929    1.390   .     A
C925   C934    1.404   .     A
C926   H942    1.083   .     S
C926   C930    1.390   .     A
C926   C933    1.404   .     A
C927   H943    1.083   .     S
C927   C931    1.402   .     A
C928   H944    1.083   .     S
C928   C932    1.402   .     A
C929   H945    1.083   .     S
C929   C932    1.402   .     A
C930   C931    1.402   .     A
C930   H946    1.083   .     S
C934   C303    1.470   1_556 S
Cu937  O955    1.956   .     S
Cu937  N947    2.014   .     S
Cu937  O949    1.982   .     S
Cu937  Cu938   2.681   .     S
Cu937  O953    1.956   .     S
Cu937  O951    1.981   .     S
Cu938  O956    1.956   .     S
Cu938  O952    1.981   .     S
Cu938  O950    1.982   .     S
Cu938  N948    2.014   .     S
Cu938  O954    1.956   .     S
S961   O964    1.682   .     S
S961   O962    1.503   .     D
S961   O963    1.502   .     D
O964   H965    0.991   .     S
S966   O969    1.683   .     S
S966   O968    1.503   .     D
S966   O967    1.503   .     D
O969   H970    0.991   .     S
S971   O974    1.683   .     S
S971   O972    1.502   .     D
S971   O973    1.503   .     D
O974   H975    0.990   .     S
S976   O978    1.502   .     D
S976   O977    1.502   .     D
S976   O979    1.683   .     S
O979   H980    0.991   .     S
C981   C1006   1.472   .     S
C981   O1019   1.296   .     A
C981   O1022   1.297   .     A
C982   C1005   1.458   .     S
C982   O1021   1.292   .     A
C982   O1020   1.294   .     A
C983   O1026   1.294   .     A
C983   O1023   1.294   .     A
C983   C1001   1.460   .     S
C984   C1002   1.460   .     S
C984   O1025   1.295   .     A
C984   O1024   1.294   .     A
C985   N1018   1.367   .     A
C985   H1027   1.080   .     S
C986   N1017   1.367   .     A
C986   H1028   1.080   .     S
C986   C1197   1.415   .     S
C987   H1029   1.080   .     S
C987   N1018   1.367   .     A
C988   H1030   1.080   .     S
C988   N1017   1.367   .     A
C988   C1195   1.414   .     S
C989   S1031   1.780   .     S
C989   C1006   1.420   .     A
C990   C1005   1.413   .     A
C990   S1036   1.785   .     S
C990   C852    1.395   1_655 S
C991   C1005   1.411   .     A
C991   S1041   1.781   .     S
C991   C849    1.392   1_655 S
C992   S1046   1.781   .     S
C992   C1006   1.422   .     A
C993   C997    1.390   .     A
C993   C1003   1.404   .     A
C993   H1009   1.083   .     S
C994   C998    1.390   .     A
C994   H1010   1.083   .     S
C994   C1004   1.404   .     A
C995   H1011   1.083   .     S
C995   C999    1.390   .     A
C995   C1004   1.404   .     A
C996   H1012   1.083   .     S
C996   C1000   1.390   .     A
C996   C1003   1.404   .     A
C997   H1013   1.083   .     S
C997   C1001   1.402   .     A
C998   H1014   1.083   .     S
C998   C1002   1.402   .     A
C999   H1015   1.083   .     S
C999   C1002   1.402   .     A
C1000  C1001   1.402   .     A
C1000  H1016   1.083   .     S
C1004  C373    1.470   1_556 S
Cu1007 O1025   1.956   .     S
Cu1007 N1017   2.014   .     S
Cu1007 O1019   1.982   .     S
Cu1007 Cu1008  2.681   .     S
Cu1007 O1023   1.956   .     S
Cu1007 O1021   1.981   .     S
Cu1008 O1026   1.956   .     S
Cu1008 O1022   1.981   .     S
Cu1008 O1020   1.982   .     S
Cu1008 N1018   2.014   .     S
Cu1008 O1024   1.956   .     S
S1031  O1034   1.682   .     S
S1031  O1032   1.503   .     D
S1031  O1033   1.502   .     D
O1034  H1035   0.991   .     S
S1036  O1039   1.683   .     S
S1036  O1038   1.503   .     D
S1036  O1037   1.503   .     D
O1039  H1040   0.991   .     S
S1041  O1044   1.683   .     S
S1041  O1042   1.502   .     D
S1041  O1043   1.503   .     D
O1044  H1045   0.990   .     S
S1046  O1048   1.502   .     D
S1046  O1047   1.502   .     D
S1046  O1049   1.683   .     S
O1049  H1050   0.991   .     S
C1051  C1076   1.472   .     S
C1051  O1089   1.296   .     A
C1051  O1092   1.297   .     A
C1052  C1075   1.458   .     S
C1052  O1091   1.292   .     A
C1052  O1090   1.294   .     A
C1053  O1096   1.294   .     A
C1053  O1093   1.294   .     A
C1053  C1071   1.460   .     S
C1054  C1072   1.460   .     S
C1054  O1095   1.295   .     A
C1054  O1094   1.294   .     A
C1055  N1088   1.367   .     A
C1055  H1097   1.080   .     S
C1056  N1087   1.367   .     A
C1056  H1098   1.080   .     S
C1056  C637    1.415   1_565 S
C1057  H1099   1.080   .     S
C1057  N1088   1.367   .     A
C1058  H1100   1.080   .     S
C1058  N1087   1.367   .     A
C1058  C635    1.414   1_565 S
C1059  S1101   1.780   .     S
C1059  C1076   1.420   .     A
C1059  C1201   1.392   1_455 S
C1060  C1075   1.413   .     A
C1060  S1106   1.785   .     S
C1060  C1132   1.395   .     S
C1061  C1075   1.411   .     A
C1061  S1111   1.781   .     S
C1061  C1129   1.392   .     S
C1062  S1116   1.781   .     S
C1062  C1076   1.422   .     A
C1062  C1200   1.395   1_455 S
C1063  C1067   1.390   .     A
C1063  C1073   1.404   .     A
C1063  H1079   1.083   .     S
C1064  C1068   1.390   .     A
C1064  H1080   1.083   .     S
C1064  C1074   1.404   .     A
C1065  H1081   1.083   .     S
C1065  C1069   1.390   .     A
C1065  C1074   1.404   .     A
C1066  H1082   1.083   .     S
C1066  C1070   1.390   .     A
C1066  C1073   1.404   .     A
C1067  H1083   1.083   .     S
C1067  C1071   1.402   .     A
C1068  H1084   1.083   .     S
C1068  C1072   1.402   .     A
C1069  H1085   1.083   .     S
C1069  C1072   1.402   .     A
C1070  C1071   1.402   .     A
C1070  H1086   1.083   .     S
C1074  C443    1.470   1_556 S
Cu1077 O1095   1.956   .     S
Cu1077 N1087   2.014   .     S
Cu1077 O1089   1.982   .     S
Cu1077 Cu1078  2.681   .     S
Cu1077 O1093   1.956   .     S
Cu1077 O1091   1.981   .     S
Cu1078 O1096   1.956   .     S
Cu1078 O1092   1.981   .     S
Cu1078 O1090   1.982   .     S
Cu1078 N1088   2.014   .     S
Cu1078 O1094   1.956   .     S
S1101  O1104   1.682   .     S
S1101  O1102   1.503   .     D
S1101  O1103   1.502   .     D
O1104  H1105   0.991   .     S
S1106  O1109   1.683   .     S
S1106  O1108   1.503   .     D
S1106  O1107   1.503   .     D
O1109  H1110   0.991   .     S
S1111  O1114   1.683   .     S
S1111  O1112   1.502   .     D
S1111  O1113   1.503   .     D
O1114  H1115   0.990   .     S
S1116  O1118   1.502   .     D
S1116  O1117   1.502   .     D
S1116  O1119   1.683   .     S
O1119  H1120   0.991   .     S
C1121  C1146   1.472   .     S
C1121  O1159   1.296   .     A
C1121  O1162   1.297   .     A
C1122  C1145   1.458   .     S
C1122  O1161   1.292   .     A
C1122  O1160   1.294   .     A
C1123  O1166   1.294   .     A
C1123  O1163   1.294   .     A
C1123  C1141   1.460   .     S
C1124  C1142   1.460   .     S
C1124  O1165   1.295   .     A
C1124  O1164   1.294   .     A
C1125  N1158   1.367   .     A
C1125  H1167   1.080   .     S
C1126  N1157   1.367   .     A
C1126  H1168   1.080   .     S
C1126  C707    1.415   1_565 S
C1127  H1169   1.080   .     S
C1127  N1158   1.367   .     A
C1128  H1170   1.080   .     S
C1128  N1157   1.367   .     A
C1128  C705    1.414   1_565 S
C1129  S1171   1.780   .     S
C1129  C1146   1.420   .     A
C1130  C1145   1.413   .     A
C1130  S1176   1.785   .     S
C1130  C1202   1.395   .     S
C1131  C1145   1.411   .     A
C1131  S1181   1.781   .     S
C1131  C1199   1.392   .     S
C1132  S1186   1.781   .     S
C1132  C1146   1.422   .     A
C1133  C1137   1.390   .     A
C1133  C1143   1.404   .     A
C1133  H1149   1.083   .     S
C1134  C1138   1.390   .     A
C1134  H1150   1.083   .     S
C1134  C1144   1.404   .     A
C1135  H1151   1.083   .     S
C1135  C1139   1.390   .     A
C1135  C1144   1.404   .     A
C1136  H1152   1.083   .     S
C1136  C1140   1.390   .     A
C1136  C1143   1.404   .     A
C1137  H1153   1.083   .     S
C1137  C1141   1.402   .     A
C1138  H1154   1.083   .     S
C1138  C1142   1.402   .     A
C1139  H1155   1.083   .     S
C1139  C1142   1.402   .     A
C1140  C1141   1.402   .     A
C1140  H1156   1.083   .     S
C1144  C513    1.470   1_556 S
Cu1147 O1165   1.956   .     S
Cu1147 N1157   2.014   .     S
Cu1147 O1159   1.982   .     S
Cu1147 Cu1148  2.681   .     S
Cu1147 O1163   1.956   .     S
Cu1147 O1161   1.981   .     S
Cu1148 O1166   1.956   .     S
Cu1148 O1162   1.981   .     S
Cu1148 O1160   1.982   .     S
Cu1148 N1158   2.014   .     S
Cu1148 O1164   1.956   .     S
S1171  O1174   1.682   .     S
S1171  O1172   1.503   .     D
S1171  O1173   1.502   .     D
O1174  H1175   0.991   .     S
S1176  O1179   1.683   .     S
S1176  O1178   1.503   .     D
S1176  O1177   1.503   .     D
O1179  H1180   0.991   .     S
S1181  O1184   1.683   .     S
S1181  O1182   1.502   .     D
S1181  O1183   1.503   .     D
O1184  H1185   0.990   .     S
S1186  O1188   1.502   .     D
S1186  O1187   1.502   .     D
S1186  O1189   1.683   .     S
O1189  H1190   0.991   .     S
C1191  C1216   1.472   .     S
C1191  O1229   1.296   .     A
C1191  O1232   1.297   .     A
C1192  C1215   1.458   .     S
C1192  O1231   1.292   .     A
C1192  O1230   1.294   .     A
C1193  O1236   1.294   .     A
C1193  O1233   1.294   .     A
C1193  C1211   1.460   .     S
C1194  C1212   1.460   .     S
C1194  O1235   1.295   .     A
C1194  O1234   1.294   .     A
C1195  N1228   1.367   .     A
C1195  H1237   1.080   .     S
C1196  N1227   1.367   .     A
C1196  H1238   1.080   .     S
C1196  C777    1.415   1_565 S
C1197  H1239   1.080   .     S
C1197  N1228   1.367   .     A
C1198  H1240   1.080   .     S
C1198  N1227   1.367   .     A
C1198  C775    1.414   1_565 S
C1199  S1241   1.780   .     S
C1199  C1216   1.420   .     A
C1200  C1215   1.413   .     A
C1200  S1246   1.785   .     S
C1200  C1062   1.395   1_655 S
C1201  C1215   1.411   .     A
C1201  S1251   1.781   .     S
C1201  C1059   1.392   1_655 S
C1202  S1256   1.781   .     S
C1202  C1216   1.422   .     A
C1203  C1207   1.390   .     A
C1203  C1213   1.404   .     A
C1203  H1219   1.083   .     S
C1204  C1208   1.390   .     A
C1204  H1220   1.083   .     S
C1204  C1214   1.404   .     A
C1205  H1221   1.083   .     S
C1205  C1209   1.390   .     A
C1205  C1214   1.404   .     A
C1206  H1222   1.083   .     S
C1206  C1210   1.390   .     A
C1206  C1213   1.404   .     A
C1207  H1223   1.083   .     S
C1207  C1211   1.402   .     A
C1208  H1224   1.083   .     S
C1208  C1212   1.402   .     A
C1209  H1225   1.083   .     S
C1209  C1212   1.402   .     A
C1210  C1211   1.402   .     A
C1210  H1226   1.083   .     S
C1214  C583    1.470   1_556 S
Cu1217 O1235   1.956   .     S
Cu1217 N1227   2.014   .     S
Cu1217 O1229   1.982   .     S
Cu1217 Cu1218  2.681   .     S
Cu1217 O1233   1.956   .     S
Cu1217 O1231   1.981   .     S
Cu1218 O1236   1.956   .     S
Cu1218 O1232   1.981   .     S
Cu1218 O1230   1.982   .     S
Cu1218 N1228   2.014   .     S
Cu1218 O1234   1.956   .     S
S1241  O1244   1.682   .     S
S1241  O1242   1.503   .     D
S1241  O1243   1.502   .     D
O1244  H1245   0.991   .     S
S1246  O1249   1.683   .     S
S1246  O1248   1.503   .     D
S1246  O1247   1.503   .     D
O1249  H1250   0.991   .     S
S1251  O1254   1.683   .     S
S1251  O1252   1.502   .     D
S1251  O1253   1.503   .     D
O1254  H1255   0.990   .     S
S1256  O1258   1.502   .     D
S1256  O1257   1.502   .     D
S1256  O1259   1.683   .     S
O1259  H1260   0.991   .     S
