data_str_m3_o1_o16_pcu_sym.213
_audit_creation_date              2020-01-03
_audit_creation_method            'Materials Studio'
_symmetry_space_group_name_H-M    'P1'
_symmetry_Int_Tables_number       1
_symmetry_cell_setting            triclinic
loop_
_symmetry_equiv_pos_as_xyz
  x,y,z
_cell_length_a                    29.5167
_cell_length_b                    32.1332
_cell_length_c                    26.2372
_cell_angle_alpha                 89.8455
_cell_angle_beta                  70.0834
_cell_angle_gamma                 89.9748
loop_
_atom_site_label
_atom_site_type_symbol
_atom_site_fract_x
_atom_site_fract_y
_atom_site_fract_z
_atom_site_U_iso_or_equiv
_atom_site_adp_type
_atom_site_occupancy
O1     O     0.12846   0.22775   0.25001   0.00000  Uiso   1.00
O2     O     0.20490   0.22774   0.25001   0.00000  Uiso   1.00
C3     C     0.16665   0.24671   0.25010   0.00000  Uiso   1.00
O4     O     0.10947   0.16666   0.32681   0.00000  Uiso   1.00
O5     O     0.18591   0.16665   0.32681   0.00000  Uiso   1.00
C6     C     0.14003   0.16924   0.35205   0.00000  Uiso   1.00
Zn7    Zn    0.11562   0.16667   0.25000   0.00000  Uiso   1.00
Zn8    Zn    0.21771   0.16666   0.25000   0.00000  Uiso   1.00
O9     O     0.12843   0.10559   0.24999   0.00000  Uiso   1.00
O10    O     0.20488   0.10558   0.25000   0.00000  Uiso   1.00
O11    O     0.14742   0.16668   0.17319   0.00000  Uiso   1.00
O12    O     0.22387   0.16667   0.17319   0.00000  Uiso   1.00
C13    C     0.16662   0.08662   0.25012   0.00000  Uiso   1.00
C14    C     0.19334   0.16694   0.14776   0.00000  Uiso   1.00
C15    C     0.26099   0.20732   0.00845   0.00000  Uiso   1.00
H16    H     0.27984   0.19816   0.07982   0.00000  Uiso   1.00
H17    H     0.29554   0.22132   0.48688   0.00000  Uiso   1.00
C18    C     0.20929   0.17334   0.08948   0.00000  Uiso   1.00
C19    C     0.07650   0.15993   0.44137   0.00000  Uiso   1.00
C20    C     0.06271   0.15750   0.49743   0.00000  Uiso   1.00
C21    C     0.09601   0.16623   0.02285   0.00000  Uiso   1.00
C22    C     0.14330   0.17973   0.49233   0.00000  Uiso   1.00
C23    C     0.15403   0.18899   0.43720   0.00000  Uiso   1.00
C24    C     0.18043   0.18386   0.01456   0.00000  Uiso   1.00
C25    C     0.22438   0.20440   0.48526   0.00000  Uiso   1.00
C26    C     0.23060   0.22074   0.43344   0.00000  Uiso   1.00
C27    C     0.19573   0.21246   0.40986   0.00000  Uiso   1.00
C28    C     0.17547   0.16621   0.06457   0.00000  Uiso   1.00
C29    C     0.25292   0.19284   0.06098   0.00000  Uiso   1.00
C30    C     0.12270   0.17426   0.41084   0.00000  Uiso   1.00
H31    H     0.14452   0.14735   0.08589   0.00000  Uiso   1.00
H32    H     0.05151   0.14967   0.42186   0.00000  Uiso   1.00
H33    H     0.08351   0.16323   0.06644   0.00000  Uiso   1.00
H34    H     0.02678   0.14708   0.02107   0.00000  Uiso   1.00
H35    H     0.20080   0.22591   0.37044   0.00000  Uiso   1.00
C36    C     0.20220   0.31195   0.26391   0.00000  Uiso   1.00
H37    H     0.22973   0.29562   0.27482   0.00000  Uiso   1.00
C38    C     0.20222   0.02127   0.26388   0.00000  Uiso   1.00
H39    H     0.22977   0.03753   0.27474   0.00000  Uiso   1.00
C40    C     0.16654   0.04247   0.25035   0.00000  Uiso   1.00
C41    C     0.13077   0.02135   0.23704   0.00000  Uiso   1.00
H42    H     0.10320   0.03765   0.22619   0.00000  Uiso   1.00
C43    C     0.13078   0.31204   0.23702   0.00000  Uiso   1.00
H44    H     0.10322   0.29580   0.22615   0.00000  Uiso   1.00
C45    C     0.16654   0.29084   0.25036   0.00000  Uiso   1.00
C46    C     0.29879   0.14176   0.28501   0.00000  Uiso   1.00
H47    H     0.27218   0.12184   0.31298   0.00000  Uiso   1.00
C48    C     0.01341   0.14180   0.28503   0.00000  Uiso   1.00
H49    H     0.02315   0.12193   0.31302   0.00000  Uiso   1.00
N50    N     0.04760   0.16668   0.25001   0.00000  Uiso   1.00
C51    C     0.03451   0.19162   0.21508   0.00000  Uiso   1.00
H52    H     0.06111   0.21159   0.18715   0.00000  Uiso   1.00
C53    C     0.31989   0.19159   0.21506   0.00000  Uiso   1.00
H54    H     0.31013   0.21150   0.18712   0.00000  Uiso   1.00
N55    N     0.28573   0.16665   0.25001   0.00000  Uiso   1.00
N56    N     0.27195   0.24533   0.40392   0.00000  Uiso   1.00
O57    O     0.29140   0.24122   0.35162   0.00000  Uiso   1.00
O58    O     0.28493   0.27652   0.42734   0.00000  Uiso   1.00
O59    O     0.46179   0.22775   0.25001   0.00000  Uiso   1.00
O60    O     0.53823   0.22774   0.25001   0.00000  Uiso   1.00
C61    C     0.49998   0.24671   0.25010   0.00000  Uiso   1.00
O62    O     0.44280   0.16666   0.32681   0.00000  Uiso   1.00
O63    O     0.51924   0.16665   0.32681   0.00000  Uiso   1.00
C64    C     0.47337   0.16924   0.35205   0.00000  Uiso   1.00
Zn65   Zn    0.44896   0.16667   0.25000   0.00000  Uiso   1.00
Zn66   Zn    0.55104   0.16666   0.25000   0.00000  Uiso   1.00
O67    O     0.46177   0.10559   0.24999   0.00000  Uiso   1.00
O68    O     0.53821   0.10558   0.25000   0.00000  Uiso   1.00
O69    O     0.48076   0.16668   0.17319   0.00000  Uiso   1.00
O70    O     0.55720   0.16667   0.17319   0.00000  Uiso   1.00
C71    C     0.49995   0.08662   0.25012   0.00000  Uiso   1.00
C72    C     0.52667   0.16694   0.14776   0.00000  Uiso   1.00
C73    C     0.59433   0.20732   0.00845   0.00000  Uiso   1.00
H74    H     0.61318   0.19816   0.07982   0.00000  Uiso   1.00
H75    H     0.62888   0.22132   0.48688   0.00000  Uiso   1.00
C76    C     0.54263   0.17334   0.08948   0.00000  Uiso   1.00
C77    C     0.40984   0.15993   0.44137   0.00000  Uiso   1.00
C78    C     0.39604   0.15750   0.49743   0.00000  Uiso   1.00
C79    C     0.42934   0.16623   0.02285   0.00000  Uiso   1.00
C80    C     0.47664   0.17973   0.49233   0.00000  Uiso   1.00
C81    C     0.48736   0.18899   0.43720   0.00000  Uiso   1.00
C82    C     0.51377   0.18386   0.01456   0.00000  Uiso   1.00
C83    C     0.55772   0.20440   0.48526   0.00000  Uiso   1.00
C84    C     0.56394   0.22074   0.43344   0.00000  Uiso   1.00
C85    C     0.52906   0.21246   0.40986   0.00000  Uiso   1.00
C86    C     0.50880   0.16621   0.06457   0.00000  Uiso   1.00
C87    C     0.58625   0.19284   0.06098   0.00000  Uiso   1.00
C88    C     0.45604   0.17426   0.41084   0.00000  Uiso   1.00
H89    H     0.47786   0.14735   0.08589   0.00000  Uiso   1.00
H90    H     0.38484   0.14967   0.42186   0.00000  Uiso   1.00
H91    H     0.41684   0.16323   0.06644   0.00000  Uiso   1.00
H92    H     0.36012   0.14708   0.02107   0.00000  Uiso   1.00
H93    H     0.53414   0.22591   0.37044   0.00000  Uiso   1.00
C94    C     0.53554   0.31195   0.26391   0.00000  Uiso   1.00
H95    H     0.56307   0.29562   0.27482   0.00000  Uiso   1.00
C96    C     0.53555   0.02127   0.26388   0.00000  Uiso   1.00
H97    H     0.56310   0.03753   0.27474   0.00000  Uiso   1.00
C98    C     0.49987   0.04247   0.25035   0.00000  Uiso   1.00
C99    C     0.46410   0.02135   0.23704   0.00000  Uiso   1.00
H100   H     0.43653   0.03765   0.22619   0.00000  Uiso   1.00
C101   C     0.46411   0.31204   0.23702   0.00000  Uiso   1.00
H102   H     0.43656   0.29580   0.22615   0.00000  Uiso   1.00
C103   C     0.49988   0.29084   0.25036   0.00000  Uiso   1.00
C104   C     0.63212   0.14176   0.28501   0.00000  Uiso   1.00
H105   H     0.60551   0.12184   0.31298   0.00000  Uiso   1.00
C106   C     0.34675   0.14180   0.28503   0.00000  Uiso   1.00
H107   H     0.35649   0.12193   0.31302   0.00000  Uiso   1.00
N108   N     0.38093   0.16668   0.25001   0.00000  Uiso   1.00
C109   C     0.36785   0.19162   0.21508   0.00000  Uiso   1.00
H110   H     0.39444   0.21159   0.18715   0.00000  Uiso   1.00
C111   C     0.65322   0.19159   0.21506   0.00000  Uiso   1.00
H112   H     0.64346   0.21150   0.18712   0.00000  Uiso   1.00
N113   N     0.61906   0.16665   0.25001   0.00000  Uiso   1.00
N114   N     0.60529   0.24533   0.40392   0.00000  Uiso   1.00
O115   O     0.62473   0.24122   0.35162   0.00000  Uiso   1.00
O116   O     0.61827   0.27652   0.42734   0.00000  Uiso   1.00
O117   O     0.79512   0.22775   0.25001   0.00000  Uiso   1.00
O118   O     0.87157   0.22774   0.25001   0.00000  Uiso   1.00
C119   C     0.83331   0.24671   0.25010   0.00000  Uiso   1.00
O120   O     0.77613   0.16666   0.32681   0.00000  Uiso   1.00
O121   O     0.85258   0.16665   0.32681   0.00000  Uiso   1.00
C122   C     0.80670   0.16924   0.35205   0.00000  Uiso   1.00
Zn123  Zn    0.78229   0.16667   0.25000   0.00000  Uiso   1.00
Zn124  Zn    0.88438   0.16666   0.25000   0.00000  Uiso   1.00
O125   O     0.79510   0.10559   0.24999   0.00000  Uiso   1.00
O126   O     0.87154   0.10558   0.25000   0.00000  Uiso   1.00
O127   O     0.81409   0.16668   0.17319   0.00000  Uiso   1.00
O128   O     0.89053   0.16667   0.17319   0.00000  Uiso   1.00
C129   C     0.83329   0.08662   0.25012   0.00000  Uiso   1.00
C130   C     0.86001   0.16694   0.14776   0.00000  Uiso   1.00
C131   C     0.92766   0.20732   0.00845   0.00000  Uiso   1.00
H132   H     0.94651   0.19816   0.07982   0.00000  Uiso   1.00
H133   H     0.96221   0.22132   0.48688   0.00000  Uiso   1.00
C134   C     0.87596   0.17334   0.08948   0.00000  Uiso   1.00
C135   C     0.74317   0.15993   0.44137   0.00000  Uiso   1.00
C136   C     0.72937   0.15750   0.49743   0.00000  Uiso   1.00
C137   C     0.76267   0.16623   0.02285   0.00000  Uiso   1.00
C138   C     0.80997   0.17973   0.49233   0.00000  Uiso   1.00
C139   C     0.82069   0.18899   0.43720   0.00000  Uiso   1.00
C140   C     0.84710   0.18386   0.01456   0.00000  Uiso   1.00
C141   C     0.89105   0.20440   0.48526   0.00000  Uiso   1.00
C142   C     0.89727   0.22074   0.43344   0.00000  Uiso   1.00
C143   C     0.86240   0.21246   0.40986   0.00000  Uiso   1.00
C144   C     0.84213   0.16621   0.06457   0.00000  Uiso   1.00
C145   C     0.91958   0.19284   0.06098   0.00000  Uiso   1.00
C146   C     0.78937   0.17426   0.41084   0.00000  Uiso   1.00
H147   H     0.81119   0.14735   0.08589   0.00000  Uiso   1.00
H148   H     0.71817   0.14967   0.42186   0.00000  Uiso   1.00
H149   H     0.75017   0.16323   0.06644   0.00000  Uiso   1.00
H150   H     0.69345   0.14708   0.02107   0.00000  Uiso   1.00
H151   H     0.86747   0.22591   0.37044   0.00000  Uiso   1.00
C152   C     0.86887   0.31195   0.26391   0.00000  Uiso   1.00
H153   H     0.89640   0.29562   0.27482   0.00000  Uiso   1.00
C154   C     0.86888   0.02127   0.26388   0.00000  Uiso   1.00
H155   H     0.89643   0.03753   0.27474   0.00000  Uiso   1.00
C156   C     0.83321   0.04247   0.25035   0.00000  Uiso   1.00
C157   C     0.79743   0.02135   0.23704   0.00000  Uiso   1.00
H158   H     0.76986   0.03765   0.22619   0.00000  Uiso   1.00
C159   C     0.79744   0.31204   0.23702   0.00000  Uiso   1.00
H160   H     0.76989   0.29580   0.22615   0.00000  Uiso   1.00
C161   C     0.83321   0.29084   0.25036   0.00000  Uiso   1.00
C162   C     0.96545   0.14176   0.28501   0.00000  Uiso   1.00
H163   H     0.93884   0.12184   0.31298   0.00000  Uiso   1.00
C164   C     0.68008   0.14180   0.28503   0.00000  Uiso   1.00
H165   H     0.68982   0.12193   0.31302   0.00000  Uiso   1.00
N166   N     0.71426   0.16668   0.25001   0.00000  Uiso   1.00
C167   C     0.70118   0.19162   0.21508   0.00000  Uiso   1.00
H168   H     0.72778   0.21159   0.18715   0.00000  Uiso   1.00
C169   C     0.98655   0.19159   0.21506   0.00000  Uiso   1.00
H170   H     0.97680   0.21150   0.18712   0.00000  Uiso   1.00
N171   N     0.95239   0.16665   0.25001   0.00000  Uiso   1.00
N172   N     0.93862   0.24533   0.40392   0.00000  Uiso   1.00
O173   O     0.95806   0.24122   0.35162   0.00000  Uiso   1.00
O174   O     0.95160   0.27652   0.42734   0.00000  Uiso   1.00
O175   O     0.12846   0.56108   0.25001   0.00000  Uiso   1.00
O176   O     0.20490   0.56107   0.25001   0.00000  Uiso   1.00
C177   C     0.16665   0.58004   0.25010   0.00000  Uiso   1.00
O178   O     0.10947   0.50000   0.32681   0.00000  Uiso   1.00
O179   O     0.18591   0.49999   0.32681   0.00000  Uiso   1.00
C180   C     0.14003   0.50257   0.35205   0.00000  Uiso   1.00
Zn181  Zn    0.11562   0.50001   0.25000   0.00000  Uiso   1.00
Zn182  Zn    0.21771   0.49999   0.25000   0.00000  Uiso   1.00
O183   O     0.12843   0.43893   0.24999   0.00000  Uiso   1.00
O184   O     0.20488   0.43892   0.25000   0.00000  Uiso   1.00
O185   O     0.14742   0.50001   0.17319   0.00000  Uiso   1.00
O186   O     0.22387   0.50000   0.17319   0.00000  Uiso   1.00
C187   C     0.16662   0.41996   0.25012   0.00000  Uiso   1.00
C188   C     0.19334   0.50028   0.14776   0.00000  Uiso   1.00
C189   C     0.26099   0.54065   0.00845   0.00000  Uiso   1.00
H190   H     0.27984   0.53149   0.07982   0.00000  Uiso   1.00
H191   H     0.29554   0.55465   0.48688   0.00000  Uiso   1.00
C192   C     0.20929   0.50668   0.08948   0.00000  Uiso   1.00
C193   C     0.07650   0.49326   0.44137   0.00000  Uiso   1.00
C194   C     0.06271   0.49084   0.49743   0.00000  Uiso   1.00
C195   C     0.09601   0.49956   0.02285   0.00000  Uiso   1.00
C196   C     0.14330   0.51306   0.49233   0.00000  Uiso   1.00
C197   C     0.15403   0.52233   0.43720   0.00000  Uiso   1.00
C198   C     0.18043   0.51719   0.01456   0.00000  Uiso   1.00
C199   C     0.22438   0.53773   0.48526   0.00000  Uiso   1.00
C200   C     0.23060   0.55408   0.43344   0.00000  Uiso   1.00
C201   C     0.19573   0.54579   0.40986   0.00000  Uiso   1.00
C202   C     0.17547   0.49954   0.06457   0.00000  Uiso   1.00
C203   C     0.25292   0.52617   0.06098   0.00000  Uiso   1.00
C204   C     0.12270   0.50759   0.41084   0.00000  Uiso   1.00
H205   H     0.14452   0.48068   0.08589   0.00000  Uiso   1.00
H206   H     0.05151   0.48300   0.42186   0.00000  Uiso   1.00
H207   H     0.08351   0.49656   0.06644   0.00000  Uiso   1.00
H208   H     0.02678   0.48042   0.02107   0.00000  Uiso   1.00
H209   H     0.20080   0.55924   0.37044   0.00000  Uiso   1.00
C210   C     0.20220   0.64528   0.26391   0.00000  Uiso   1.00
H211   H     0.22973   0.62896   0.27482   0.00000  Uiso   1.00
C212   C     0.20222   0.35460   0.26388   0.00000  Uiso   1.00
H213   H     0.22977   0.37086   0.27474   0.00000  Uiso   1.00
C214   C     0.16654   0.37581   0.25035   0.00000  Uiso   1.00
C215   C     0.13077   0.35468   0.23704   0.00000  Uiso   1.00
H216   H     0.10320   0.37098   0.22619   0.00000  Uiso   1.00
C217   C     0.13078   0.64538   0.23702   0.00000  Uiso   1.00
H218   H     0.10322   0.62914   0.22615   0.00000  Uiso   1.00
C219   C     0.16654   0.62417   0.25036   0.00000  Uiso   1.00
C220   C     0.29879   0.47510   0.28501   0.00000  Uiso   1.00
H221   H     0.27218   0.45517   0.31298   0.00000  Uiso   1.00
C222   C     0.01341   0.47513   0.28503   0.00000  Uiso   1.00
H223   H     0.02315   0.45526   0.31302   0.00000  Uiso   1.00
N224   N     0.04760   0.50001   0.25001   0.00000  Uiso   1.00
C225   C     0.03451   0.52495   0.21508   0.00000  Uiso   1.00
H226   H     0.06111   0.54492   0.18715   0.00000  Uiso   1.00
C227   C     0.31989   0.52492   0.21506   0.00000  Uiso   1.00
H228   H     0.31013   0.54483   0.18712   0.00000  Uiso   1.00
N229   N     0.28573   0.49998   0.25001   0.00000  Uiso   1.00
N230   N     0.27195   0.57866   0.40392   0.00000  Uiso   1.00
O231   O     0.29140   0.57456   0.35162   0.00000  Uiso   1.00
O232   O     0.28493   0.60986   0.42734   0.00000  Uiso   1.00
O233   O     0.46179   0.56108   0.25001   0.00000  Uiso   1.00
O234   O     0.53823   0.56107   0.25001   0.00000  Uiso   1.00
C235   C     0.49998   0.58004   0.25010   0.00000  Uiso   1.00
O236   O     0.44280   0.50000   0.32681   0.00000  Uiso   1.00
O237   O     0.51924   0.49999   0.32681   0.00000  Uiso   1.00
C238   C     0.47337   0.50257   0.35205   0.00000  Uiso   1.00
Zn239  Zn    0.44896   0.50001   0.25000   0.00000  Uiso   1.00
Zn240  Zn    0.55104   0.49999   0.25000   0.00000  Uiso   1.00
O241   O     0.46177   0.43893   0.24999   0.00000  Uiso   1.00
O242   O     0.53821   0.43892   0.25000   0.00000  Uiso   1.00
O243   O     0.48076   0.50001   0.17319   0.00000  Uiso   1.00
O244   O     0.55720   0.50000   0.17319   0.00000  Uiso   1.00
C245   C     0.49995   0.41996   0.25012   0.00000  Uiso   1.00
C246   C     0.52667   0.50028   0.14776   0.00000  Uiso   1.00
C247   C     0.59433   0.54065   0.00845   0.00000  Uiso   1.00
H248   H     0.61318   0.53149   0.07982   0.00000  Uiso   1.00
H249   H     0.62888   0.55465   0.48688   0.00000  Uiso   1.00
C250   C     0.54263   0.50668   0.08948   0.00000  Uiso   1.00
C251   C     0.40984   0.49326   0.44137   0.00000  Uiso   1.00
C252   C     0.39604   0.49084   0.49743   0.00000  Uiso   1.00
C253   C     0.42934   0.49956   0.02285   0.00000  Uiso   1.00
C254   C     0.47664   0.51306   0.49233   0.00000  Uiso   1.00
C255   C     0.48736   0.52233   0.43720   0.00000  Uiso   1.00
C256   C     0.51377   0.51719   0.01456   0.00000  Uiso   1.00
C257   C     0.55772   0.53773   0.48526   0.00000  Uiso   1.00
C258   C     0.56394   0.55408   0.43344   0.00000  Uiso   1.00
C259   C     0.52906   0.54579   0.40986   0.00000  Uiso   1.00
C260   C     0.50880   0.49954   0.06457   0.00000  Uiso   1.00
C261   C     0.58625   0.52617   0.06098   0.00000  Uiso   1.00
C262   C     0.45604   0.50759   0.41084   0.00000  Uiso   1.00
H263   H     0.47786   0.48068   0.08589   0.00000  Uiso   1.00
H264   H     0.38484   0.48300   0.42186   0.00000  Uiso   1.00
H265   H     0.41684   0.49656   0.06644   0.00000  Uiso   1.00
H266   H     0.36012   0.48042   0.02107   0.00000  Uiso   1.00
H267   H     0.53414   0.55924   0.37044   0.00000  Uiso   1.00
C268   C     0.53554   0.64528   0.26391   0.00000  Uiso   1.00
H269   H     0.56307   0.62896   0.27482   0.00000  Uiso   1.00
C270   C     0.53555   0.35460   0.26388   0.00000  Uiso   1.00
H271   H     0.56310   0.37086   0.27474   0.00000  Uiso   1.00
C272   C     0.49987   0.37581   0.25035   0.00000  Uiso   1.00
C273   C     0.46410   0.35468   0.23704   0.00000  Uiso   1.00
H274   H     0.43653   0.37098   0.22619   0.00000  Uiso   1.00
C275   C     0.46411   0.64538   0.23702   0.00000  Uiso   1.00
H276   H     0.43656   0.62914   0.22615   0.00000  Uiso   1.00
C277   C     0.49988   0.62417   0.25036   0.00000  Uiso   1.00
C278   C     0.63212   0.47510   0.28501   0.00000  Uiso   1.00
H279   H     0.60551   0.45517   0.31298   0.00000  Uiso   1.00
C280   C     0.34675   0.47513   0.28503   0.00000  Uiso   1.00
H281   H     0.35649   0.45526   0.31302   0.00000  Uiso   1.00
N282   N     0.38093   0.50001   0.25001   0.00000  Uiso   1.00
C283   C     0.36785   0.52495   0.21508   0.00000  Uiso   1.00
H284   H     0.39444   0.54492   0.18715   0.00000  Uiso   1.00
C285   C     0.65322   0.52492   0.21506   0.00000  Uiso   1.00
H286   H     0.64346   0.54483   0.18712   0.00000  Uiso   1.00
N287   N     0.61906   0.49998   0.25001   0.00000  Uiso   1.00
N288   N     0.60529   0.57866   0.40392   0.00000  Uiso   1.00
O289   O     0.62473   0.57456   0.35162   0.00000  Uiso   1.00
O290   O     0.61827   0.60986   0.42734   0.00000  Uiso   1.00
O291   O     0.79512   0.56108   0.25001   0.00000  Uiso   1.00
O292   O     0.87157   0.56107   0.25001   0.00000  Uiso   1.00
C293   C     0.83331   0.58004   0.25010   0.00000  Uiso   1.00
O294   O     0.77613   0.50000   0.32681   0.00000  Uiso   1.00
O295   O     0.85258   0.49999   0.32681   0.00000  Uiso   1.00
C296   C     0.80670   0.50257   0.35205   0.00000  Uiso   1.00
Zn297  Zn    0.78229   0.50001   0.25000   0.00000  Uiso   1.00
Zn298  Zn    0.88438   0.49999   0.25000   0.00000  Uiso   1.00
O299   O     0.79510   0.43893   0.24999   0.00000  Uiso   1.00
O300   O     0.87154   0.43892   0.25000   0.00000  Uiso   1.00
O301   O     0.81409   0.50001   0.17319   0.00000  Uiso   1.00
O302   O     0.89053   0.50000   0.17319   0.00000  Uiso   1.00
C303   C     0.83329   0.41996   0.25012   0.00000  Uiso   1.00
C304   C     0.86001   0.50028   0.14776   0.00000  Uiso   1.00
C305   C     0.92766   0.54065   0.00845   0.00000  Uiso   1.00
H306   H     0.94651   0.53149   0.07982   0.00000  Uiso   1.00
H307   H     0.96221   0.55465   0.48688   0.00000  Uiso   1.00
C308   C     0.87596   0.50668   0.08948   0.00000  Uiso   1.00
C309   C     0.74317   0.49326   0.44137   0.00000  Uiso   1.00
C310   C     0.72937   0.49084   0.49743   0.00000  Uiso   1.00
C311   C     0.76267   0.49956   0.02285   0.00000  Uiso   1.00
C312   C     0.80997   0.51306   0.49233   0.00000  Uiso   1.00
C313   C     0.82069   0.52233   0.43720   0.00000  Uiso   1.00
C314   C     0.84710   0.51719   0.01456   0.00000  Uiso   1.00
C315   C     0.89105   0.53773   0.48526   0.00000  Uiso   1.00
C316   C     0.89727   0.55408   0.43344   0.00000  Uiso   1.00
C317   C     0.86240   0.54579   0.40986   0.00000  Uiso   1.00
C318   C     0.84213   0.49954   0.06457   0.00000  Uiso   1.00
C319   C     0.91958   0.52617   0.06098   0.00000  Uiso   1.00
C320   C     0.78937   0.50759   0.41084   0.00000  Uiso   1.00
H321   H     0.81119   0.48068   0.08589   0.00000  Uiso   1.00
H322   H     0.71817   0.48300   0.42186   0.00000  Uiso   1.00
H323   H     0.75017   0.49656   0.06644   0.00000  Uiso   1.00
H324   H     0.69345   0.48042   0.02107   0.00000  Uiso   1.00
H325   H     0.86747   0.55924   0.37044   0.00000  Uiso   1.00
C326   C     0.86887   0.64528   0.26391   0.00000  Uiso   1.00
H327   H     0.89640   0.62896   0.27482   0.00000  Uiso   1.00
C328   C     0.86888   0.35460   0.26388   0.00000  Uiso   1.00
H329   H     0.89643   0.37086   0.27474   0.00000  Uiso   1.00
C330   C     0.83321   0.37581   0.25035   0.00000  Uiso   1.00
C331   C     0.79743   0.35468   0.23704   0.00000  Uiso   1.00
H332   H     0.76986   0.37098   0.22619   0.00000  Uiso   1.00
C333   C     0.79744   0.64538   0.23702   0.00000  Uiso   1.00
H334   H     0.76989   0.62914   0.22615   0.00000  Uiso   1.00
C335   C     0.83321   0.62417   0.25036   0.00000  Uiso   1.00
C336   C     0.96545   0.47510   0.28501   0.00000  Uiso   1.00
H337   H     0.93884   0.45517   0.31298   0.00000  Uiso   1.00
C338   C     0.68008   0.47513   0.28503   0.00000  Uiso   1.00
H339   H     0.68982   0.45526   0.31302   0.00000  Uiso   1.00
N340   N     0.71426   0.50001   0.25001   0.00000  Uiso   1.00
C341   C     0.70118   0.52495   0.21508   0.00000  Uiso   1.00
H342   H     0.72778   0.54492   0.18715   0.00000  Uiso   1.00
C343   C     0.98655   0.52492   0.21506   0.00000  Uiso   1.00
H344   H     0.97680   0.54483   0.18712   0.00000  Uiso   1.00
N345   N     0.95239   0.49998   0.25001   0.00000  Uiso   1.00
N346   N     0.93862   0.57866   0.40392   0.00000  Uiso   1.00
O347   O     0.95806   0.57456   0.35162   0.00000  Uiso   1.00
O348   O     0.95160   0.60986   0.42734   0.00000  Uiso   1.00
O349   O     0.12846   0.89442   0.25001   0.00000  Uiso   1.00
O350   O     0.20490   0.89441   0.25001   0.00000  Uiso   1.00
C351   C     0.16665   0.91337   0.25010   0.00000  Uiso   1.00
O352   O     0.10947   0.83333   0.32681   0.00000  Uiso   1.00
O353   O     0.18591   0.83332   0.32681   0.00000  Uiso   1.00
C354   C     0.14003   0.83591   0.35205   0.00000  Uiso   1.00
Zn355  Zn    0.11562   0.83334   0.25000   0.00000  Uiso   1.00
Zn356  Zn    0.21771   0.83333   0.25000   0.00000  Uiso   1.00
O357   O     0.12843   0.77226   0.24999   0.00000  Uiso   1.00
O358   O     0.20488   0.77225   0.25000   0.00000  Uiso   1.00
O359   O     0.14742   0.83335   0.17319   0.00000  Uiso   1.00
O360   O     0.22387   0.83334   0.17319   0.00000  Uiso   1.00
C361   C     0.16662   0.75329   0.25012   0.00000  Uiso   1.00
C362   C     0.19334   0.83361   0.14776   0.00000  Uiso   1.00
C363   C     0.26099   0.87398   0.00845   0.00000  Uiso   1.00
H364   H     0.27984   0.86482   0.07982   0.00000  Uiso   1.00
H365   H     0.29554   0.88798   0.48688   0.00000  Uiso   1.00
C366   C     0.20929   0.84001   0.08948   0.00000  Uiso   1.00
C367   C     0.07650   0.82660   0.44137   0.00000  Uiso   1.00
C368   C     0.06271   0.82417   0.49743   0.00000  Uiso   1.00
C369   C     0.09601   0.83290   0.02285   0.00000  Uiso   1.00
C370   C     0.14330   0.84640   0.49233   0.00000  Uiso   1.00
C371   C     0.15403   0.85566   0.43720   0.00000  Uiso   1.00
C372   C     0.18043   0.85052   0.01456   0.00000  Uiso   1.00
C373   C     0.22438   0.87106   0.48526   0.00000  Uiso   1.00
C374   C     0.23060   0.88741   0.43344   0.00000  Uiso   1.00
C375   C     0.19573   0.87913   0.40986   0.00000  Uiso   1.00
C376   C     0.17547   0.83288   0.06457   0.00000  Uiso   1.00
C377   C     0.25292   0.85951   0.06098   0.00000  Uiso   1.00
C378   C     0.12270   0.84092   0.41084   0.00000  Uiso   1.00
H379   H     0.14452   0.81402   0.08589   0.00000  Uiso   1.00
H380   H     0.05151   0.81634   0.42186   0.00000  Uiso   1.00
H381   H     0.08351   0.82990   0.06644   0.00000  Uiso   1.00
H382   H     0.02678   0.81375   0.02107   0.00000  Uiso   1.00
H383   H     0.20080   0.89257   0.37044   0.00000  Uiso   1.00
C384   C     0.20220   0.97862   0.26391   0.00000  Uiso   1.00
H385   H     0.22973   0.96229   0.27482   0.00000  Uiso   1.00
C386   C     0.20222   0.68794   0.26388   0.00000  Uiso   1.00
H387   H     0.22977   0.70419   0.27474   0.00000  Uiso   1.00
C388   C     0.16654   0.70914   0.25035   0.00000  Uiso   1.00
C389   C     0.13077   0.68801   0.23704   0.00000  Uiso   1.00
H390   H     0.10320   0.70431   0.22619   0.00000  Uiso   1.00
C391   C     0.13078   0.97871   0.23702   0.00000  Uiso   1.00
H392   H     0.10322   0.96247   0.22615   0.00000  Uiso   1.00
C393   C     0.16654   0.95751   0.25036   0.00000  Uiso   1.00
C394   C     0.29879   0.80843   0.28501   0.00000  Uiso   1.00
H395   H     0.27218   0.78850   0.31298   0.00000  Uiso   1.00
C396   C     0.01341   0.80846   0.28503   0.00000  Uiso   1.00
H397   H     0.02315   0.78859   0.31302   0.00000  Uiso   1.00
N398   N     0.04760   0.83334   0.25001   0.00000  Uiso   1.00
C399   C     0.03451   0.85829   0.21508   0.00000  Uiso   1.00
H400   H     0.06111   0.87825   0.18715   0.00000  Uiso   1.00
C401   C     0.31989   0.85825   0.21506   0.00000  Uiso   1.00
H402   H     0.31013   0.87816   0.18712   0.00000  Uiso   1.00
N403   N     0.28573   0.83331   0.25001   0.00000  Uiso   1.00
N404   N     0.27195   0.91200   0.40392   0.00000  Uiso   1.00
O405   O     0.29140   0.90789   0.35162   0.00000  Uiso   1.00
O406   O     0.28493   0.94319   0.42734   0.00000  Uiso   1.00
O407   O     0.46179   0.89442   0.25001   0.00000  Uiso   1.00
O408   O     0.53823   0.89441   0.25001   0.00000  Uiso   1.00
C409   C     0.49998   0.91337   0.25010   0.00000  Uiso   1.00
O410   O     0.44280   0.83333   0.32681   0.00000  Uiso   1.00
O411   O     0.51924   0.83332   0.32681   0.00000  Uiso   1.00
C412   C     0.47337   0.83591   0.35205   0.00000  Uiso   1.00
Zn413  Zn    0.44896   0.83334   0.25000   0.00000  Uiso   1.00
Zn414  Zn    0.55104   0.83333   0.25000   0.00000  Uiso   1.00
O415   O     0.46177   0.77226   0.24999   0.00000  Uiso   1.00
O416   O     0.53821   0.77225   0.25000   0.00000  Uiso   1.00
O417   O     0.48076   0.83335   0.17319   0.00000  Uiso   1.00
O418   O     0.55720   0.83334   0.17319   0.00000  Uiso   1.00
C419   C     0.49995   0.75329   0.25012   0.00000  Uiso   1.00
C420   C     0.52667   0.83361   0.14776   0.00000  Uiso   1.00
C421   C     0.59433   0.87398   0.00845   0.00000  Uiso   1.00
H422   H     0.61318   0.86482   0.07982   0.00000  Uiso   1.00
H423   H     0.62888   0.88798   0.48688   0.00000  Uiso   1.00
C424   C     0.54263   0.84001   0.08948   0.00000  Uiso   1.00
C425   C     0.40984   0.82660   0.44137   0.00000  Uiso   1.00
C426   C     0.39604   0.82417   0.49743   0.00000  Uiso   1.00
C427   C     0.42934   0.83290   0.02285   0.00000  Uiso   1.00
C428   C     0.47664   0.84640   0.49233   0.00000  Uiso   1.00
C429   C     0.48736   0.85566   0.43720   0.00000  Uiso   1.00
C430   C     0.51377   0.85052   0.01456   0.00000  Uiso   1.00
C431   C     0.55772   0.87106   0.48526   0.00000  Uiso   1.00
C432   C     0.56394   0.88741   0.43344   0.00000  Uiso   1.00
C433   C     0.52906   0.87913   0.40986   0.00000  Uiso   1.00
C434   C     0.50880   0.83288   0.06457   0.00000  Uiso   1.00
C435   C     0.58625   0.85951   0.06098   0.00000  Uiso   1.00
C436   C     0.45604   0.84092   0.41084   0.00000  Uiso   1.00
H437   H     0.47786   0.81402   0.08589   0.00000  Uiso   1.00
H438   H     0.38484   0.81634   0.42186   0.00000  Uiso   1.00
H439   H     0.41684   0.82990   0.06644   0.00000  Uiso   1.00
H440   H     0.36012   0.81375   0.02107   0.00000  Uiso   1.00
H441   H     0.53414   0.89257   0.37044   0.00000  Uiso   1.00
C442   C     0.53554   0.97862   0.26391   0.00000  Uiso   1.00
H443   H     0.56307   0.96229   0.27482   0.00000  Uiso   1.00
C444   C     0.53555   0.68794   0.26388   0.00000  Uiso   1.00
H445   H     0.56310   0.70419   0.27474   0.00000  Uiso   1.00
C446   C     0.49987   0.70914   0.25035   0.00000  Uiso   1.00
C447   C     0.46410   0.68801   0.23704   0.00000  Uiso   1.00
H448   H     0.43653   0.70431   0.22619   0.00000  Uiso   1.00
C449   C     0.46411   0.97871   0.23702   0.00000  Uiso   1.00
H450   H     0.43656   0.96247   0.22615   0.00000  Uiso   1.00
C451   C     0.49988   0.95751   0.25036   0.00000  Uiso   1.00
C452   C     0.63212   0.80843   0.28501   0.00000  Uiso   1.00
H453   H     0.60551   0.78850   0.31298   0.00000  Uiso   1.00
C454   C     0.34675   0.80846   0.28503   0.00000  Uiso   1.00
H455   H     0.35649   0.78859   0.31302   0.00000  Uiso   1.00
N456   N     0.38093   0.83334   0.25001   0.00000  Uiso   1.00
C457   C     0.36785   0.85829   0.21508   0.00000  Uiso   1.00
H458   H     0.39444   0.87825   0.18715   0.00000  Uiso   1.00
C459   C     0.65322   0.85825   0.21506   0.00000  Uiso   1.00
H460   H     0.64346   0.87816   0.18712   0.00000  Uiso   1.00
N461   N     0.61906   0.83331   0.25001   0.00000  Uiso   1.00
N462   N     0.60529   0.91200   0.40392   0.00000  Uiso   1.00
O463   O     0.62473   0.90789   0.35162   0.00000  Uiso   1.00
O464   O     0.61827   0.94319   0.42734   0.00000  Uiso   1.00
O465   O     0.79512   0.89442   0.25001   0.00000  Uiso   1.00
O466   O     0.87157   0.89441   0.25001   0.00000  Uiso   1.00
C467   C     0.83331   0.91337   0.25010   0.00000  Uiso   1.00
O468   O     0.77613   0.83333   0.32681   0.00000  Uiso   1.00
O469   O     0.85258   0.83332   0.32681   0.00000  Uiso   1.00
C470   C     0.80670   0.83591   0.35205   0.00000  Uiso   1.00
Zn471  Zn    0.78229   0.83334   0.25000   0.00000  Uiso   1.00
Zn472  Zn    0.88438   0.83333   0.25000   0.00000  Uiso   1.00
O473   O     0.79510   0.77226   0.24999   0.00000  Uiso   1.00
O474   O     0.87154   0.77225   0.25000   0.00000  Uiso   1.00
O475   O     0.81409   0.83335   0.17319   0.00000  Uiso   1.00
O476   O     0.89053   0.83334   0.17319   0.00000  Uiso   1.00
C477   C     0.83329   0.75329   0.25012   0.00000  Uiso   1.00
C478   C     0.86001   0.83361   0.14776   0.00000  Uiso   1.00
C479   C     0.92766   0.87398   0.00845   0.00000  Uiso   1.00
H480   H     0.94651   0.86482   0.07982   0.00000  Uiso   1.00
H481   H     0.96221   0.88798   0.48688   0.00000  Uiso   1.00
C482   C     0.87596   0.84001   0.08948   0.00000  Uiso   1.00
C483   C     0.74317   0.82660   0.44137   0.00000  Uiso   1.00
C484   C     0.72937   0.82417   0.49743   0.00000  Uiso   1.00
C485   C     0.76267   0.83290   0.02285   0.00000  Uiso   1.00
C486   C     0.80997   0.84640   0.49233   0.00000  Uiso   1.00
C487   C     0.82069   0.85566   0.43720   0.00000  Uiso   1.00
C488   C     0.84710   0.85052   0.01456   0.00000  Uiso   1.00
C489   C     0.89105   0.87106   0.48526   0.00000  Uiso   1.00
C490   C     0.89727   0.88741   0.43344   0.00000  Uiso   1.00
C491   C     0.86240   0.87913   0.40986   0.00000  Uiso   1.00
C492   C     0.84213   0.83288   0.06457   0.00000  Uiso   1.00
C493   C     0.91958   0.85951   0.06098   0.00000  Uiso   1.00
C494   C     0.78937   0.84092   0.41084   0.00000  Uiso   1.00
H495   H     0.81119   0.81402   0.08589   0.00000  Uiso   1.00
H496   H     0.71817   0.81634   0.42186   0.00000  Uiso   1.00
H497   H     0.75017   0.82990   0.06644   0.00000  Uiso   1.00
H498   H     0.69345   0.81375   0.02107   0.00000  Uiso   1.00
H499   H     0.86747   0.89257   0.37044   0.00000  Uiso   1.00
C500   C     0.86887   0.97862   0.26391   0.00000  Uiso   1.00
H501   H     0.89640   0.96229   0.27482   0.00000  Uiso   1.00
C502   C     0.86888   0.68794   0.26388   0.00000  Uiso   1.00
H503   H     0.89643   0.70419   0.27474   0.00000  Uiso   1.00
C504   C     0.83321   0.70914   0.25035   0.00000  Uiso   1.00
C505   C     0.79743   0.68801   0.23704   0.00000  Uiso   1.00
H506   H     0.76986   0.70431   0.22619   0.00000  Uiso   1.00
C507   C     0.79744   0.97871   0.23702   0.00000  Uiso   1.00
H508   H     0.76989   0.96247   0.22615   0.00000  Uiso   1.00
C509   C     0.83321   0.95751   0.25036   0.00000  Uiso   1.00
C510   C     0.96545   0.80843   0.28501   0.00000  Uiso   1.00
H511   H     0.93884   0.78850   0.31298   0.00000  Uiso   1.00
C512   C     0.68008   0.80846   0.28503   0.00000  Uiso   1.00
H513   H     0.68982   0.78859   0.31302   0.00000  Uiso   1.00
N514   N     0.71426   0.83334   0.25001   0.00000  Uiso   1.00
C515   C     0.70118   0.85829   0.21508   0.00000  Uiso   1.00
H516   H     0.72778   0.87825   0.18715   0.00000  Uiso   1.00
C517   C     0.98655   0.85825   0.21506   0.00000  Uiso   1.00
H518   H     0.97680   0.87816   0.18712   0.00000  Uiso   1.00
N519   N     0.95239   0.83331   0.25001   0.00000  Uiso   1.00
N520   N     0.93862   0.91200   0.40392   0.00000  Uiso   1.00
O521   O     0.95806   0.90789   0.35162   0.00000  Uiso   1.00
O522   O     0.95160   0.94319   0.42734   0.00000  Uiso   1.00
O523   O     0.12846   0.22775   0.75001   0.00000  Uiso   1.00
O524   O     0.20490   0.22774   0.75001   0.00000  Uiso   1.00
C525   C     0.16665   0.24671   0.75010   0.00000  Uiso   1.00
O526   O     0.10947   0.16666   0.82681   0.00000  Uiso   1.00
O527   O     0.18591   0.16665   0.82681   0.00000  Uiso   1.00
C528   C     0.14003   0.16924   0.85205   0.00000  Uiso   1.00
Zn529  Zn    0.11562   0.16667   0.75000   0.00000  Uiso   1.00
Zn530  Zn    0.21771   0.16666   0.75000   0.00000  Uiso   1.00
O531   O     0.12843   0.10559   0.74999   0.00000  Uiso   1.00
O532   O     0.20488   0.10558   0.75000   0.00000  Uiso   1.00
O533   O     0.14742   0.16668   0.67319   0.00000  Uiso   1.00
O534   O     0.22387   0.16667   0.67319   0.00000  Uiso   1.00
C535   C     0.16662   0.08662   0.75012   0.00000  Uiso   1.00
C536   C     0.19334   0.16694   0.64776   0.00000  Uiso   1.00
C537   C     0.26099   0.20732   0.50845   0.00000  Uiso   1.00
H538   H     0.27984   0.19816   0.57982   0.00000  Uiso   1.00
H539   H     0.29554   0.22132   0.98688   0.00000  Uiso   1.00
C540   C     0.20929   0.17334   0.58948   0.00000  Uiso   1.00
C541   C     0.07650   0.15993   0.94137   0.00000  Uiso   1.00
C542   C     0.06271   0.15750   0.99743   0.00000  Uiso   1.00
C543   C     0.09601   0.16623   0.52285   0.00000  Uiso   1.00
C544   C     0.14330   0.17973   0.99233   0.00000  Uiso   1.00
C545   C     0.15403   0.18899   0.93720   0.00000  Uiso   1.00
C546   C     0.18043   0.18386   0.51456   0.00000  Uiso   1.00
C547   C     0.22438   0.20440   0.98526   0.00000  Uiso   1.00
C548   C     0.23060   0.22074   0.93344   0.00000  Uiso   1.00
C549   C     0.19573   0.21246   0.90986   0.00000  Uiso   1.00
C550   C     0.17547   0.16621   0.56457   0.00000  Uiso   1.00
C551   C     0.25292   0.19284   0.56098   0.00000  Uiso   1.00
C552   C     0.12270   0.17426   0.91084   0.00000  Uiso   1.00
H553   H     0.14452   0.14735   0.58589   0.00000  Uiso   1.00
H554   H     0.05151   0.14967   0.92186   0.00000  Uiso   1.00
H555   H     0.08351   0.16323   0.56644   0.00000  Uiso   1.00
H556   H     0.02678   0.14708   0.52107   0.00000  Uiso   1.00
H557   H     0.20080   0.22591   0.87044   0.00000  Uiso   1.00
C558   C     0.20220   0.31195   0.76391   0.00000  Uiso   1.00
H559   H     0.22973   0.29562   0.77482   0.00000  Uiso   1.00
C560   C     0.20222   0.02127   0.76388   0.00000  Uiso   1.00
H561   H     0.22977   0.03753   0.77474   0.00000  Uiso   1.00
C562   C     0.16654   0.04247   0.75035   0.00000  Uiso   1.00
C563   C     0.13077   0.02135   0.73704   0.00000  Uiso   1.00
H564   H     0.10320   0.03765   0.72619   0.00000  Uiso   1.00
C565   C     0.13078   0.31204   0.73702   0.00000  Uiso   1.00
H566   H     0.10322   0.29580   0.72615   0.00000  Uiso   1.00
C567   C     0.16654   0.29084   0.75036   0.00000  Uiso   1.00
C568   C     0.29879   0.14176   0.78501   0.00000  Uiso   1.00
H569   H     0.27218   0.12184   0.81298   0.00000  Uiso   1.00
C570   C     0.01341   0.14180   0.78503   0.00000  Uiso   1.00
H571   H     0.02315   0.12193   0.81302   0.00000  Uiso   1.00
N572   N     0.04760   0.16668   0.75001   0.00000  Uiso   1.00
C573   C     0.03451   0.19162   0.71508   0.00000  Uiso   1.00
H574   H     0.06111   0.21159   0.68715   0.00000  Uiso   1.00
C575   C     0.31989   0.19159   0.71506   0.00000  Uiso   1.00
H576   H     0.31013   0.21150   0.68712   0.00000  Uiso   1.00
N577   N     0.28573   0.16665   0.75001   0.00000  Uiso   1.00
N578   N     0.27195   0.24533   0.90392   0.00000  Uiso   1.00
O579   O     0.29140   0.24122   0.85162   0.00000  Uiso   1.00
O580   O     0.28493   0.27652   0.92734   0.00000  Uiso   1.00
O581   O     0.46179   0.22775   0.75001   0.00000  Uiso   1.00
O582   O     0.53823   0.22774   0.75001   0.00000  Uiso   1.00
C583   C     0.49998   0.24671   0.75010   0.00000  Uiso   1.00
O584   O     0.44280   0.16666   0.82681   0.00000  Uiso   1.00
O585   O     0.51924   0.16665   0.82681   0.00000  Uiso   1.00
C586   C     0.47337   0.16924   0.85205   0.00000  Uiso   1.00
Zn587  Zn    0.44896   0.16667   0.75000   0.00000  Uiso   1.00
Zn588  Zn    0.55104   0.16666   0.75000   0.00000  Uiso   1.00
O589   O     0.46177   0.10559   0.74999   0.00000  Uiso   1.00
O590   O     0.53821   0.10558   0.75000   0.00000  Uiso   1.00
O591   O     0.48076   0.16668   0.67319   0.00000  Uiso   1.00
O592   O     0.55720   0.16667   0.67319   0.00000  Uiso   1.00
C593   C     0.49995   0.08662   0.75012   0.00000  Uiso   1.00
C594   C     0.52667   0.16694   0.64776   0.00000  Uiso   1.00
C595   C     0.59433   0.20732   0.50845   0.00000  Uiso   1.00
H596   H     0.61318   0.19816   0.57982   0.00000  Uiso   1.00
H597   H     0.62888   0.22132   0.98688   0.00000  Uiso   1.00
C598   C     0.54263   0.17334   0.58948   0.00000  Uiso   1.00
C599   C     0.40984   0.15993   0.94137   0.00000  Uiso   1.00
C600   C     0.39604   0.15750   0.99743   0.00000  Uiso   1.00
C601   C     0.42934   0.16623   0.52285   0.00000  Uiso   1.00
C602   C     0.47664   0.17973   0.99233   0.00000  Uiso   1.00
C603   C     0.48736   0.18899   0.93720   0.00000  Uiso   1.00
C604   C     0.51377   0.18386   0.51456   0.00000  Uiso   1.00
C605   C     0.55772   0.20440   0.98526   0.00000  Uiso   1.00
C606   C     0.56394   0.22074   0.93344   0.00000  Uiso   1.00
C607   C     0.52906   0.21246   0.90986   0.00000  Uiso   1.00
C608   C     0.50880   0.16621   0.56457   0.00000  Uiso   1.00
C609   C     0.58625   0.19284   0.56098   0.00000  Uiso   1.00
C610   C     0.45604   0.17426   0.91084   0.00000  Uiso   1.00
H611   H     0.47786   0.14735   0.58589   0.00000  Uiso   1.00
H612   H     0.38484   0.14967   0.92186   0.00000  Uiso   1.00
H613   H     0.41684   0.16323   0.56644   0.00000  Uiso   1.00
H614   H     0.36012   0.14708   0.52107   0.00000  Uiso   1.00
H615   H     0.53414   0.22591   0.87044   0.00000  Uiso   1.00
C616   C     0.53554   0.31195   0.76391   0.00000  Uiso   1.00
H617   H     0.56307   0.29562   0.77482   0.00000  Uiso   1.00
C618   C     0.53555   0.02127   0.76388   0.00000  Uiso   1.00
H619   H     0.56310   0.03753   0.77474   0.00000  Uiso   1.00
C620   C     0.49987   0.04247   0.75035   0.00000  Uiso   1.00
C621   C     0.46410   0.02135   0.73704   0.00000  Uiso   1.00
H622   H     0.43653   0.03765   0.72619   0.00000  Uiso   1.00
C623   C     0.46411   0.31204   0.73702   0.00000  Uiso   1.00
H624   H     0.43656   0.29580   0.72615   0.00000  Uiso   1.00
C625   C     0.49988   0.29084   0.75036   0.00000  Uiso   1.00
C626   C     0.63212   0.14176   0.78501   0.00000  Uiso   1.00
H627   H     0.60551   0.12184   0.81298   0.00000  Uiso   1.00
C628   C     0.34675   0.14180   0.78503   0.00000  Uiso   1.00
H629   H     0.35649   0.12193   0.81302   0.00000  Uiso   1.00
N630   N     0.38093   0.16668   0.75001   0.00000  Uiso   1.00
C631   C     0.36785   0.19162   0.71508   0.00000  Uiso   1.00
H632   H     0.39444   0.21159   0.68715   0.00000  Uiso   1.00
C633   C     0.65322   0.19159   0.71506   0.00000  Uiso   1.00
H634   H     0.64346   0.21150   0.68712   0.00000  Uiso   1.00
N635   N     0.61906   0.16665   0.75001   0.00000  Uiso   1.00
N636   N     0.60529   0.24533   0.90392   0.00000  Uiso   1.00
O637   O     0.62473   0.24122   0.85162   0.00000  Uiso   1.00
O638   O     0.61827   0.27652   0.92734   0.00000  Uiso   1.00
O639   O     0.79512   0.22775   0.75001   0.00000  Uiso   1.00
O640   O     0.87157   0.22774   0.75001   0.00000  Uiso   1.00
C641   C     0.83331   0.24671   0.75010   0.00000  Uiso   1.00
O642   O     0.77613   0.16666   0.82681   0.00000  Uiso   1.00
O643   O     0.85258   0.16665   0.82681   0.00000  Uiso   1.00
C644   C     0.80670   0.16924   0.85205   0.00000  Uiso   1.00
Zn645  Zn    0.78229   0.16667   0.75000   0.00000  Uiso   1.00
Zn646  Zn    0.88438   0.16666   0.75000   0.00000  Uiso   1.00
O647   O     0.79510   0.10559   0.74999   0.00000  Uiso   1.00
O648   O     0.87154   0.10558   0.75000   0.00000  Uiso   1.00
O649   O     0.81409   0.16668   0.67319   0.00000  Uiso   1.00
O650   O     0.89053   0.16667   0.67319   0.00000  Uiso   1.00
C651   C     0.83329   0.08662   0.75012   0.00000  Uiso   1.00
C652   C     0.86001   0.16694   0.64776   0.00000  Uiso   1.00
C653   C     0.92766   0.20732   0.50845   0.00000  Uiso   1.00
H654   H     0.94651   0.19816   0.57982   0.00000  Uiso   1.00
H655   H     0.96221   0.22132   0.98688   0.00000  Uiso   1.00
C656   C     0.87596   0.17334   0.58948   0.00000  Uiso   1.00
C657   C     0.74317   0.15993   0.94137   0.00000  Uiso   1.00
C658   C     0.72937   0.15750   0.99743   0.00000  Uiso   1.00
C659   C     0.76267   0.16623   0.52285   0.00000  Uiso   1.00
C660   C     0.80997   0.17973   0.99233   0.00000  Uiso   1.00
C661   C     0.82069   0.18899   0.93720   0.00000  Uiso   1.00
C662   C     0.84710   0.18386   0.51456   0.00000  Uiso   1.00
C663   C     0.89105   0.20440   0.98526   0.00000  Uiso   1.00
C664   C     0.89727   0.22074   0.93344   0.00000  Uiso   1.00
C665   C     0.86240   0.21246   0.90986   0.00000  Uiso   1.00
C666   C     0.84213   0.16621   0.56457   0.00000  Uiso   1.00
C667   C     0.91958   0.19284   0.56098   0.00000  Uiso   1.00
C668   C     0.78937   0.17426   0.91084   0.00000  Uiso   1.00
H669   H     0.81119   0.14735   0.58589   0.00000  Uiso   1.00
H670   H     0.71817   0.14967   0.92186   0.00000  Uiso   1.00
H671   H     0.75017   0.16323   0.56644   0.00000  Uiso   1.00
H672   H     0.69345   0.14708   0.52107   0.00000  Uiso   1.00
H673   H     0.86747   0.22591   0.87044   0.00000  Uiso   1.00
C674   C     0.86887   0.31195   0.76391   0.00000  Uiso   1.00
H675   H     0.89640   0.29562   0.77482   0.00000  Uiso   1.00
C676   C     0.86888   0.02127   0.76388   0.00000  Uiso   1.00
H677   H     0.89643   0.03753   0.77474   0.00000  Uiso   1.00
C678   C     0.83321   0.04247   0.75035   0.00000  Uiso   1.00
C679   C     0.79743   0.02135   0.73704   0.00000  Uiso   1.00
H680   H     0.76986   0.03765   0.72619   0.00000  Uiso   1.00
C681   C     0.79744   0.31204   0.73702   0.00000  Uiso   1.00
H682   H     0.76989   0.29580   0.72615   0.00000  Uiso   1.00
C683   C     0.83321   0.29084   0.75036   0.00000  Uiso   1.00
C684   C     0.96545   0.14176   0.78501   0.00000  Uiso   1.00
H685   H     0.93884   0.12184   0.81298   0.00000  Uiso   1.00
C686   C     0.68008   0.14180   0.78503   0.00000  Uiso   1.00
H687   H     0.68982   0.12193   0.81302   0.00000  Uiso   1.00
N688   N     0.71426   0.16668   0.75001   0.00000  Uiso   1.00
C689   C     0.70118   0.19162   0.71508   0.00000  Uiso   1.00
H690   H     0.72778   0.21159   0.68715   0.00000  Uiso   1.00
C691   C     0.98655   0.19159   0.71506   0.00000  Uiso   1.00
H692   H     0.97680   0.21150   0.68712   0.00000  Uiso   1.00
N693   N     0.95239   0.16665   0.75001   0.00000  Uiso   1.00
N694   N     0.93862   0.24533   0.90392   0.00000  Uiso   1.00
O695   O     0.95806   0.24122   0.85162   0.00000  Uiso   1.00
O696   O     0.95160   0.27652   0.92734   0.00000  Uiso   1.00
O697   O     0.12846   0.56108   0.75001   0.00000  Uiso   1.00
O698   O     0.20490   0.56107   0.75001   0.00000  Uiso   1.00
C699   C     0.16665   0.58004   0.75010   0.00000  Uiso   1.00
O700   O     0.10947   0.50000   0.82681   0.00000  Uiso   1.00
O701   O     0.18591   0.49999   0.82681   0.00000  Uiso   1.00
C702   C     0.14003   0.50257   0.85205   0.00000  Uiso   1.00
Zn703  Zn    0.11562   0.50001   0.75000   0.00000  Uiso   1.00
Zn704  Zn    0.21771   0.49999   0.75000   0.00000  Uiso   1.00
O705   O     0.12843   0.43893   0.74999   0.00000  Uiso   1.00
O706   O     0.20488   0.43892   0.75000   0.00000  Uiso   1.00
O707   O     0.14742   0.50001   0.67319   0.00000  Uiso   1.00
O708   O     0.22387   0.50000   0.67319   0.00000  Uiso   1.00
C709   C     0.16662   0.41996   0.75012   0.00000  Uiso   1.00
C710   C     0.19334   0.50028   0.64776   0.00000  Uiso   1.00
C711   C     0.26099   0.54065   0.50845   0.00000  Uiso   1.00
H712   H     0.27984   0.53149   0.57982   0.00000  Uiso   1.00
H713   H     0.29554   0.55465   0.98688   0.00000  Uiso   1.00
C714   C     0.20929   0.50668   0.58948   0.00000  Uiso   1.00
C715   C     0.07650   0.49326   0.94137   0.00000  Uiso   1.00
C716   C     0.06271   0.49084   0.99743   0.00000  Uiso   1.00
C717   C     0.09601   0.49956   0.52285   0.00000  Uiso   1.00
C718   C     0.14330   0.51306   0.99233   0.00000  Uiso   1.00
C719   C     0.15403   0.52233   0.93720   0.00000  Uiso   1.00
C720   C     0.18043   0.51719   0.51456   0.00000  Uiso   1.00
C721   C     0.22438   0.53773   0.98526   0.00000  Uiso   1.00
C722   C     0.23060   0.55408   0.93344   0.00000  Uiso   1.00
C723   C     0.19573   0.54579   0.90986   0.00000  Uiso   1.00
C724   C     0.17547   0.49954   0.56457   0.00000  Uiso   1.00
C725   C     0.25292   0.52617   0.56098   0.00000  Uiso   1.00
C726   C     0.12270   0.50759   0.91084   0.00000  Uiso   1.00
H727   H     0.14452   0.48068   0.58589   0.00000  Uiso   1.00
H728   H     0.05151   0.48300   0.92186   0.00000  Uiso   1.00
H729   H     0.08351   0.49656   0.56644   0.00000  Uiso   1.00
H730   H     0.02678   0.48042   0.52107   0.00000  Uiso   1.00
H731   H     0.20080   0.55924   0.87044   0.00000  Uiso   1.00
C732   C     0.20220   0.64528   0.76391   0.00000  Uiso   1.00
H733   H     0.22973   0.62896   0.77482   0.00000  Uiso   1.00
C734   C     0.20222   0.35460   0.76388   0.00000  Uiso   1.00
H735   H     0.22977   0.37086   0.77474   0.00000  Uiso   1.00
C736   C     0.16654   0.37581   0.75035   0.00000  Uiso   1.00
C737   C     0.13077   0.35468   0.73704   0.00000  Uiso   1.00
H738   H     0.10320   0.37098   0.72619   0.00000  Uiso   1.00
C739   C     0.13078   0.64538   0.73702   0.00000  Uiso   1.00
H740   H     0.10322   0.62914   0.72615   0.00000  Uiso   1.00
C741   C     0.16654   0.62417   0.75036   0.00000  Uiso   1.00
C742   C     0.29879   0.47510   0.78501   0.00000  Uiso   1.00
H743   H     0.27218   0.45517   0.81298   0.00000  Uiso   1.00
C744   C     0.01341   0.47513   0.78503   0.00000  Uiso   1.00
H745   H     0.02315   0.45526   0.81302   0.00000  Uiso   1.00
N746   N     0.04760   0.50001   0.75001   0.00000  Uiso   1.00
C747   C     0.03451   0.52495   0.71508   0.00000  Uiso   1.00
H748   H     0.06111   0.54492   0.68715   0.00000  Uiso   1.00
C749   C     0.31989   0.52492   0.71506   0.00000  Uiso   1.00
H750   H     0.31013   0.54483   0.68712   0.00000  Uiso   1.00
N751   N     0.28573   0.49998   0.75001   0.00000  Uiso   1.00
N752   N     0.27195   0.57866   0.90392   0.00000  Uiso   1.00
O753   O     0.29140   0.57456   0.85162   0.00000  Uiso   1.00
O754   O     0.28493   0.60986   0.92734   0.00000  Uiso   1.00
O755   O     0.46179   0.56108   0.75001   0.00000  Uiso   1.00
O756   O     0.53823   0.56107   0.75001   0.00000  Uiso   1.00
C757   C     0.49998   0.58004   0.75010   0.00000  Uiso   1.00
O758   O     0.44280   0.50000   0.82681   0.00000  Uiso   1.00
O759   O     0.51924   0.49999   0.82681   0.00000  Uiso   1.00
C760   C     0.47337   0.50257   0.85205   0.00000  Uiso   1.00
Zn761  Zn    0.44896   0.50001   0.75000   0.00000  Uiso   1.00
Zn762  Zn    0.55104   0.49999   0.75000   0.00000  Uiso   1.00
O763   O     0.46177   0.43893   0.74999   0.00000  Uiso   1.00
O764   O     0.53821   0.43892   0.75000   0.00000  Uiso   1.00
O765   O     0.48076   0.50001   0.67319   0.00000  Uiso   1.00
O766   O     0.55720   0.50000   0.67319   0.00000  Uiso   1.00
C767   C     0.49995   0.41996   0.75012   0.00000  Uiso   1.00
C768   C     0.52667   0.50028   0.64776   0.00000  Uiso   1.00
C769   C     0.59433   0.54065   0.50845   0.00000  Uiso   1.00
H770   H     0.61318   0.53149   0.57982   0.00000  Uiso   1.00
H771   H     0.62888   0.55465   0.98688   0.00000  Uiso   1.00
C772   C     0.54263   0.50668   0.58948   0.00000  Uiso   1.00
C773   C     0.40984   0.49326   0.94137   0.00000  Uiso   1.00
C774   C     0.39604   0.49084   0.99743   0.00000  Uiso   1.00
C775   C     0.42934   0.49956   0.52285   0.00000  Uiso   1.00
C776   C     0.47664   0.51306   0.99233   0.00000  Uiso   1.00
C777   C     0.48736   0.52233   0.93720   0.00000  Uiso   1.00
C778   C     0.51377   0.51719   0.51456   0.00000  Uiso   1.00
C779   C     0.55772   0.53773   0.98526   0.00000  Uiso   1.00
C780   C     0.56394   0.55408   0.93344   0.00000  Uiso   1.00
C781   C     0.52906   0.54579   0.90986   0.00000  Uiso   1.00
C782   C     0.50880   0.49954   0.56457   0.00000  Uiso   1.00
C783   C     0.58625   0.52617   0.56098   0.00000  Uiso   1.00
C784   C     0.45604   0.50759   0.91084   0.00000  Uiso   1.00
H785   H     0.47786   0.48068   0.58589   0.00000  Uiso   1.00
H786   H     0.38484   0.48300   0.92186   0.00000  Uiso   1.00
H787   H     0.41684   0.49656   0.56644   0.00000  Uiso   1.00
H788   H     0.36012   0.48042   0.52107   0.00000  Uiso   1.00
H789   H     0.53414   0.55924   0.87044   0.00000  Uiso   1.00
C790   C     0.53554   0.64528   0.76391   0.00000  Uiso   1.00
H791   H     0.56307   0.62896   0.77482   0.00000  Uiso   1.00
C792   C     0.53555   0.35460   0.76388   0.00000  Uiso   1.00
H793   H     0.56310   0.37086   0.77474   0.00000  Uiso   1.00
C794   C     0.49987   0.37581   0.75035   0.00000  Uiso   1.00
C795   C     0.46410   0.35468   0.73704   0.00000  Uiso   1.00
H796   H     0.43653   0.37098   0.72619   0.00000  Uiso   1.00
C797   C     0.46411   0.64538   0.73702   0.00000  Uiso   1.00
H798   H     0.43656   0.62914   0.72615   0.00000  Uiso   1.00
C799   C     0.49988   0.62417   0.75036   0.00000  Uiso   1.00
C800   C     0.63212   0.47510   0.78501   0.00000  Uiso   1.00
H801   H     0.60551   0.45517   0.81298   0.00000  Uiso   1.00
C802   C     0.34675   0.47513   0.78503   0.00000  Uiso   1.00
H803   H     0.35649   0.45526   0.81302   0.00000  Uiso   1.00
N804   N     0.38093   0.50001   0.75001   0.00000  Uiso   1.00
C805   C     0.36785   0.52495   0.71508   0.00000  Uiso   1.00
H806   H     0.39444   0.54492   0.68715   0.00000  Uiso   1.00
C807   C     0.65322   0.52492   0.71506   0.00000  Uiso   1.00
H808   H     0.64346   0.54483   0.68712   0.00000  Uiso   1.00
N809   N     0.61906   0.49998   0.75001   0.00000  Uiso   1.00
N810   N     0.60529   0.57866   0.90392   0.00000  Uiso   1.00
O811   O     0.62473   0.57456   0.85162   0.00000  Uiso   1.00
O812   O     0.61827   0.60986   0.92734   0.00000  Uiso   1.00
O813   O     0.79512   0.56108   0.75001   0.00000  Uiso   1.00
O814   O     0.87157   0.56107   0.75001   0.00000  Uiso   1.00
C815   C     0.83331   0.58004   0.75010   0.00000  Uiso   1.00
O816   O     0.77613   0.50000   0.82681   0.00000  Uiso   1.00
O817   O     0.85258   0.49999   0.82681   0.00000  Uiso   1.00
C818   C     0.80670   0.50257   0.85205   0.00000  Uiso   1.00
Zn819  Zn    0.78229   0.50001   0.75000   0.00000  Uiso   1.00
Zn820  Zn    0.88438   0.49999   0.75000   0.00000  Uiso   1.00
O821   O     0.79510   0.43893   0.74999   0.00000  Uiso   1.00
O822   O     0.87154   0.43892   0.75000   0.00000  Uiso   1.00
O823   O     0.81409   0.50001   0.67319   0.00000  Uiso   1.00
O824   O     0.89053   0.50000   0.67319   0.00000  Uiso   1.00
C825   C     0.83329   0.41996   0.75012   0.00000  Uiso   1.00
C826   C     0.86001   0.50028   0.64776   0.00000  Uiso   1.00
C827   C     0.92766   0.54065   0.50845   0.00000  Uiso   1.00
H828   H     0.94651   0.53149   0.57982   0.00000  Uiso   1.00
H829   H     0.96221   0.55465   0.98688   0.00000  Uiso   1.00
C830   C     0.87596   0.50668   0.58948   0.00000  Uiso   1.00
C831   C     0.74317   0.49326   0.94137   0.00000  Uiso   1.00
C832   C     0.72937   0.49084   0.99743   0.00000  Uiso   1.00
C833   C     0.76267   0.49956   0.52285   0.00000  Uiso   1.00
C834   C     0.80997   0.51306   0.99233   0.00000  Uiso   1.00
C835   C     0.82069   0.52233   0.93720   0.00000  Uiso   1.00
C836   C     0.84710   0.51719   0.51456   0.00000  Uiso   1.00
C837   C     0.89105   0.53773   0.98526   0.00000  Uiso   1.00
C838   C     0.89727   0.55408   0.93344   0.00000  Uiso   1.00
C839   C     0.86240   0.54579   0.90986   0.00000  Uiso   1.00
C840   C     0.84213   0.49954   0.56457   0.00000  Uiso   1.00
C841   C     0.91958   0.52617   0.56098   0.00000  Uiso   1.00
C842   C     0.78937   0.50759   0.91084   0.00000  Uiso   1.00
H843   H     0.81119   0.48068   0.58589   0.00000  Uiso   1.00
H844   H     0.71817   0.48300   0.92186   0.00000  Uiso   1.00
H845   H     0.75017   0.49656   0.56644   0.00000  Uiso   1.00
H846   H     0.69345   0.48042   0.52107   0.00000  Uiso   1.00
H847   H     0.86747   0.55924   0.87044   0.00000  Uiso   1.00
C848   C     0.86887   0.64528   0.76391   0.00000  Uiso   1.00
H849   H     0.89640   0.62896   0.77482   0.00000  Uiso   1.00
C850   C     0.86888   0.35460   0.76388   0.00000  Uiso   1.00
H851   H     0.89643   0.37086   0.77474   0.00000  Uiso   1.00
C852   C     0.83321   0.37581   0.75035   0.00000  Uiso   1.00
C853   C     0.79743   0.35468   0.73704   0.00000  Uiso   1.00
H854   H     0.76986   0.37098   0.72619   0.00000  Uiso   1.00
C855   C     0.79744   0.64538   0.73702   0.00000  Uiso   1.00
H856   H     0.76989   0.62914   0.72615   0.00000  Uiso   1.00
C857   C     0.83321   0.62417   0.75036   0.00000  Uiso   1.00
C858   C     0.96545   0.47510   0.78501   0.00000  Uiso   1.00
H859   H     0.93884   0.45517   0.81298   0.00000  Uiso   1.00
C860   C     0.68008   0.47513   0.78503   0.00000  Uiso   1.00
H861   H     0.68982   0.45526   0.81302   0.00000  Uiso   1.00
N862   N     0.71426   0.50001   0.75001   0.00000  Uiso   1.00
C863   C     0.70118   0.52495   0.71508   0.00000  Uiso   1.00
H864   H     0.72778   0.54492   0.68715   0.00000  Uiso   1.00
C865   C     0.98655   0.52492   0.71506   0.00000  Uiso   1.00
H866   H     0.97680   0.54483   0.68712   0.00000  Uiso   1.00
N867   N     0.95239   0.49998   0.75001   0.00000  Uiso   1.00
N868   N     0.93862   0.57866   0.90392   0.00000  Uiso   1.00
O869   O     0.95806   0.57456   0.85162   0.00000  Uiso   1.00
O870   O     0.95160   0.60986   0.92734   0.00000  Uiso   1.00
O871   O     0.12846   0.89442   0.75001   0.00000  Uiso   1.00
O872   O     0.20490   0.89441   0.75001   0.00000  Uiso   1.00
C873   C     0.16665   0.91337   0.75010   0.00000  Uiso   1.00
O874   O     0.10947   0.83333   0.82681   0.00000  Uiso   1.00
O875   O     0.18591   0.83332   0.82681   0.00000  Uiso   1.00
C876   C     0.14003   0.83591   0.85205   0.00000  Uiso   1.00
Zn877  Zn    0.11562   0.83334   0.75000   0.00000  Uiso   1.00
Zn878  Zn    0.21771   0.83333   0.75000   0.00000  Uiso   1.00
O879   O     0.12843   0.77226   0.74999   0.00000  Uiso   1.00
O880   O     0.20488   0.77225   0.75000   0.00000  Uiso   1.00
O881   O     0.14742   0.83335   0.67319   0.00000  Uiso   1.00
O882   O     0.22387   0.83334   0.67319   0.00000  Uiso   1.00
C883   C     0.16662   0.75329   0.75012   0.00000  Uiso   1.00
C884   C     0.19334   0.83361   0.64776   0.00000  Uiso   1.00
C885   C     0.26099   0.87398   0.50845   0.00000  Uiso   1.00
H886   H     0.27984   0.86482   0.57982   0.00000  Uiso   1.00
H887   H     0.29554   0.88798   0.98688   0.00000  Uiso   1.00
C888   C     0.20929   0.84001   0.58948   0.00000  Uiso   1.00
C889   C     0.07650   0.82660   0.94137   0.00000  Uiso   1.00
C890   C     0.06271   0.82417   0.99743   0.00000  Uiso   1.00
C891   C     0.09601   0.83290   0.52285   0.00000  Uiso   1.00
C892   C     0.14330   0.84640   0.99233   0.00000  Uiso   1.00
C893   C     0.15403   0.85566   0.93720   0.00000  Uiso   1.00
C894   C     0.18043   0.85052   0.51456   0.00000  Uiso   1.00
C895   C     0.22438   0.87106   0.98526   0.00000  Uiso   1.00
C896   C     0.23060   0.88741   0.93344   0.00000  Uiso   1.00
C897   C     0.19573   0.87913   0.90986   0.00000  Uiso   1.00
C898   C     0.17547   0.83288   0.56457   0.00000  Uiso   1.00
C899   C     0.25292   0.85951   0.56098   0.00000  Uiso   1.00
C900   C     0.12270   0.84092   0.91084   0.00000  Uiso   1.00
H901   H     0.14452   0.81402   0.58589   0.00000  Uiso   1.00
H902   H     0.05151   0.81634   0.92186   0.00000  Uiso   1.00
H903   H     0.08351   0.82990   0.56644   0.00000  Uiso   1.00
H904   H     0.02678   0.81375   0.52107   0.00000  Uiso   1.00
H905   H     0.20080   0.89257   0.87044   0.00000  Uiso   1.00
C906   C     0.20220   0.97862   0.76391   0.00000  Uiso   1.00
H907   H     0.22973   0.96229   0.77482   0.00000  Uiso   1.00
C908   C     0.20222   0.68794   0.76388   0.00000  Uiso   1.00
H909   H     0.22977   0.70419   0.77474   0.00000  Uiso   1.00
C910   C     0.16654   0.70914   0.75035   0.00000  Uiso   1.00
C911   C     0.13077   0.68801   0.73704   0.00000  Uiso   1.00
H912   H     0.10320   0.70431   0.72619   0.00000  Uiso   1.00
C913   C     0.13078   0.97871   0.73702   0.00000  Uiso   1.00
H914   H     0.10322   0.96247   0.72615   0.00000  Uiso   1.00
C915   C     0.16654   0.95751   0.75036   0.00000  Uiso   1.00
C916   C     0.29879   0.80843   0.78501   0.00000  Uiso   1.00
H917   H     0.27218   0.78850   0.81298   0.00000  Uiso   1.00
C918   C     0.01341   0.80846   0.78503   0.00000  Uiso   1.00
H919   H     0.02315   0.78859   0.81302   0.00000  Uiso   1.00
N920   N     0.04760   0.83334   0.75001   0.00000  Uiso   1.00
C921   C     0.03451   0.85829   0.71508   0.00000  Uiso   1.00
H922   H     0.06111   0.87825   0.68715   0.00000  Uiso   1.00
C923   C     0.31989   0.85825   0.71506   0.00000  Uiso   1.00
H924   H     0.31013   0.87816   0.68712   0.00000  Uiso   1.00
N925   N     0.28573   0.83331   0.75001   0.00000  Uiso   1.00
N926   N     0.27195   0.91200   0.90392   0.00000  Uiso   1.00
O927   O     0.29140   0.90789   0.85162   0.00000  Uiso   1.00
O928   O     0.28493   0.94319   0.92734   0.00000  Uiso   1.00
O929   O     0.46179   0.89442   0.75001   0.00000  Uiso   1.00
O930   O     0.53823   0.89441   0.75001   0.00000  Uiso   1.00
C931   C     0.49998   0.91337   0.75010   0.00000  Uiso   1.00
O932   O     0.44280   0.83333   0.82681   0.00000  Uiso   1.00
O933   O     0.51924   0.83332   0.82681   0.00000  Uiso   1.00
C934   C     0.47337   0.83591   0.85205   0.00000  Uiso   1.00
Zn935  Zn    0.44896   0.83334   0.75000   0.00000  Uiso   1.00
Zn936  Zn    0.55104   0.83333   0.75000   0.00000  Uiso   1.00
O937   O     0.46177   0.77226   0.74999   0.00000  Uiso   1.00
O938   O     0.53821   0.77225   0.75000   0.00000  Uiso   1.00
O939   O     0.48076   0.83335   0.67319   0.00000  Uiso   1.00
O940   O     0.55720   0.83334   0.67319   0.00000  Uiso   1.00
C941   C     0.49995   0.75329   0.75012   0.00000  Uiso   1.00
C942   C     0.52667   0.83361   0.64776   0.00000  Uiso   1.00
C943   C     0.59433   0.87398   0.50845   0.00000  Uiso   1.00
H944   H     0.61318   0.86482   0.57982   0.00000  Uiso   1.00
H945   H     0.62888   0.88798   0.98688   0.00000  Uiso   1.00
C946   C     0.54263   0.84001   0.58948   0.00000  Uiso   1.00
C947   C     0.40984   0.82660   0.94137   0.00000  Uiso   1.00
C948   C     0.39604   0.82417   0.99743   0.00000  Uiso   1.00
C949   C     0.42934   0.83290   0.52285   0.00000  Uiso   1.00
C950   C     0.47664   0.84640   0.99233   0.00000  Uiso   1.00
C951   C     0.48736   0.85566   0.93720   0.00000  Uiso   1.00
C952   C     0.51377   0.85052   0.51456   0.00000  Uiso   1.00
C953   C     0.55772   0.87106   0.98526   0.00000  Uiso   1.00
C954   C     0.56394   0.88741   0.93344   0.00000  Uiso   1.00
C955   C     0.52906   0.87913   0.90986   0.00000  Uiso   1.00
C956   C     0.50880   0.83288   0.56457   0.00000  Uiso   1.00
C957   C     0.58625   0.85951   0.56098   0.00000  Uiso   1.00
C958   C     0.45604   0.84092   0.91084   0.00000  Uiso   1.00
H959   H     0.47786   0.81402   0.58589   0.00000  Uiso   1.00
H960   H     0.38484   0.81634   0.92186   0.00000  Uiso   1.00
H961   H     0.41684   0.82990   0.56644   0.00000  Uiso   1.00
H962   H     0.36012   0.81375   0.52107   0.00000  Uiso   1.00
H963   H     0.53414   0.89257   0.87044   0.00000  Uiso   1.00
C964   C     0.53554   0.97862   0.76391   0.00000  Uiso   1.00
H965   H     0.56307   0.96229   0.77482   0.00000  Uiso   1.00
C966   C     0.53555   0.68794   0.76388   0.00000  Uiso   1.00
H967   H     0.56310   0.70419   0.77474   0.00000  Uiso   1.00
C968   C     0.49987   0.70914   0.75035   0.00000  Uiso   1.00
C969   C     0.46410   0.68801   0.73704   0.00000  Uiso   1.00
H970   H     0.43653   0.70431   0.72619   0.00000  Uiso   1.00
C971   C     0.46411   0.97871   0.73702   0.00000  Uiso   1.00
H972   H     0.43656   0.96247   0.72615   0.00000  Uiso   1.00
C973   C     0.49988   0.95751   0.75036   0.00000  Uiso   1.00
C974   C     0.63212   0.80843   0.78501   0.00000  Uiso   1.00
H975   H     0.60551   0.78850   0.81298   0.00000  Uiso   1.00
C976   C     0.34675   0.80846   0.78503   0.00000  Uiso   1.00
H977   H     0.35649   0.78859   0.81302   0.00000  Uiso   1.00
N978   N     0.38093   0.83334   0.75001   0.00000  Uiso   1.00
C979   C     0.36785   0.85829   0.71508   0.00000  Uiso   1.00
H980   H     0.39444   0.87825   0.68715   0.00000  Uiso   1.00
C981   C     0.65322   0.85825   0.71506   0.00000  Uiso   1.00
H982   H     0.64346   0.87816   0.68712   0.00000  Uiso   1.00
N983   N     0.61906   0.83331   0.75001   0.00000  Uiso   1.00
N984   N     0.60529   0.91200   0.90392   0.00000  Uiso   1.00
O985   O     0.62473   0.90789   0.85162   0.00000  Uiso   1.00
O986   O     0.61827   0.94319   0.92734   0.00000  Uiso   1.00
O987   O     0.79512   0.89442   0.75001   0.00000  Uiso   1.00
O988   O     0.87157   0.89441   0.75001   0.00000  Uiso   1.00
C989   C     0.83331   0.91337   0.75010   0.00000  Uiso   1.00
O990   O     0.77613   0.83333   0.82681   0.00000  Uiso   1.00
O991   O     0.85258   0.83332   0.82681   0.00000  Uiso   1.00
C992   C     0.80670   0.83591   0.85205   0.00000  Uiso   1.00
Zn993  Zn    0.78229   0.83334   0.75000   0.00000  Uiso   1.00
Zn994  Zn    0.88438   0.83333   0.75000   0.00000  Uiso   1.00
O995   O     0.79510   0.77226   0.74999   0.00000  Uiso   1.00
O996   O     0.87154   0.77225   0.75000   0.00000  Uiso   1.00
O997   O     0.81409   0.83335   0.67319   0.00000  Uiso   1.00
O998   O     0.89053   0.83334   0.67319   0.00000  Uiso   1.00
C999   C     0.83329   0.75329   0.75012   0.00000  Uiso   1.00
C1000  C     0.86001   0.83361   0.64776   0.00000  Uiso   1.00
C1001  C     0.92766   0.87398   0.50845   0.00000  Uiso   1.00
H1002  H     0.94651   0.86482   0.57982   0.00000  Uiso   1.00
H1003  H     0.96221   0.88798   0.98688   0.00000  Uiso   1.00
C1004  C     0.87596   0.84001   0.58948   0.00000  Uiso   1.00
C1005  C     0.74317   0.82660   0.94137   0.00000  Uiso   1.00
C1006  C     0.72937   0.82417   0.99743   0.00000  Uiso   1.00
C1007  C     0.76267   0.83290   0.52285   0.00000  Uiso   1.00
C1008  C     0.80997   0.84640   0.99233   0.00000  Uiso   1.00
C1009  C     0.82069   0.85566   0.93720   0.00000  Uiso   1.00
C1010  C     0.84710   0.85052   0.51456   0.00000  Uiso   1.00
C1011  C     0.89105   0.87106   0.98526   0.00000  Uiso   1.00
C1012  C     0.89727   0.88741   0.93344   0.00000  Uiso   1.00
C1013  C     0.86240   0.87913   0.90986   0.00000  Uiso   1.00
C1014  C     0.84213   0.83288   0.56457   0.00000  Uiso   1.00
C1015  C     0.91958   0.85951   0.56098   0.00000  Uiso   1.00
C1016  C     0.78937   0.84092   0.91084   0.00000  Uiso   1.00
H1017  H     0.81119   0.81402   0.58589   0.00000  Uiso   1.00
H1018  H     0.71817   0.81634   0.92186   0.00000  Uiso   1.00
H1019  H     0.75017   0.82990   0.56644   0.00000  Uiso   1.00
H1020  H     0.69345   0.81375   0.52107   0.00000  Uiso   1.00
H1021  H     0.86747   0.89257   0.87044   0.00000  Uiso   1.00
C1022  C     0.86887   0.97862   0.76391   0.00000  Uiso   1.00
H1023  H     0.89640   0.96229   0.77482   0.00000  Uiso   1.00
C1024  C     0.86888   0.68794   0.76388   0.00000  Uiso   1.00
H1025  H     0.89643   0.70419   0.77474   0.00000  Uiso   1.00
C1026  C     0.83321   0.70914   0.75035   0.00000  Uiso   1.00
C1027  C     0.79743   0.68801   0.73704   0.00000  Uiso   1.00
H1028  H     0.76986   0.70431   0.72619   0.00000  Uiso   1.00
C1029  C     0.79744   0.97871   0.73702   0.00000  Uiso   1.00
H1030  H     0.76989   0.96247   0.72615   0.00000  Uiso   1.00
C1031  C     0.83321   0.95751   0.75036   0.00000  Uiso   1.00
C1032  C     0.96545   0.80843   0.78501   0.00000  Uiso   1.00
H1033  H     0.93884   0.78850   0.81298   0.00000  Uiso   1.00
C1034  C     0.68008   0.80846   0.78503   0.00000  Uiso   1.00
H1035  H     0.68982   0.78859   0.81302   0.00000  Uiso   1.00
N1036  N     0.71426   0.83334   0.75001   0.00000  Uiso   1.00
C1037  C     0.70118   0.85829   0.71508   0.00000  Uiso   1.00
H1038  H     0.72778   0.87825   0.68715   0.00000  Uiso   1.00
C1039  C     0.98655   0.85825   0.71506   0.00000  Uiso   1.00
H1040  H     0.97680   0.87816   0.68712   0.00000  Uiso   1.00
N1041  N     0.95239   0.83331   0.75001   0.00000  Uiso   1.00
N1042  N     0.93862   0.91200   0.90392   0.00000  Uiso   1.00
O1043  O     0.95806   0.90789   0.85162   0.00000  Uiso   1.00
O1044  O     0.95160   0.94319   0.92734   0.00000  Uiso   1.00
loop_
_geom_bond_atom_site_label_1
_geom_bond_atom_site_label_2
_geom_bond_distance
_geom_bond_site_symmetry_2
_ccdc_geom_bond_type
O1     Zn7     1.999   .     S
O1     C3      1.282   .     A
O2     C3      1.282   .     A
O2     Zn8     1.999   .     S
C3     C45     1.418   .     S
O4     Zn7     1.961   .     S
O4     C6      1.291   .     A
O5     Zn8     1.911   .     S
O5     C6      1.292   .     A
C6     C30     1.460   .     S
Zn7    O11     1.911   .     S
Zn7    O9      1.999   .     S
Zn7    N50     2.008   .     S
Zn8    O12     1.961   .     S
Zn8    N55     2.008   .     S
Zn8    O10     1.999   .     S
O9     C13     1.282   .     A
O10    C13     1.282   .     A
O11    C14     1.291   .     A
O12    C14     1.291   .     A
C13    C40     1.419   .     S
C14    C18     1.453   .     S
C15    C29     1.395   .     A
C15    H539    1.081   1_554 S
C15    C547    1.412   1_554 S
H16    C29     1.083   .     S
H17    C537    1.081   .     S
C18    C29     1.397   .     A
C18    C28     1.386   .     A
C19    C20     1.388   .     A
C19    H32     1.083   .     S
C19    C30     1.403   .     A
C20    C543    1.392   .     S
C20    H556    1.083   .     S
C21    H33     1.080   .     S
C21    C542    1.392   1_554 S
C21    C544    1.420   1_554 S
C22    C23     1.403   .     A
C22    C543    1.420   .     S
C22    C546    1.412   .     S
C23    C27     1.412   .     A
C23    C30     1.413   .     A
C24    C28     1.389   .     A
C24    C544    1.412   1_554 S
C24    C547    1.424   1_554 S
C25    C26     1.409   .     A
C25    C537    1.412   .     S
C25    C546    1.424   .     S
C26    C27     1.396   .     A
C26    N56     1.438   .     S
C27    H35     1.082   .     S
C28    H31     1.079   .     S
H34    C542    1.083   1_554 S
C36    C45     1.397   .     A
C36    H37     1.084   .     S
C36    C212    1.371   .     S
C38    C40     1.397   .     A
C38    H39     1.084   .     S
C38    C384    1.371   1_545 S
C40    C41     1.397   .     A
C41    H42     1.084   .     S
C41    C391    1.370   1_545 S
C43    H44     1.084   .     S
C43    C45     1.397   .     A
C43    C215    1.370   .     S
C46    N55     1.367   .     A
C46    H47     1.082   .     S
C46    C106    1.416   .     S
C48    H49     1.082   .     S
C48    N50     1.366   .     A
C48    C162    1.416   1_455 S
N50    C51     1.367   .     A
C51    H52     1.082   .     S
C51    C169    1.416   1_455 S
C53    H54     1.082   .     S
C53    N55     1.366   .     A
C53    C109    1.416   .     S
N56    O57     1.302   .     A
N56    O58     1.301   .     A
O59    Zn65    1.999   .     S
O59    C61     1.282   .     A
O60    C61     1.282   .     A
O60    Zn66    1.999   .     S
C61    C103    1.418   .     S
O62    Zn65    1.961   .     S
O62    C64     1.291   .     A
O63    Zn66    1.911   .     S
O63    C64     1.292   .     A
C64    C88     1.460   .     S
Zn65   O69     1.911   .     S
Zn65   O67     1.999   .     S
Zn65   N108    2.008   .     S
Zn66   O70     1.961   .     S
Zn66   N113    2.008   .     S
Zn66   O68     1.999   .     S
O67    C71     1.282   .     A
O68    C71     1.282   .     A
O69    C72     1.291   .     A
O70    C72     1.291   .     A
C71    C98     1.419   .     S
C72    C76     1.453   .     S
C73    C87     1.395   .     A
C73    H597    1.081   1_554 S
C73    C605    1.412   1_554 S
H74    C87     1.083   .     S
H75    C595    1.081   .     S
C76    C87     1.397   .     A
C76    C86     1.386   .     A
C77    C78     1.388   .     A
C77    H90     1.083   .     S
C77    C88     1.403   .     A
C78    C601    1.392   .     S
C78    H614    1.083   .     S
C79    H91     1.080   .     S
C79    C600    1.392   1_554 S
C79    C602    1.420   1_554 S
C80    C81     1.403   .     A
C80    C601    1.420   .     S
C80    C604    1.412   .     S
C81    C85     1.412   .     A
C81    C88     1.413   .     A
C82    C86     1.389   .     A
C82    C602    1.412   1_554 S
C82    C605    1.424   1_554 S
C83    C84     1.409   .     A
C83    C595    1.412   .     S
C83    C604    1.424   .     S
C84    C85     1.396   .     A
C84    N114    1.438   .     S
C85    H93     1.082   .     S
C86    H89     1.079   .     S
H92    C600    1.083   1_554 S
C94    C103    1.397   .     A
C94    H95     1.084   .     S
C94    C270    1.371   .     S
C96    C98     1.397   .     A
C96    H97     1.084   .     S
C96    C442    1.371   1_545 S
C98    C99     1.397   .     A
C99    H100    1.084   .     S
C99    C449    1.370   1_545 S
C101   H102    1.084   .     S
C101   C103    1.397   .     A
C101   C273    1.370   .     S
C104   N113    1.367   .     A
C104   H105    1.082   .     S
C104   C164    1.416   .     S
C106   H107    1.082   .     S
C106   N108    1.366   .     A
N108   C109    1.367   .     A
C109   H110    1.082   .     S
C111   H112    1.082   .     S
C111   N113    1.366   .     A
C111   C167    1.416   .     S
N114   O115    1.302   .     A
N114   O116    1.301   .     A
O117   Zn123   1.999   .     S
O117   C119    1.282   .     A
O118   C119    1.282   .     A
O118   Zn124   1.999   .     S
C119   C161    1.418   .     S
O120   Zn123   1.961   .     S
O120   C122    1.291   .     A
O121   Zn124   1.911   .     S
O121   C122    1.292   .     A
C122   C146    1.460   .     S
Zn123  O127    1.911   .     S
Zn123  O125    1.999   .     S
Zn123  N166    2.008   .     S
Zn124  O128    1.961   .     S
Zn124  N171    2.008   .     S
Zn124  O126    1.999   .     S
O125   C129    1.282   .     A
O126   C129    1.282   .     A
O127   C130    1.291   .     A
O128   C130    1.291   .     A
C129   C156    1.419   .     S
C130   C134    1.453   .     S
C131   C145    1.395   .     A
C131   H655    1.081   1_554 S
C131   C663    1.412   1_554 S
H132   C145    1.083   .     S
H133   C653    1.081   .     S
C134   C145    1.397   .     A
C134   C144    1.386   .     A
C135   C136    1.388   .     A
C135   H148    1.083   .     S
C135   C146    1.403   .     A
C136   C659    1.392   .     S
C136   H672    1.083   .     S
C137   H149    1.080   .     S
C137   C658    1.392   1_554 S
C137   C660    1.420   1_554 S
C138   C139    1.403   .     A
C138   C659    1.420   .     S
C138   C662    1.412   .     S
C139   C143    1.412   .     A
C139   C146    1.413   .     A
C140   C144    1.389   .     A
C140   C660    1.412   1_554 S
C140   C663    1.424   1_554 S
C141   C142    1.409   .     A
C141   C653    1.412   .     S
C141   C662    1.424   .     S
C142   C143    1.396   .     A
C142   N172    1.438   .     S
C143   H151    1.082   .     S
C144   H147    1.079   .     S
H150   C658    1.083   1_554 S
C152   C161    1.397   .     A
C152   H153    1.084   .     S
C152   C328    1.371   .     S
C154   C156    1.397   .     A
C154   H155    1.084   .     S
C154   C500    1.371   1_545 S
C156   C157    1.397   .     A
C157   H158    1.084   .     S
C157   C507    1.370   1_545 S
C159   H160    1.084   .     S
C159   C161    1.397   .     A
C159   C331    1.370   .     S
C162   N171    1.367   .     A
C162   H163    1.082   .     S
C162   C48     1.416   1_655 S
C164   H165    1.082   .     S
C164   N166    1.366   .     A
N166   C167    1.367   .     A
C167   H168    1.082   .     S
C169   H170    1.082   .     S
C169   N171    1.366   .     A
C169   C51     1.416   1_655 S
N172   O173    1.302   .     A
N172   O174    1.301   .     A
O175   Zn181   1.999   .     S
O175   C177    1.282   .     A
O176   C177    1.282   .     A
O176   Zn182   1.999   .     S
C177   C219    1.418   .     S
O178   Zn181   1.961   .     S
O178   C180    1.291   .     A
O179   Zn182   1.911   .     S
O179   C180    1.292   .     A
C180   C204    1.460   .     S
Zn181  O185    1.911   .     S
Zn181  O183    1.999   .     S
Zn181  N224    2.008   .     S
Zn182  O186    1.961   .     S
Zn182  N229    2.008   .     S
Zn182  O184    1.999   .     S
O183   C187    1.282   .     A
O184   C187    1.282   .     A
O185   C188    1.291   .     A
O186   C188    1.291   .     A
C187   C214    1.419   .     S
C188   C192    1.453   .     S
C189   C203    1.395   .     A
C189   H713    1.081   1_554 S
C189   C721    1.412   1_554 S
H190   C203    1.083   .     S
H191   C711    1.081   .     S
C192   C203    1.397   .     A
C192   C202    1.386   .     A
C193   C194    1.388   .     A
C193   H206    1.083   .     S
C193   C204    1.403   .     A
C194   C717    1.392   .     S
C194   H730    1.083   .     S
C195   H207    1.080   .     S
C195   C716    1.392   1_554 S
C195   C718    1.420   1_554 S
C196   C197    1.403   .     A
C196   C717    1.420   .     S
C196   C720    1.412   .     S
C197   C201    1.412   .     A
C197   C204    1.413   .     A
C198   C202    1.389   .     A
C198   C718    1.412   1_554 S
C198   C721    1.424   1_554 S
C199   C200    1.409   .     A
C199   C711    1.412   .     S
C199   C720    1.424   .     S
C200   C201    1.396   .     A
C200   N230    1.438   .     S
C201   H209    1.082   .     S
C202   H205    1.079   .     S
H208   C716    1.083   1_554 S
C210   C219    1.397   .     A
C210   H211    1.084   .     S
C210   C386    1.371   .     S
C212   C214    1.397   .     A
C212   H213    1.084   .     S
C214   C215    1.397   .     A
C215   H216    1.084   .     S
C217   H218    1.084   .     S
C217   C219    1.397   .     A
C217   C389    1.370   .     S
C220   N229    1.367   .     A
C220   H221    1.082   .     S
C220   C280    1.416   .     S
C222   H223    1.082   .     S
C222   N224    1.366   .     A
C222   C336    1.416   1_455 S
N224   C225    1.367   .     A
C225   H226    1.082   .     S
C225   C343    1.416   1_455 S
C227   H228    1.082   .     S
C227   N229    1.366   .     A
C227   C283    1.416   .     S
N230   O231    1.302   .     A
N230   O232    1.301   .     A
O233   Zn239   1.999   .     S
O233   C235    1.282   .     A
O234   C235    1.282   .     A
O234   Zn240   1.999   .     S
C235   C277    1.418   .     S
O236   Zn239   1.961   .     S
O236   C238    1.291   .     A
O237   Zn240   1.911   .     S
O237   C238    1.292   .     A
C238   C262    1.460   .     S
Zn239  O243    1.911   .     S
Zn239  O241    1.999   .     S
Zn239  N282    2.008   .     S
Zn240  O244    1.961   .     S
Zn240  N287    2.008   .     S
Zn240  O242    1.999   .     S
O241   C245    1.282   .     A
O242   C245    1.282   .     A
O243   C246    1.291   .     A
O244   C246    1.291   .     A
C245   C272    1.419   .     S
C246   C250    1.453   .     S
C247   C261    1.395   .     A
C247   H771    1.081   1_554 S
C247   C779    1.412   1_554 S
H248   C261    1.083   .     S
H249   C769    1.081   .     S
C250   C261    1.397   .     A
C250   C260    1.386   .     A
C251   C252    1.388   .     A
C251   H264    1.083   .     S
C251   C262    1.403   .     A
C252   C775    1.392   .     S
C252   H788    1.083   .     S
C253   H265    1.080   .     S
C253   C774    1.392   1_554 S
C253   C776    1.420   1_554 S
C254   C255    1.403   .     A
C254   C775    1.420   .     S
C254   C778    1.412   .     S
C255   C259    1.412   .     A
C255   C262    1.413   .     A
C256   C260    1.389   .     A
C256   C776    1.412   1_554 S
C256   C779    1.424   1_554 S
C257   C258    1.409   .     A
C257   C769    1.412   .     S
C257   C778    1.424   .     S
C258   C259    1.396   .     A
C258   N288    1.438   .     S
C259   H267    1.082   .     S
C260   H263    1.079   .     S
H266   C774    1.083   1_554 S
C268   C277    1.397   .     A
C268   H269    1.084   .     S
C268   C444    1.371   .     S
C270   C272    1.397   .     A
C270   H271    1.084   .     S
C272   C273    1.397   .     A
C273   H274    1.084   .     S
C275   H276    1.084   .     S
C275   C277    1.397   .     A
C275   C447    1.370   .     S
C278   N287    1.367   .     A
C278   H279    1.082   .     S
C278   C338    1.416   .     S
C280   H281    1.082   .     S
C280   N282    1.366   .     A
N282   C283    1.367   .     A
C283   H284    1.082   .     S
C285   H286    1.082   .     S
C285   N287    1.366   .     A
C285   C341    1.416   .     S
N288   O289    1.302   .     A
N288   O290    1.301   .     A
O291   Zn297   1.999   .     S
O291   C293    1.282   .     A
O292   C293    1.282   .     A
O292   Zn298   1.999   .     S
C293   C335    1.418   .     S
O294   Zn297   1.961   .     S
O294   C296    1.291   .     A
O295   Zn298   1.911   .     S
O295   C296    1.292   .     A
C296   C320    1.460   .     S
Zn297  O301    1.911   .     S
Zn297  O299    1.999   .     S
Zn297  N340    2.008   .     S
Zn298  O302    1.961   .     S
Zn298  N345    2.008   .     S
Zn298  O300    1.999   .     S
O299   C303    1.282   .     A
O300   C303    1.282   .     A
O301   C304    1.291   .     A
O302   C304    1.291   .     A
C303   C330    1.419   .     S
C304   C308    1.453   .     S
C305   C319    1.395   .     A
C305   H829    1.081   1_554 S
C305   C837    1.412   1_554 S
H306   C319    1.083   .     S
H307   C827    1.081   .     S
C308   C319    1.397   .     A
C308   C318    1.386   .     A
C309   C310    1.388   .     A
C309   H322    1.083   .     S
C309   C320    1.403   .     A
C310   C833    1.392   .     S
C310   H846    1.083   .     S
C311   H323    1.080   .     S
C311   C832    1.392   1_554 S
C311   C834    1.420   1_554 S
C312   C313    1.403   .     A
C312   C833    1.420   .     S
C312   C836    1.412   .     S
C313   C317    1.412   .     A
C313   C320    1.413   .     A
C314   C318    1.389   .     A
C314   C834    1.412   1_554 S
C314   C837    1.424   1_554 S
C315   C316    1.409   .     A
C315   C827    1.412   .     S
C315   C836    1.424   .     S
C316   C317    1.396   .     A
C316   N346    1.438   .     S
C317   H325    1.082   .     S
C318   H321    1.079   .     S
H324   C832    1.083   1_554 S
C326   C335    1.397   .     A
C326   H327    1.084   .     S
C326   C502    1.371   .     S
C328   C330    1.397   .     A
C328   H329    1.084   .     S
C330   C331    1.397   .     A
C331   H332    1.084   .     S
C333   H334    1.084   .     S
C333   C335    1.397   .     A
C333   C505    1.370   .     S
C336   N345    1.367   .     A
C336   H337    1.082   .     S
C336   C222    1.416   1_655 S
C338   H339    1.082   .     S
C338   N340    1.366   .     A
N340   C341    1.367   .     A
C341   H342    1.082   .     S
C343   H344    1.082   .     S
C343   N345    1.366   .     A
C343   C225    1.416   1_655 S
N346   O347    1.302   .     A
N346   O348    1.301   .     A
O349   Zn355   1.999   .     S
O349   C351    1.282   .     A
O350   C351    1.282   .     A
O350   Zn356   1.999   .     S
C351   C393    1.418   .     S
O352   Zn355   1.961   .     S
O352   C354    1.291   .     A
O353   Zn356   1.911   .     S
O353   C354    1.292   .     A
C354   C378    1.460   .     S
Zn355  O359    1.911   .     S
Zn355  O357    1.999   .     S
Zn355  N398    2.008   .     S
Zn356  O360    1.961   .     S
Zn356  N403    2.008   .     S
Zn356  O358    1.999   .     S
O357   C361    1.282   .     A
O358   C361    1.282   .     A
O359   C362    1.291   .     A
O360   C362    1.291   .     A
C361   C388    1.419   .     S
C362   C366    1.453   .     S
C363   C377    1.395   .     A
C363   H887    1.081   1_554 S
C363   C895    1.412   1_554 S
H364   C377    1.083   .     S
H365   C885    1.081   .     S
C366   C377    1.397   .     A
C366   C376    1.386   .     A
C367   C368    1.388   .     A
C367   H380    1.083   .     S
C367   C378    1.403   .     A
C368   C891    1.392   .     S
C368   H904    1.083   .     S
C369   H381    1.080   .     S
C369   C890    1.392   1_554 S
C369   C892    1.420   1_554 S
C370   C371    1.403   .     A
C370   C891    1.420   .     S
C370   C894    1.412   .     S
C371   C375    1.412   .     A
C371   C378    1.413   .     A
C372   C376    1.389   .     A
C372   C892    1.412   1_554 S
C372   C895    1.424   1_554 S
C373   C374    1.409   .     A
C373   C885    1.412   .     S
C373   C894    1.424   .     S
C374   C375    1.396   .     A
C374   N404    1.438   .     S
C375   H383    1.082   .     S
C376   H379    1.079   .     S
H382   C890    1.083   1_554 S
C384   C393    1.397   .     A
C384   H385    1.084   .     S
C384   C38     1.371   1_565 S
C386   C388    1.397   .     A
C386   H387    1.084   .     S
C388   C389    1.397   .     A
C389   H390    1.084   .     S
C391   H392    1.084   .     S
C391   C393    1.397   .     A
C391   C41     1.370   1_565 S
C394   N403    1.367   .     A
C394   H395    1.082   .     S
C394   C454    1.416   .     S
C396   H397    1.082   .     S
C396   N398    1.366   .     A
C396   C510    1.416   1_455 S
N398   C399    1.367   .     A
C399   H400    1.082   .     S
C399   C517    1.416   1_455 S
C401   H402    1.082   .     S
C401   N403    1.366   .     A
C401   C457    1.416   .     S
N404   O405    1.302   .     A
N404   O406    1.301   .     A
O407   Zn413   1.999   .     S
O407   C409    1.282   .     A
O408   C409    1.282   .     A
O408   Zn414   1.999   .     S
C409   C451    1.418   .     S
O410   Zn413   1.961   .     S
O410   C412    1.291   .     A
O411   Zn414   1.911   .     S
O411   C412    1.292   .     A
C412   C436    1.460   .     S
Zn413  O417    1.911   .     S
Zn413  O415    1.999   .     S
Zn413  N456    2.008   .     S
Zn414  O418    1.961   .     S
Zn414  N461    2.008   .     S
Zn414  O416    1.999   .     S
O415   C419    1.282   .     A
O416   C419    1.282   .     A
O417   C420    1.291   .     A
O418   C420    1.291   .     A
C419   C446    1.419   .     S
C420   C424    1.453   .     S
C421   C435    1.395   .     A
C421   H945    1.081   1_554 S
C421   C953    1.412   1_554 S
H422   C435    1.083   .     S
H423   C943    1.081   .     S
C424   C435    1.397   .     A
C424   C434    1.386   .     A
C425   C426    1.388   .     A
C425   H438    1.083   .     S
C425   C436    1.403   .     A
C426   C949    1.392   .     S
C426   H962    1.083   .     S
C427   H439    1.080   .     S
C427   C948    1.392   1_554 S
C427   C950    1.420   1_554 S
C428   C429    1.403   .     A
C428   C949    1.420   .     S
C428   C952    1.412   .     S
C429   C433    1.412   .     A
C429   C436    1.413   .     A
C430   C434    1.389   .     A
C430   C950    1.412   1_554 S
C430   C953    1.424   1_554 S
C431   C432    1.409   .     A
C431   C943    1.412   .     S
C431   C952    1.424   .     S
C432   C433    1.396   .     A
C432   N462    1.438   .     S
C433   H441    1.082   .     S
C434   H437    1.079   .     S
H440   C948    1.083   1_554 S
C442   C451    1.397   .     A
C442   H443    1.084   .     S
C442   C96     1.371   1_565 S
C444   C446    1.397   .     A
C444   H445    1.084   .     S
C446   C447    1.397   .     A
C447   H448    1.084   .     S
C449   H450    1.084   .     S
C449   C451    1.397   .     A
C449   C99     1.370   1_565 S
C452   N461    1.367   .     A
C452   H453    1.082   .     S
C452   C512    1.416   .     S
C454   H455    1.082   .     S
C454   N456    1.366   .     A
N456   C457    1.367   .     A
C457   H458    1.082   .     S
C459   H460    1.082   .     S
C459   N461    1.366   .     A
C459   C515    1.416   .     S
N462   O463    1.302   .     A
N462   O464    1.301   .     A
O465   Zn471   1.999   .     S
O465   C467    1.282   .     A
O466   C467    1.282   .     A
O466   Zn472   1.999   .     S
C467   C509    1.418   .     S
O468   Zn471   1.961   .     S
O468   C470    1.291   .     A
O469   Zn472   1.911   .     S
O469   C470    1.292   .     A
C470   C494    1.460   .     S
Zn471  O475    1.911   .     S
Zn471  O473    1.999   .     S
Zn471  N514    2.008   .     S
Zn472  O476    1.961   .     S
Zn472  N519    2.008   .     S
Zn472  O474    1.999   .     S
O473   C477    1.282   .     A
O474   C477    1.282   .     A
O475   C478    1.291   .     A
O476   C478    1.291   .     A
C477   C504    1.419   .     S
C478   C482    1.453   .     S
C479   C493    1.395   .     A
C479   H1003   1.081   1_554 S
C479   C1011   1.412   1_554 S
H480   C493    1.083   .     S
H481   C1001   1.081   .     S
C482   C493    1.397   .     A
C482   C492    1.386   .     A
C483   C484    1.388   .     A
C483   H496    1.083   .     S
C483   C494    1.403   .     A
C484   C1007   1.392   .     S
C484   H1020   1.083   .     S
C485   H497    1.080   .     S
C485   C1006   1.392   1_554 S
C485   C1008   1.420   1_554 S
C486   C487    1.403   .     A
C486   C1007   1.420   .     S
C486   C1010   1.412   .     S
C487   C491    1.412   .     A
C487   C494    1.413   .     A
C488   C492    1.389   .     A
C488   C1008   1.412   1_554 S
C488   C1011   1.424   1_554 S
C489   C490    1.409   .     A
C489   C1001   1.412   .     S
C489   C1010   1.424   .     S
C490   C491    1.396   .     A
C490   N520    1.438   .     S
C491   H499    1.082   .     S
C492   H495    1.079   .     S
H498   C1006   1.083   1_554 S
C500   C509    1.397   .     A
C500   H501    1.084   .     S
C500   C154    1.371   1_565 S
C502   C504    1.397   .     A
C502   H503    1.084   .     S
C504   C505    1.397   .     A
C505   H506    1.084   .     S
C507   H508    1.084   .     S
C507   C509    1.397   .     A
C507   C157    1.370   1_565 S
C510   N519    1.367   .     A
C510   H511    1.082   .     S
C510   C396    1.416   1_655 S
C512   H513    1.082   .     S
C512   N514    1.366   .     A
N514   C515    1.367   .     A
C515   H516    1.082   .     S
C517   H518    1.082   .     S
C517   N519    1.366   .     A
C517   C399    1.416   1_655 S
N520   O521    1.302   .     A
N520   O522    1.301   .     A
O523   Zn529   1.999   .     S
O523   C525    1.282   .     A
O524   C525    1.282   .     A
O524   Zn530   1.999   .     S
C525   C567    1.418   .     S
O526   Zn529   1.961   .     S
O526   C528    1.291   .     A
O527   Zn530   1.911   .     S
O527   C528    1.292   .     A
C528   C552    1.460   .     S
Zn529  O533    1.911   .     S
Zn529  O531    1.999   .     S
Zn529  N572    2.008   .     S
Zn530  O534    1.961   .     S
Zn530  N577    2.008   .     S
Zn530  O532    1.999   .     S
O531   C535    1.282   .     A
O532   C535    1.282   .     A
O533   C536    1.291   .     A
O534   C536    1.291   .     A
C535   C562    1.419   .     S
C536   C540    1.453   .     S
C537   C551    1.395   .     A
H538   C551    1.083   .     S
H539   C15     1.081   1_556 S
C540   C551    1.397   .     A
C540   C550    1.386   .     A
C541   C542    1.388   .     A
C541   H554    1.083   .     S
C541   C552    1.403   .     A
C542   C21     1.392   1_556 S
C542   H34     1.083   1_556 S
C543   H555    1.080   .     S
C544   C545    1.403   .     A
C544   C21     1.420   1_556 S
C544   C24     1.412   1_556 S
C545   C549    1.412   .     A
C545   C552    1.413   .     A
C546   C550    1.389   .     A
C547   C548    1.409   .     A
C547   C15     1.412   1_556 S
C547   C24     1.424   1_556 S
C548   C549    1.396   .     A
C548   N578    1.438   .     S
C549   H557    1.082   .     S
C550   H553    1.079   .     S
C558   C567    1.397   .     A
C558   H559    1.084   .     S
C558   C734    1.371   .     S
C560   C562    1.397   .     A
C560   H561    1.084   .     S
C560   C906    1.371   1_545 S
C562   C563    1.397   .     A
C563   H564    1.084   .     S
C563   C913    1.370   1_545 S
C565   H566    1.084   .     S
C565   C567    1.397   .     A
C565   C737    1.370   .     S
C568   N577    1.367   .     A
C568   H569    1.082   .     S
C568   C628    1.416   .     S
C570   H571    1.082   .     S
C570   N572    1.366   .     A
C570   C684    1.416   1_455 S
N572   C573    1.367   .     A
C573   H574    1.082   .     S
C573   C691    1.416   1_455 S
C575   H576    1.082   .     S
C575   N577    1.366   .     A
C575   C631    1.416   .     S
N578   O579    1.302   .     A
N578   O580    1.301   .     A
O581   Zn587   1.999   .     S
O581   C583    1.282   .     A
O582   C583    1.282   .     A
O582   Zn588   1.999   .     S
C583   C625    1.418   .     S
O584   Zn587   1.961   .     S
O584   C586    1.291   .     A
O585   Zn588   1.911   .     S
O585   C586    1.292   .     A
C586   C610    1.460   .     S
Zn587  O591    1.911   .     S
Zn587  O589    1.999   .     S
Zn587  N630    2.008   .     S
Zn588  O592    1.961   .     S
Zn588  N635    2.008   .     S
Zn588  O590    1.999   .     S
O589   C593    1.282   .     A
O590   C593    1.282   .     A
O591   C594    1.291   .     A
O592   C594    1.291   .     A
C593   C620    1.419   .     S
C594   C598    1.453   .     S
C595   C609    1.395   .     A
H596   C609    1.083   .     S
H597   C73     1.081   1_556 S
C598   C609    1.397   .     A
C598   C608    1.386   .     A
C599   C600    1.388   .     A
C599   H612    1.083   .     S
C599   C610    1.403   .     A
C600   C79     1.392   1_556 S
C600   H92     1.083   1_556 S
C601   H613    1.080   .     S
C602   C603    1.403   .     A
C602   C79     1.420   1_556 S
C602   C82     1.412   1_556 S
C603   C607    1.412   .     A
C603   C610    1.413   .     A
C604   C608    1.389   .     A
C605   C606    1.409   .     A
C605   C73     1.412   1_556 S
C605   C82     1.424   1_556 S
C606   C607    1.396   .     A
C606   N636    1.438   .     S
C607   H615    1.082   .     S
C608   H611    1.079   .     S
C616   C625    1.397   .     A
C616   H617    1.084   .     S
C616   C792    1.371   .     S
C618   C620    1.397   .     A
C618   H619    1.084   .     S
C618   C964    1.371   1_545 S
C620   C621    1.397   .     A
C621   H622    1.084   .     S
C621   C971    1.370   1_545 S
C623   H624    1.084   .     S
C623   C625    1.397   .     A
C623   C795    1.370   .     S
C626   N635    1.367   .     A
C626   H627    1.082   .     S
C626   C686    1.416   .     S
C628   H629    1.082   .     S
C628   N630    1.366   .     A
N630   C631    1.367   .     A
C631   H632    1.082   .     S
C633   H634    1.082   .     S
C633   N635    1.366   .     A
C633   C689    1.416   .     S
N636   O637    1.302   .     A
N636   O638    1.301   .     A
O639   Zn645   1.999   .     S
O639   C641    1.282   .     A
O640   C641    1.282   .     A
O640   Zn646   1.999   .     S
C641   C683    1.418   .     S
O642   Zn645   1.961   .     S
O642   C644    1.291   .     A
O643   Zn646   1.911   .     S
O643   C644    1.292   .     A
C644   C668    1.460   .     S
Zn645  O649    1.911   .     S
Zn645  O647    1.999   .     S
Zn645  N688    2.008   .     S
Zn646  O650    1.961   .     S
Zn646  N693    2.008   .     S
Zn646  O648    1.999   .     S
O647   C651    1.282   .     A
O648   C651    1.282   .     A
O649   C652    1.291   .     A
O650   C652    1.291   .     A
C651   C678    1.419   .     S
C652   C656    1.453   .     S
C653   C667    1.395   .     A
H654   C667    1.083   .     S
H655   C131    1.081   1_556 S
C656   C667    1.397   .     A
C656   C666    1.386   .     A
C657   C658    1.388   .     A
C657   H670    1.083   .     S
C657   C668    1.403   .     A
C658   C137    1.392   1_556 S
C658   H150    1.083   1_556 S
C659   H671    1.080   .     S
C660   C661    1.403   .     A
C660   C137    1.420   1_556 S
C660   C140    1.412   1_556 S
C661   C665    1.412   .     A
C661   C668    1.413   .     A
C662   C666    1.389   .     A
C663   C664    1.409   .     A
C663   C131    1.412   1_556 S
C663   C140    1.424   1_556 S
C664   C665    1.396   .     A
C664   N694    1.438   .     S
C665   H673    1.082   .     S
C666   H669    1.079   .     S
C674   C683    1.397   .     A
C674   H675    1.084   .     S
C674   C850    1.371   .     S
C676   C678    1.397   .     A
C676   H677    1.084   .     S
C676   C1022   1.371   1_545 S
C678   C679    1.397   .     A
C679   H680    1.084   .     S
C679   C1029   1.370   1_545 S
C681   H682    1.084   .     S
C681   C683    1.397   .     A
C681   C853    1.370   .     S
C684   N693    1.367   .     A
C684   H685    1.082   .     S
C684   C570    1.416   1_655 S
C686   H687    1.082   .     S
C686   N688    1.366   .     A
N688   C689    1.367   .     A
C689   H690    1.082   .     S
C691   H692    1.082   .     S
C691   N693    1.366   .     A
C691   C573    1.416   1_655 S
N694   O695    1.302   .     A
N694   O696    1.301   .     A
O697   Zn703   1.999   .     S
O697   C699    1.282   .     A
O698   C699    1.282   .     A
O698   Zn704   1.999   .     S
C699   C741    1.418   .     S
O700   Zn703   1.961   .     S
O700   C702    1.291   .     A
O701   Zn704   1.911   .     S
O701   C702    1.292   .     A
C702   C726    1.460   .     S
Zn703  O707    1.911   .     S
Zn703  O705    1.999   .     S
Zn703  N746    2.008   .     S
Zn704  O708    1.961   .     S
Zn704  N751    2.008   .     S
Zn704  O706    1.999   .     S
O705   C709    1.282   .     A
O706   C709    1.282   .     A
O707   C710    1.291   .     A
O708   C710    1.291   .     A
C709   C736    1.419   .     S
C710   C714    1.453   .     S
C711   C725    1.395   .     A
H712   C725    1.083   .     S
H713   C189    1.081   1_556 S
C714   C725    1.397   .     A
C714   C724    1.386   .     A
C715   C716    1.388   .     A
C715   H728    1.083   .     S
C715   C726    1.403   .     A
C716   C195    1.392   1_556 S
C716   H208    1.083   1_556 S
C717   H729    1.080   .     S
C718   C719    1.403   .     A
C718   C195    1.420   1_556 S
C718   C198    1.412   1_556 S
C719   C723    1.412   .     A
C719   C726    1.413   .     A
C720   C724    1.389   .     A
C721   C722    1.409   .     A
C721   C189    1.412   1_556 S
C721   C198    1.424   1_556 S
C722   C723    1.396   .     A
C722   N752    1.438   .     S
C723   H731    1.082   .     S
C724   H727    1.079   .     S
C732   C741    1.397   .     A
C732   H733    1.084   .     S
C732   C908    1.371   .     S
C734   C736    1.397   .     A
C734   H735    1.084   .     S
C736   C737    1.397   .     A
C737   H738    1.084   .     S
C739   H740    1.084   .     S
C739   C741    1.397   .     A
C739   C911    1.370   .     S
C742   N751    1.367   .     A
C742   H743    1.082   .     S
C742   C802    1.416   .     S
C744   H745    1.082   .     S
C744   N746    1.366   .     A
C744   C858    1.416   1_455 S
N746   C747    1.367   .     A
C747   H748    1.082   .     S
C747   C865    1.416   1_455 S
C749   H750    1.082   .     S
C749   N751    1.366   .     A
C749   C805    1.416   .     S
N752   O753    1.302   .     A
N752   O754    1.301   .     A
O755   Zn761   1.999   .     S
O755   C757    1.282   .     A
O756   C757    1.282   .     A
O756   Zn762   1.999   .     S
C757   C799    1.418   .     S
O758   Zn761   1.961   .     S
O758   C760    1.291   .     A
O759   Zn762   1.911   .     S
O759   C760    1.292   .     A
C760   C784    1.460   .     S
Zn761  O765    1.911   .     S
Zn761  O763    1.999   .     S
Zn761  N804    2.008   .     S
Zn762  O766    1.961   .     S
Zn762  N809    2.008   .     S
Zn762  O764    1.999   .     S
O763   C767    1.282   .     A
O764   C767    1.282   .     A
O765   C768    1.291   .     A
O766   C768    1.291   .     A
C767   C794    1.419   .     S
C768   C772    1.453   .     S
C769   C783    1.395   .     A
H770   C783    1.083   .     S
H771   C247    1.081   1_556 S
C772   C783    1.397   .     A
C772   C782    1.386   .     A
C773   C774    1.388   .     A
C773   H786    1.083   .     S
C773   C784    1.403   .     A
C774   C253    1.392   1_556 S
C774   H266    1.083   1_556 S
C775   H787    1.080   .     S
C776   C777    1.403   .     A
C776   C253    1.420   1_556 S
C776   C256    1.412   1_556 S
C777   C781    1.412   .     A
C777   C784    1.413   .     A
C778   C782    1.389   .     A
C779   C780    1.409   .     A
C779   C247    1.412   1_556 S
C779   C256    1.424   1_556 S
C780   C781    1.396   .     A
C780   N810    1.438   .     S
C781   H789    1.082   .     S
C782   H785    1.079   .     S
C790   C799    1.397   .     A
C790   H791    1.084   .     S
C790   C966    1.371   .     S
C792   C794    1.397   .     A
C792   H793    1.084   .     S
C794   C795    1.397   .     A
C795   H796    1.084   .     S
C797   H798    1.084   .     S
C797   C799    1.397   .     A
C797   C969    1.370   .     S
C800   N809    1.367   .     A
C800   H801    1.082   .     S
C800   C860    1.416   .     S
C802   H803    1.082   .     S
C802   N804    1.366   .     A
N804   C805    1.367   .     A
C805   H806    1.082   .     S
C807   H808    1.082   .     S
C807   N809    1.366   .     A
C807   C863    1.416   .     S
N810   O811    1.302   .     A
N810   O812    1.301   .     A
O813   Zn819   1.999   .     S
O813   C815    1.282   .     A
O814   C815    1.282   .     A
O814   Zn820   1.999   .     S
C815   C857    1.418   .     S
O816   Zn819   1.961   .     S
O816   C818    1.291   .     A
O817   Zn820   1.911   .     S
O817   C818    1.292   .     A
C818   C842    1.460   .     S
Zn819  O823    1.911   .     S
Zn819  O821    1.999   .     S
Zn819  N862    2.008   .     S
Zn820  O824    1.961   .     S
Zn820  N867    2.008   .     S
Zn820  O822    1.999   .     S
O821   C825    1.282   .     A
O822   C825    1.282   .     A
O823   C826    1.291   .     A
O824   C826    1.291   .     A
C825   C852    1.419   .     S
C826   C830    1.453   .     S
C827   C841    1.395   .     A
H828   C841    1.083   .     S
H829   C305    1.081   1_556 S
C830   C841    1.397   .     A
C830   C840    1.386   .     A
C831   C832    1.388   .     A
C831   H844    1.083   .     S
C831   C842    1.403   .     A
C832   C311    1.392   1_556 S
C832   H324    1.083   1_556 S
C833   H845    1.080   .     S
C834   C835    1.403   .     A
C834   C311    1.420   1_556 S
C834   C314    1.412   1_556 S
C835   C839    1.412   .     A
C835   C842    1.413   .     A
C836   C840    1.389   .     A
C837   C838    1.409   .     A
C837   C305    1.412   1_556 S
C837   C314    1.424   1_556 S
C838   C839    1.396   .     A
C838   N868    1.438   .     S
C839   H847    1.082   .     S
C840   H843    1.079   .     S
C848   C857    1.397   .     A
C848   H849    1.084   .     S
C848   C1024   1.371   .     S
C850   C852    1.397   .     A
C850   H851    1.084   .     S
C852   C853    1.397   .     A
C853   H854    1.084   .     S
C855   H856    1.084   .     S
C855   C857    1.397   .     A
C855   C1027   1.370   .     S
C858   N867    1.367   .     A
C858   H859    1.082   .     S
C858   C744    1.416   1_655 S
C860   H861    1.082   .     S
C860   N862    1.366   .     A
N862   C863    1.367   .     A
C863   H864    1.082   .     S
C865   H866    1.082   .     S
C865   N867    1.366   .     A
C865   C747    1.416   1_655 S
N868   O869    1.302   .     A
N868   O870    1.301   .     A
O871   Zn877   1.999   .     S
O871   C873    1.282   .     A
O872   C873    1.282   .     A
O872   Zn878   1.999   .     S
C873   C915    1.418   .     S
O874   Zn877   1.961   .     S
O874   C876    1.291   .     A
O875   Zn878   1.911   .     S
O875   C876    1.292   .     A
C876   C900    1.460   .     S
Zn877  O881    1.911   .     S
Zn877  O879    1.999   .     S
Zn877  N920    2.008   .     S
Zn878  O882    1.961   .     S
Zn878  N925    2.008   .     S
Zn878  O880    1.999   .     S
O879   C883    1.282   .     A
O880   C883    1.282   .     A
O881   C884    1.291   .     A
O882   C884    1.291   .     A
C883   C910    1.419   .     S
C884   C888    1.453   .     S
C885   C899    1.395   .     A
H886   C899    1.083   .     S
H887   C363    1.081   1_556 S
C888   C899    1.397   .     A
C888   C898    1.386   .     A
C889   C890    1.388   .     A
C889   H902    1.083   .     S
C889   C900    1.403   .     A
C890   C369    1.392   1_556 S
C890   H382    1.083   1_556 S
C891   H903    1.080   .     S
C892   C893    1.403   .     A
C892   C369    1.420   1_556 S
C892   C372    1.412   1_556 S
C893   C897    1.412   .     A
C893   C900    1.413   .     A
C894   C898    1.389   .     A
C895   C896    1.409   .     A
C895   C363    1.412   1_556 S
C895   C372    1.424   1_556 S
C896   C897    1.396   .     A
C896   N926    1.438   .     S
C897   H905    1.082   .     S
C898   H901    1.079   .     S
C906   C915    1.397   .     A
C906   H907    1.084   .     S
C906   C560    1.371   1_565 S
C908   C910    1.397   .     A
C908   H909    1.084   .     S
C910   C911    1.397   .     A
C911   H912    1.084   .     S
C913   H914    1.084   .     S
C913   C915    1.397   .     A
C913   C563    1.370   1_565 S
C916   N925    1.367   .     A
C916   H917    1.082   .     S
C916   C976    1.416   .     S
C918   H919    1.082   .     S
C918   N920    1.366   .     A
C918   C1032   1.416   1_455 S
N920   C921    1.367   .     A
C921   H922    1.082   .     S
C921   C1039   1.416   1_455 S
C923   H924    1.082   .     S
C923   N925    1.366   .     A
C923   C979    1.416   .     S
N926   O927    1.302   .     A
N926   O928    1.301   .     A
O929   Zn935   1.999   .     S
O929   C931    1.282   .     A
O930   C931    1.282   .     A
O930   Zn936   1.999   .     S
C931   C973    1.418   .     S
O932   Zn935   1.961   .     S
O932   C934    1.291   .     A
O933   Zn936   1.911   .     S
O933   C934    1.292   .     A
C934   C958    1.460   .     S
Zn935  O939    1.911   .     S
Zn935  O937    1.999   .     S
Zn935  N978    2.008   .     S
Zn936  O940    1.961   .     S
Zn936  N983    2.008   .     S
Zn936  O938    1.999   .     S
O937   C941    1.282   .     A
O938   C941    1.282   .     A
O939   C942    1.291   .     A
O940   C942    1.291   .     A
C941   C968    1.419   .     S
C942   C946    1.453   .     S
C943   C957    1.395   .     A
H944   C957    1.083   .     S
H945   C421    1.081   1_556 S
C946   C957    1.397   .     A
C946   C956    1.386   .     A
C947   C948    1.388   .     A
C947   H960    1.083   .     S
C947   C958    1.403   .     A
C948   C427    1.392   1_556 S
C948   H440    1.083   1_556 S
C949   H961    1.080   .     S
C950   C951    1.403   .     A
C950   C427    1.420   1_556 S
C950   C430    1.412   1_556 S
C951   C955    1.412   .     A
C951   C958    1.413   .     A
C952   C956    1.389   .     A
C953   C954    1.409   .     A
C953   C421    1.412   1_556 S
C953   C430    1.424   1_556 S
C954   C955    1.396   .     A
C954   N984    1.438   .     S
C955   H963    1.082   .     S
C956   H959    1.079   .     S
C964   C973    1.397   .     A
C964   H965    1.084   .     S
C964   C618    1.371   1_565 S
C966   C968    1.397   .     A
C966   H967    1.084   .     S
C968   C969    1.397   .     A
C969   H970    1.084   .     S
C971   H972    1.084   .     S
C971   C973    1.397   .     A
C971   C621    1.370   1_565 S
C974   N983    1.367   .     A
C974   H975    1.082   .     S
C974   C1034   1.416   .     S
C976   H977    1.082   .     S
C976   N978    1.366   .     A
N978   C979    1.367   .     A
C979   H980    1.082   .     S
C981   H982    1.082   .     S
C981   N983    1.366   .     A
C981   C1037   1.416   .     S
N984   O985    1.302   .     A
N984   O986    1.301   .     A
O987   Zn993   1.999   .     S
O987   C989    1.282   .     A
O988   C989    1.282   .     A
O988   Zn994   1.999   .     S
C989   C1031   1.418   .     S
O990   Zn993   1.961   .     S
O990   C992    1.291   .     A
O991   Zn994   1.911   .     S
O991   C992    1.292   .     A
C992   C1016   1.460   .     S
Zn993  O997    1.911   .     S
Zn993  O995    1.999   .     S
Zn993  N1036   2.008   .     S
Zn994  O998    1.961   .     S
Zn994  N1041   2.008   .     S
Zn994  O996    1.999   .     S
O995   C999    1.282   .     A
O996   C999    1.282   .     A
O997   C1000   1.291   .     A
O998   C1000   1.291   .     A
C999   C1026   1.419   .     S
C1000  C1004   1.453   .     S
C1001  C1015   1.395   .     A
H1002  C1015   1.083   .     S
H1003  C479    1.081   1_556 S
C1004  C1015   1.397   .     A
C1004  C1014   1.386   .     A
C1005  C1006   1.388   .     A
C1005  H1018   1.083   .     S
C1005  C1016   1.403   .     A
C1006  C485    1.392   1_556 S
C1006  H498    1.083   1_556 S
C1007  H1019   1.080   .     S
C1008  C1009   1.403   .     A
C1008  C485    1.420   1_556 S
C1008  C488    1.412   1_556 S
C1009  C1013   1.412   .     A
C1009  C1016   1.413   .     A
C1010  C1014   1.389   .     A
C1011  C1012   1.409   .     A
C1011  C479    1.412   1_556 S
C1011  C488    1.424   1_556 S
C1012  C1013   1.396   .     A
C1012  N1042   1.438   .     S
C1013  H1021   1.082   .     S
C1014  H1017   1.079   .     S
C1022  C1031   1.397   .     A
C1022  H1023   1.084   .     S
C1022  C676    1.371   1_565 S
C1024  C1026   1.397   .     A
C1024  H1025   1.084   .     S
C1026  C1027   1.397   .     A
C1027  H1028   1.084   .     S
C1029  H1030   1.084   .     S
C1029  C1031   1.397   .     A
C1029  C679    1.370   1_565 S
C1032  N1041   1.367   .     A
C1032  H1033   1.082   .     S
C1032  C918    1.416   1_655 S
C1034  H1035   1.082   .     S
C1034  N1036   1.366   .     A
N1036  C1037   1.367   .     A
C1037  H1038   1.082   .     S
C1039  H1040   1.082   .     S
C1039  N1041   1.366   .     A
C1039  C921    1.416   1_655 S
N1042  O1043   1.302   .     A
N1042  O1044   1.301   .     A
