data_str_m3_o1_o5_pcu_sym.17
_audit_creation_date              2020-01-03
_audit_creation_method            'Materials Studio'
_symmetry_space_group_name_H-M    'P1'
_symmetry_Int_Tables_number       1
_symmetry_cell_setting            triclinic
loop_
_symmetry_equiv_pos_as_xyz
  x,y,z
_cell_length_a                    31.8522
_cell_length_b                    30.2097
_cell_length_c                    26.5711
_cell_angle_alpha                 90.7468
_cell_angle_beta                  93.0551
_cell_angle_gamma                 88.0995
loop_
_atom_site_label
_atom_site_type_symbol
_atom_site_fract_x
_atom_site_fract_y
_atom_site_fract_z
_atom_site_U_iso_or_equiv
_atom_site_adp_type
_atom_site_occupancy
C1     C     0.08703   0.16730   0.16589   0.00000  Uiso   1.00
C2     C     0.02324   0.18169   0.20947   0.00000  Uiso   1.00
C3     C     0.29065   0.16490   0.16696   0.00000  Uiso   1.00
C4     C     0.04264   0.16850   0.16516   0.00000  Uiso   1.00
C5     C     0.19547   0.02322   0.19671   0.00000  Uiso   1.00
C6     C     0.13577   0.31081   0.14035   0.00000  Uiso   1.00
C7     C     0.13961   0.02430   0.13499   0.00000  Uiso   1.00
C8     C     0.19419   0.30884   0.19842   0.00000  Uiso   1.00
C9     C     0.04183   0.15034   0.07219   0.00000  Uiso   1.00
C10    C     0.29218   0.19141   0.25802   0.00000  Uiso   1.00
C11    C     0.28443   0.13152   0.07991   0.00000  Uiso   1.00
C12    C     0.24628   0.16605   0.16677   0.00000  Uiso   1.00
C13    C     0.04829   0.19476   0.25574   0.00000  Uiso   1.00
C14    C     0.23193   0.04596   0.22451   0.00000  Uiso   1.00
C15    C     0.27235   0.04028   0.19535   0.00000  Uiso   1.00
C16    C     0.31057   0.05682   0.22627   0.00000  Uiso   1.00
C17    C     0.09134   0.29417   0.13257   0.00000  Uiso   1.00
C18    C     0.08203   0.27128   0.08134   0.00000  Uiso   1.00
C19    C     0.03473   0.26743   0.07028   0.00000  Uiso   1.00
C20    C     0.11655   0.04681   0.09026   0.00000  Uiso   1.00
C21    C     0.14135   0.04011   0.04264   0.00000  Uiso   1.00
C22    C     0.11701   0.05916   0.32967   0.00000  Uiso   1.00
C23    C     0.16651   0.16650   0.07315   0.00000  Uiso   1.00
C24    C     0.21891   0.28505   0.24122   0.00000  Uiso   1.00
C25    C     0.19713   0.29157   0.29128   0.00000  Uiso   1.00
C26    C     0.22380   0.27192   0.00214   0.00000  Uiso   1.00
C27    C     0.16735   0.16682   0.26021   0.00000  Uiso   1.00
C28    C     0.16706   0.16643   0.02192   0.00000  Uiso   1.00
C29    C     0.16743   0.16691   0.31152   0.00000  Uiso   1.00
C30    C     0.02004   0.15537   0.12071   0.00000  Uiso   1.00
C31    C     0.31317   0.18035   0.21033   0.00000  Uiso   1.00
C32    C     0.30998   0.15099   0.12277   0.00000  Uiso   1.00
H33    H     0.07570   0.14649   0.07220   0.00000  Uiso   1.00
H34    H     0.22479   0.08095   0.23171   0.00000  Uiso   1.00
H35    H     0.23780   0.03334   0.26319   0.00000  Uiso   1.00
H36    H     0.02044   0.24975   0.10115   0.00000  Uiso   1.00
H37    H     0.01940   0.30086   0.06634   0.00000  Uiso   1.00
H38    H     0.02888   0.24875   0.03447   0.00000  Uiso   1.00
H39    H     0.09480   0.29027   0.05055   0.00000  Uiso   1.00
H40    H     0.09668   0.23769   0.08071   0.00000  Uiso   1.00
H41    H     0.08313   0.27465   0.16498   0.00000  Uiso   1.00
H42    H     0.06822   0.32210   0.13697   0.00000  Uiso   1.00
H43    H     0.08760   0.04096   0.32181   0.00000  Uiso   1.00
H44    H     0.30303   0.21841   0.28210   0.00000  Uiso   1.00
H45    H     0.10887   0.09475   0.00243   0.00000  Uiso   1.00
H46    H     0.13651   0.05582   0.29633   0.00000  Uiso   1.00
H47    H     0.17226   0.05602   0.04749   0.00000  Uiso   1.00
H48    H     0.14766   0.00426   0.03603   0.00000  Uiso   1.00
H49    H     0.08450   0.03462   0.08241   0.00000  Uiso   1.00
H50    H     0.11104   0.08200   0.09751   0.00000  Uiso   1.00
H51    H     0.22970   0.23591   0.32942   0.00000  Uiso   1.00
H52    H     0.25438   0.28856   0.00653   0.00000  Uiso   1.00
H53    H     0.20699   0.27676   0.03745   0.00000  Uiso   1.00
H54    H     0.19114   0.32720   0.29924   0.00000  Uiso   1.00
H55    H     0.25383   0.14599   0.06874   0.00000  Uiso   1.00
H56    H     0.16605   0.27588   0.28886   0.00000  Uiso   1.00
H57    H     0.22273   0.24980   0.23408   0.00000  Uiso   1.00
H58    H     0.25180   0.29586   0.24520   0.00000  Uiso   1.00
H59    H     0.04160   0.22611   0.27448   0.00000  Uiso   1.00
H60    H     0.30487   0.09144   0.23911   0.00000  Uiso   1.00
H61    H     0.31729   0.03561   0.25976   0.00000  Uiso   1.00
H62    H     0.00515   0.05555   0.20289   0.00000  Uiso   1.00
H63    H     0.27852   0.00494   0.18537   0.00000  Uiso   1.00
H64    H     0.26881   0.05846   0.15930   0.00000  Uiso   1.00
N65    N     0.16667   0.28573   0.16667   0.00000  Uiso   1.00
N66    N     0.16667   0.04760   0.16667   0.00000  Uiso   1.00
O67    O     0.10559   0.20487   0.16666   0.00000  Uiso   1.00
O68    O     0.26365   0.16929   0.27181   0.00000  Uiso   1.00
O69    O     0.29668   0.09799   0.05826   0.00000  Uiso   1.00
O70    O     0.07538   0.16958   0.27421   0.00000  Uiso   1.00
O71    O     0.22774   0.12846   0.16667   0.00000  Uiso   1.00
O72    O     0.22774   0.20487   0.16667   0.00000  Uiso   1.00
O73    O     0.10559   0.12846   0.16666   0.00000  Uiso   1.00
O74    O     0.16667   0.20488   0.09511   0.00000  Uiso   1.00
O75    O     0.16666   0.12845   0.23822   0.00000  Uiso   1.00
O76    O     0.16666   0.20488   0.23822   0.00000  Uiso   1.00
O77    O     0.16667   0.12845   0.09511   0.00000  Uiso   1.00
O78    O     0.02259   0.15331   0.03135   0.00000  Uiso   1.00
Zn79   Zn    0.16667   0.21771   0.16667   0.00000  Uiso   1.00
Zn80   Zn    0.16667   0.11563   0.16667   0.00000  Uiso   1.00
C81    C     0.42037   0.16730   0.16589   0.00000  Uiso   1.00
C82    C     0.35657   0.18169   0.20947   0.00000  Uiso   1.00
C83    C     0.62398   0.16490   0.16696   0.00000  Uiso   1.00
C84    C     0.37597   0.16850   0.16516   0.00000  Uiso   1.00
C85    C     0.52880   0.02322   0.19671   0.00000  Uiso   1.00
C86    C     0.46911   0.31081   0.14035   0.00000  Uiso   1.00
C87    C     0.47294   0.02430   0.13499   0.00000  Uiso   1.00
C88    C     0.52753   0.30884   0.19842   0.00000  Uiso   1.00
C89    C     0.37516   0.15034   0.07219   0.00000  Uiso   1.00
C90    C     0.62551   0.19141   0.25802   0.00000  Uiso   1.00
C91    C     0.61776   0.13152   0.07991   0.00000  Uiso   1.00
C92    C     0.57961   0.16605   0.16677   0.00000  Uiso   1.00
C93    C     0.38162   0.19476   0.25574   0.00000  Uiso   1.00
C94    C     0.56526   0.04596   0.22451   0.00000  Uiso   1.00
C95    C     0.60568   0.04028   0.19535   0.00000  Uiso   1.00
C96    C     0.64390   0.05682   0.22627   0.00000  Uiso   1.00
C97    C     0.42467   0.29417   0.13257   0.00000  Uiso   1.00
C98    C     0.41536   0.27128   0.08134   0.00000  Uiso   1.00
C99    C     0.36806   0.26743   0.07028   0.00000  Uiso   1.00
C100   C     0.44989   0.04681   0.09026   0.00000  Uiso   1.00
C101   C     0.47469   0.04011   0.04264   0.00000  Uiso   1.00
C102   C     0.45034   0.05916   0.32967   0.00000  Uiso   1.00
C103   C     0.49984   0.16650   0.07315   0.00000  Uiso   1.00
C104   C     0.55224   0.28505   0.24122   0.00000  Uiso   1.00
C105   C     0.53046   0.29157   0.29128   0.00000  Uiso   1.00
C106   C     0.55713   0.27192   0.00214   0.00000  Uiso   1.00
C107   C     0.50069   0.16682   0.26021   0.00000  Uiso   1.00
C108   C     0.50039   0.16643   0.02192   0.00000  Uiso   1.00
C109   C     0.50077   0.16691   0.31152   0.00000  Uiso   1.00
C110   C     0.35337   0.15537   0.12071   0.00000  Uiso   1.00
C111   C     0.64650   0.18035   0.21033   0.00000  Uiso   1.00
C112   C     0.64331   0.15099   0.12277   0.00000  Uiso   1.00
H113   H     0.40904   0.14649   0.07220   0.00000  Uiso   1.00
H114   H     0.55812   0.08095   0.23171   0.00000  Uiso   1.00
H115   H     0.57114   0.03334   0.26319   0.00000  Uiso   1.00
H116   H     0.35378   0.24975   0.10115   0.00000  Uiso   1.00
H117   H     0.35274   0.30086   0.06634   0.00000  Uiso   1.00
H118   H     0.36221   0.24875   0.03447   0.00000  Uiso   1.00
H119   H     0.42813   0.29027   0.05055   0.00000  Uiso   1.00
H120   H     0.43001   0.23769   0.08071   0.00000  Uiso   1.00
H121   H     0.41646   0.27465   0.16498   0.00000  Uiso   1.00
H122   H     0.40156   0.32210   0.13697   0.00000  Uiso   1.00
H123   H     0.42093   0.04096   0.32181   0.00000  Uiso   1.00
H124   H     0.63636   0.21841   0.28210   0.00000  Uiso   1.00
H125   H     0.44221   0.09475   0.00243   0.00000  Uiso   1.00
H126   H     0.46984   0.05582   0.29633   0.00000  Uiso   1.00
H127   H     0.50559   0.05602   0.04749   0.00000  Uiso   1.00
H128   H     0.48100   0.00426   0.03603   0.00000  Uiso   1.00
H129   H     0.41783   0.03462   0.08241   0.00000  Uiso   1.00
H130   H     0.44438   0.08200   0.09751   0.00000  Uiso   1.00
H131   H     0.56303   0.23591   0.32942   0.00000  Uiso   1.00
H132   H     0.58771   0.28856   0.00653   0.00000  Uiso   1.00
H133   H     0.54032   0.27676   0.03745   0.00000  Uiso   1.00
H134   H     0.52447   0.32720   0.29924   0.00000  Uiso   1.00
H135   H     0.58716   0.14599   0.06874   0.00000  Uiso   1.00
H136   H     0.49938   0.27588   0.28886   0.00000  Uiso   1.00
H137   H     0.55607   0.24980   0.23408   0.00000  Uiso   1.00
H138   H     0.58513   0.29586   0.24520   0.00000  Uiso   1.00
H139   H     0.37493   0.22611   0.27448   0.00000  Uiso   1.00
H140   H     0.63820   0.09144   0.23911   0.00000  Uiso   1.00
H141   H     0.65062   0.03561   0.25976   0.00000  Uiso   1.00
H142   H     0.33848   0.05555   0.20289   0.00000  Uiso   1.00
H143   H     0.61185   0.00494   0.18537   0.00000  Uiso   1.00
H144   H     0.60214   0.05846   0.15930   0.00000  Uiso   1.00
N145   N     0.50000   0.28573   0.16667   0.00000  Uiso   1.00
N146   N     0.50000   0.04760   0.16667   0.00000  Uiso   1.00
O147   O     0.43892   0.20487   0.16666   0.00000  Uiso   1.00
O148   O     0.59698   0.16929   0.27181   0.00000  Uiso   1.00
O149   O     0.63001   0.09799   0.05826   0.00000  Uiso   1.00
O150   O     0.40871   0.16958   0.27421   0.00000  Uiso   1.00
O151   O     0.56108   0.12846   0.16667   0.00000  Uiso   1.00
O152   O     0.56108   0.20487   0.16667   0.00000  Uiso   1.00
O153   O     0.43892   0.12846   0.16666   0.00000  Uiso   1.00
O154   O     0.50000   0.20488   0.09511   0.00000  Uiso   1.00
O155   O     0.50000   0.12845   0.23822   0.00000  Uiso   1.00
O156   O     0.50000   0.20488   0.23822   0.00000  Uiso   1.00
O157   O     0.50000   0.12845   0.09511   0.00000  Uiso   1.00
O158   O     0.35592   0.15331   0.03135   0.00000  Uiso   1.00
Zn159  Zn    0.50000   0.21771   0.16667   0.00000  Uiso   1.00
Zn160  Zn    0.50000   0.11563   0.16667   0.00000  Uiso   1.00
C161   C     0.75370   0.16730   0.16589   0.00000  Uiso   1.00
C162   C     0.68991   0.18169   0.20947   0.00000  Uiso   1.00
C163   C     0.95731   0.16490   0.16696   0.00000  Uiso   1.00
C164   C     0.70930   0.16850   0.16516   0.00000  Uiso   1.00
C165   C     0.86214   0.02322   0.19671   0.00000  Uiso   1.00
C166   C     0.80244   0.31081   0.14035   0.00000  Uiso   1.00
C167   C     0.80627   0.02430   0.13499   0.00000  Uiso   1.00
C168   C     0.86086   0.30884   0.19842   0.00000  Uiso   1.00
C169   C     0.70850   0.15034   0.07219   0.00000  Uiso   1.00
C170   C     0.95884   0.19141   0.25802   0.00000  Uiso   1.00
C171   C     0.95109   0.13152   0.07991   0.00000  Uiso   1.00
C172   C     0.91294   0.16605   0.16677   0.00000  Uiso   1.00
C173   C     0.71495   0.19476   0.25574   0.00000  Uiso   1.00
C174   C     0.89859   0.04596   0.22451   0.00000  Uiso   1.00
C175   C     0.93902   0.04028   0.19535   0.00000  Uiso   1.00
C176   C     0.97723   0.05682   0.22627   0.00000  Uiso   1.00
C177   C     0.75800   0.29417   0.13257   0.00000  Uiso   1.00
C178   C     0.74869   0.27128   0.08134   0.00000  Uiso   1.00
C179   C     0.70140   0.26743   0.07028   0.00000  Uiso   1.00
C180   C     0.78322   0.04681   0.09026   0.00000  Uiso   1.00
C181   C     0.80802   0.04011   0.04264   0.00000  Uiso   1.00
C182   C     0.78368   0.05916   0.32967   0.00000  Uiso   1.00
C183   C     0.83317   0.16650   0.07315   0.00000  Uiso   1.00
C184   C     0.88557   0.28505   0.24122   0.00000  Uiso   1.00
C185   C     0.86380   0.29157   0.29128   0.00000  Uiso   1.00
C186   C     0.89047   0.27192   0.00214   0.00000  Uiso   1.00
C187   C     0.83402   0.16682   0.26021   0.00000  Uiso   1.00
C188   C     0.83373   0.16643   0.02192   0.00000  Uiso   1.00
C189   C     0.83410   0.16691   0.31152   0.00000  Uiso   1.00
C190   C     0.68671   0.15537   0.12071   0.00000  Uiso   1.00
C191   C     0.97984   0.18035   0.21033   0.00000  Uiso   1.00
C192   C     0.97665   0.15099   0.12277   0.00000  Uiso   1.00
H193   H     0.74237   0.14649   0.07220   0.00000  Uiso   1.00
H194   H     0.89146   0.08095   0.23171   0.00000  Uiso   1.00
H195   H     0.90447   0.03334   0.26319   0.00000  Uiso   1.00
H196   H     0.68711   0.24975   0.10115   0.00000  Uiso   1.00
H197   H     0.68607   0.30086   0.06634   0.00000  Uiso   1.00
H198   H     0.69555   0.24875   0.03447   0.00000  Uiso   1.00
H199   H     0.76147   0.29027   0.05055   0.00000  Uiso   1.00
H200   H     0.76334   0.23769   0.08071   0.00000  Uiso   1.00
H201   H     0.74980   0.27465   0.16498   0.00000  Uiso   1.00
H202   H     0.73489   0.32210   0.13697   0.00000  Uiso   1.00
H203   H     0.75426   0.04096   0.32181   0.00000  Uiso   1.00
H204   H     0.96969   0.21841   0.28210   0.00000  Uiso   1.00
H205   H     0.77554   0.09475   0.00243   0.00000  Uiso   1.00
H206   H     0.80318   0.05582   0.29633   0.00000  Uiso   1.00
H207   H     0.83892   0.05602   0.04749   0.00000  Uiso   1.00
H208   H     0.81433   0.00426   0.03603   0.00000  Uiso   1.00
H209   H     0.75116   0.03462   0.08241   0.00000  Uiso   1.00
H210   H     0.77771   0.08200   0.09751   0.00000  Uiso   1.00
H211   H     0.89636   0.23591   0.32942   0.00000  Uiso   1.00
H212   H     0.92105   0.28856   0.00653   0.00000  Uiso   1.00
H213   H     0.87365   0.27676   0.03745   0.00000  Uiso   1.00
H214   H     0.85781   0.32720   0.29924   0.00000  Uiso   1.00
H215   H     0.92050   0.14599   0.06874   0.00000  Uiso   1.00
H216   H     0.83271   0.27588   0.28886   0.00000  Uiso   1.00
H217   H     0.88940   0.24980   0.23408   0.00000  Uiso   1.00
H218   H     0.91847   0.29586   0.24520   0.00000  Uiso   1.00
H219   H     0.70826   0.22611   0.27448   0.00000  Uiso   1.00
H220   H     0.97153   0.09144   0.23911   0.00000  Uiso   1.00
H221   H     0.98395   0.03561   0.25976   0.00000  Uiso   1.00
H222   H     0.67181   0.05555   0.20289   0.00000  Uiso   1.00
H223   H     0.94518   0.00494   0.18537   0.00000  Uiso   1.00
H224   H     0.93548   0.05846   0.15930   0.00000  Uiso   1.00
N225   N     0.83333   0.28573   0.16667   0.00000  Uiso   1.00
N226   N     0.83333   0.04760   0.16667   0.00000  Uiso   1.00
O227   O     0.77226   0.20487   0.16666   0.00000  Uiso   1.00
O228   O     0.93032   0.16929   0.27181   0.00000  Uiso   1.00
O229   O     0.96334   0.09799   0.05826   0.00000  Uiso   1.00
O230   O     0.74204   0.16958   0.27421   0.00000  Uiso   1.00
O231   O     0.89441   0.12846   0.16667   0.00000  Uiso   1.00
O232   O     0.89441   0.20487   0.16667   0.00000  Uiso   1.00
O233   O     0.77226   0.12846   0.16666   0.00000  Uiso   1.00
O234   O     0.83334   0.20488   0.09511   0.00000  Uiso   1.00
O235   O     0.83333   0.12845   0.23822   0.00000  Uiso   1.00
O236   O     0.83333   0.20488   0.23822   0.00000  Uiso   1.00
O237   O     0.83334   0.12845   0.09511   0.00000  Uiso   1.00
O238   O     0.68925   0.15331   0.03135   0.00000  Uiso   1.00
Zn239  Zn    0.83333   0.21771   0.16667   0.00000  Uiso   1.00
Zn240  Zn    0.83333   0.11563   0.16667   0.00000  Uiso   1.00
C241   C     0.08703   0.50063   0.16589   0.00000  Uiso   1.00
C242   C     0.02324   0.51503   0.20947   0.00000  Uiso   1.00
C243   C     0.29065   0.49823   0.16696   0.00000  Uiso   1.00
C244   C     0.04264   0.50183   0.16516   0.00000  Uiso   1.00
C245   C     0.19547   0.35655   0.19671   0.00000  Uiso   1.00
C246   C     0.13577   0.64414   0.14035   0.00000  Uiso   1.00
C247   C     0.13961   0.35763   0.13499   0.00000  Uiso   1.00
C248   C     0.19419   0.64217   0.19842   0.00000  Uiso   1.00
C249   C     0.04183   0.48368   0.07219   0.00000  Uiso   1.00
C250   C     0.29218   0.52474   0.25802   0.00000  Uiso   1.00
C251   C     0.28443   0.46485   0.07991   0.00000  Uiso   1.00
C252   C     0.24628   0.49938   0.16677   0.00000  Uiso   1.00
C253   C     0.04829   0.52809   0.25574   0.00000  Uiso   1.00
C254   C     0.23193   0.37929   0.22451   0.00000  Uiso   1.00
C255   C     0.27235   0.37361   0.19535   0.00000  Uiso   1.00
C256   C     0.31057   0.39016   0.22627   0.00000  Uiso   1.00
C257   C     0.09134   0.62750   0.13257   0.00000  Uiso   1.00
C258   C     0.08203   0.60462   0.08134   0.00000  Uiso   1.00
C259   C     0.03473   0.60076   0.07028   0.00000  Uiso   1.00
C260   C     0.11655   0.38014   0.09026   0.00000  Uiso   1.00
C261   C     0.14135   0.37345   0.04264   0.00000  Uiso   1.00
C262   C     0.11701   0.39249   0.32967   0.00000  Uiso   1.00
C263   C     0.16651   0.49984   0.07315   0.00000  Uiso   1.00
C264   C     0.21891   0.61838   0.24122   0.00000  Uiso   1.00
C265   C     0.19713   0.62490   0.29128   0.00000  Uiso   1.00
C266   C     0.22380   0.60525   0.00214   0.00000  Uiso   1.00
C267   C     0.16735   0.50015   0.26021   0.00000  Uiso   1.00
C268   C     0.16706   0.49977   0.02192   0.00000  Uiso   1.00
C269   C     0.16743   0.50024   0.31152   0.00000  Uiso   1.00
C270   C     0.02004   0.48870   0.12071   0.00000  Uiso   1.00
C271   C     0.31317   0.51368   0.21033   0.00000  Uiso   1.00
C272   C     0.30998   0.48433   0.12277   0.00000  Uiso   1.00
H273   H     0.07570   0.47982   0.07220   0.00000  Uiso   1.00
H274   H     0.22479   0.41428   0.23171   0.00000  Uiso   1.00
H275   H     0.23780   0.36667   0.26319   0.00000  Uiso   1.00
H276   H     0.02044   0.58308   0.10115   0.00000  Uiso   1.00
H277   H     0.01940   0.63420   0.06634   0.00000  Uiso   1.00
H278   H     0.02888   0.58208   0.03447   0.00000  Uiso   1.00
H279   H     0.09480   0.62360   0.05055   0.00000  Uiso   1.00
H280   H     0.09668   0.57103   0.08071   0.00000  Uiso   1.00
H281   H     0.08313   0.60799   0.16498   0.00000  Uiso   1.00
H282   H     0.06822   0.65544   0.13697   0.00000  Uiso   1.00
H283   H     0.08760   0.37429   0.32181   0.00000  Uiso   1.00
H284   H     0.30303   0.55174   0.28210   0.00000  Uiso   1.00
H285   H     0.10887   0.42808   0.00243   0.00000  Uiso   1.00
H286   H     0.13651   0.38916   0.29633   0.00000  Uiso   1.00
H287   H     0.17226   0.38936   0.04749   0.00000  Uiso   1.00
H288   H     0.14766   0.33759   0.03603   0.00000  Uiso   1.00
H289   H     0.08450   0.36795   0.08241   0.00000  Uiso   1.00
H290   H     0.11104   0.41534   0.09751   0.00000  Uiso   1.00
H291   H     0.22970   0.56924   0.32942   0.00000  Uiso   1.00
H292   H     0.25438   0.62189   0.00653   0.00000  Uiso   1.00
H293   H     0.20699   0.61010   0.03745   0.00000  Uiso   1.00
H294   H     0.19114   0.66053   0.29924   0.00000  Uiso   1.00
H295   H     0.25383   0.47932   0.06874   0.00000  Uiso   1.00
H296   H     0.16605   0.60921   0.28886   0.00000  Uiso   1.00
H297   H     0.22273   0.58313   0.23408   0.00000  Uiso   1.00
H298   H     0.25180   0.62919   0.24520   0.00000  Uiso   1.00
H299   H     0.04160   0.55944   0.27448   0.00000  Uiso   1.00
H300   H     0.30487   0.42477   0.23911   0.00000  Uiso   1.00
H301   H     0.31729   0.36894   0.25976   0.00000  Uiso   1.00
H302   H     0.00515   0.38888   0.20289   0.00000  Uiso   1.00
H303   H     0.27852   0.33828   0.18537   0.00000  Uiso   1.00
H304   H     0.26881   0.39180   0.15930   0.00000  Uiso   1.00
N305   N     0.16667   0.61907   0.16667   0.00000  Uiso   1.00
N306   N     0.16667   0.38093   0.16667   0.00000  Uiso   1.00
O307   O     0.10559   0.53821   0.16666   0.00000  Uiso   1.00
O308   O     0.26365   0.50262   0.27181   0.00000  Uiso   1.00
O309   O     0.29668   0.43133   0.05826   0.00000  Uiso   1.00
O310   O     0.07538   0.50291   0.27421   0.00000  Uiso   1.00
O311   O     0.22774   0.46179   0.16667   0.00000  Uiso   1.00
O312   O     0.22774   0.53821   0.16667   0.00000  Uiso   1.00
O313   O     0.10559   0.46179   0.16666   0.00000  Uiso   1.00
O314   O     0.16667   0.53821   0.09511   0.00000  Uiso   1.00
O315   O     0.16666   0.46179   0.23822   0.00000  Uiso   1.00
O316   O     0.16666   0.53821   0.23822   0.00000  Uiso   1.00
O317   O     0.16667   0.46179   0.09511   0.00000  Uiso   1.00
O318   O     0.02259   0.48664   0.03135   0.00000  Uiso   1.00
Zn319  Zn    0.16667   0.55104   0.16667   0.00000  Uiso   1.00
Zn320  Zn    0.16667   0.44896   0.16667   0.00000  Uiso   1.00
C321   C     0.42037   0.50063   0.16589   0.00000  Uiso   1.00
C322   C     0.35657   0.51503   0.20947   0.00000  Uiso   1.00
C323   C     0.62398   0.49823   0.16696   0.00000  Uiso   1.00
C324   C     0.37597   0.50183   0.16516   0.00000  Uiso   1.00
C325   C     0.52880   0.35655   0.19671   0.00000  Uiso   1.00
C326   C     0.46911   0.64414   0.14035   0.00000  Uiso   1.00
C327   C     0.47294   0.35763   0.13499   0.00000  Uiso   1.00
C328   C     0.52753   0.64217   0.19842   0.00000  Uiso   1.00
C329   C     0.37516   0.48368   0.07219   0.00000  Uiso   1.00
C330   C     0.62551   0.52474   0.25802   0.00000  Uiso   1.00
C331   C     0.61776   0.46485   0.07991   0.00000  Uiso   1.00
C332   C     0.57961   0.49938   0.16677   0.00000  Uiso   1.00
C333   C     0.38162   0.52809   0.25574   0.00000  Uiso   1.00
C334   C     0.56526   0.37929   0.22451   0.00000  Uiso   1.00
C335   C     0.60568   0.37361   0.19535   0.00000  Uiso   1.00
C336   C     0.64390   0.39016   0.22627   0.00000  Uiso   1.00
C337   C     0.42467   0.62750   0.13257   0.00000  Uiso   1.00
C338   C     0.41536   0.60462   0.08134   0.00000  Uiso   1.00
C339   C     0.36806   0.60076   0.07028   0.00000  Uiso   1.00
C340   C     0.44989   0.38014   0.09026   0.00000  Uiso   1.00
C341   C     0.47469   0.37345   0.04264   0.00000  Uiso   1.00
C342   C     0.45034   0.39249   0.32967   0.00000  Uiso   1.00
C343   C     0.49984   0.49984   0.07315   0.00000  Uiso   1.00
C344   C     0.55224   0.61838   0.24122   0.00000  Uiso   1.00
C345   C     0.53046   0.62490   0.29128   0.00000  Uiso   1.00
C346   C     0.55713   0.60525   0.00214   0.00000  Uiso   1.00
C347   C     0.50069   0.50015   0.26021   0.00000  Uiso   1.00
C348   C     0.50039   0.49977   0.02192   0.00000  Uiso   1.00
C349   C     0.50077   0.50024   0.31152   0.00000  Uiso   1.00
C350   C     0.35337   0.48870   0.12071   0.00000  Uiso   1.00
C351   C     0.64650   0.51368   0.21033   0.00000  Uiso   1.00
C352   C     0.64331   0.48433   0.12277   0.00000  Uiso   1.00
H353   H     0.40904   0.47982   0.07220   0.00000  Uiso   1.00
H354   H     0.55812   0.41428   0.23171   0.00000  Uiso   1.00
H355   H     0.57114   0.36667   0.26319   0.00000  Uiso   1.00
H356   H     0.35378   0.58308   0.10115   0.00000  Uiso   1.00
H357   H     0.35274   0.63420   0.06634   0.00000  Uiso   1.00
H358   H     0.36221   0.58208   0.03447   0.00000  Uiso   1.00
H359   H     0.42813   0.62360   0.05055   0.00000  Uiso   1.00
H360   H     0.43001   0.57103   0.08071   0.00000  Uiso   1.00
H361   H     0.41646   0.60799   0.16498   0.00000  Uiso   1.00
H362   H     0.40156   0.65544   0.13697   0.00000  Uiso   1.00
H363   H     0.42093   0.37429   0.32181   0.00000  Uiso   1.00
H364   H     0.63636   0.55174   0.28210   0.00000  Uiso   1.00
H365   H     0.44221   0.42808   0.00243   0.00000  Uiso   1.00
H366   H     0.46984   0.38916   0.29633   0.00000  Uiso   1.00
H367   H     0.50559   0.38936   0.04749   0.00000  Uiso   1.00
H368   H     0.48100   0.33759   0.03603   0.00000  Uiso   1.00
H369   H     0.41783   0.36795   0.08241   0.00000  Uiso   1.00
H370   H     0.44438   0.41534   0.09751   0.00000  Uiso   1.00
H371   H     0.56303   0.56924   0.32942   0.00000  Uiso   1.00
H372   H     0.58771   0.62189   0.00653   0.00000  Uiso   1.00
H373   H     0.54032   0.61010   0.03745   0.00000  Uiso   1.00
H374   H     0.52447   0.66053   0.29924   0.00000  Uiso   1.00
H375   H     0.58716   0.47932   0.06874   0.00000  Uiso   1.00
H376   H     0.49938   0.60921   0.28886   0.00000  Uiso   1.00
H377   H     0.55607   0.58313   0.23408   0.00000  Uiso   1.00
H378   H     0.58513   0.62919   0.24520   0.00000  Uiso   1.00
H379   H     0.37493   0.55944   0.27448   0.00000  Uiso   1.00
H380   H     0.63820   0.42477   0.23911   0.00000  Uiso   1.00
H381   H     0.65062   0.36894   0.25976   0.00000  Uiso   1.00
H382   H     0.33848   0.38888   0.20289   0.00000  Uiso   1.00
H383   H     0.61185   0.33828   0.18537   0.00000  Uiso   1.00
H384   H     0.60214   0.39180   0.15930   0.00000  Uiso   1.00
N385   N     0.50000   0.61907   0.16667   0.00000  Uiso   1.00
N386   N     0.50000   0.38093   0.16667   0.00000  Uiso   1.00
O387   O     0.43892   0.53821   0.16666   0.00000  Uiso   1.00
O388   O     0.59698   0.50262   0.27181   0.00000  Uiso   1.00
O389   O     0.63001   0.43133   0.05826   0.00000  Uiso   1.00
O390   O     0.40871   0.50291   0.27421   0.00000  Uiso   1.00
O391   O     0.56108   0.46179   0.16667   0.00000  Uiso   1.00
O392   O     0.56108   0.53821   0.16667   0.00000  Uiso   1.00
O393   O     0.43892   0.46179   0.16666   0.00000  Uiso   1.00
O394   O     0.50000   0.53821   0.09511   0.00000  Uiso   1.00
O395   O     0.50000   0.46179   0.23822   0.00000  Uiso   1.00
O396   O     0.50000   0.53821   0.23822   0.00000  Uiso   1.00
O397   O     0.50000   0.46179   0.09511   0.00000  Uiso   1.00
O398   O     0.35592   0.48664   0.03135   0.00000  Uiso   1.00
Zn399  Zn    0.50000   0.55104   0.16667   0.00000  Uiso   1.00
Zn400  Zn    0.50000   0.44896   0.16667   0.00000  Uiso   1.00
C401   C     0.75370   0.50063   0.16589   0.00000  Uiso   1.00
C402   C     0.68991   0.51503   0.20947   0.00000  Uiso   1.00
C403   C     0.95731   0.49823   0.16696   0.00000  Uiso   1.00
C404   C     0.70930   0.50183   0.16516   0.00000  Uiso   1.00
C405   C     0.86214   0.35655   0.19671   0.00000  Uiso   1.00
C406   C     0.80244   0.64414   0.14035   0.00000  Uiso   1.00
C407   C     0.80627   0.35763   0.13499   0.00000  Uiso   1.00
C408   C     0.86086   0.64217   0.19842   0.00000  Uiso   1.00
C409   C     0.70850   0.48368   0.07219   0.00000  Uiso   1.00
C410   C     0.95884   0.52474   0.25802   0.00000  Uiso   1.00
C411   C     0.95109   0.46485   0.07991   0.00000  Uiso   1.00
C412   C     0.91294   0.49938   0.16677   0.00000  Uiso   1.00
C413   C     0.71495   0.52809   0.25574   0.00000  Uiso   1.00
C414   C     0.89859   0.37929   0.22451   0.00000  Uiso   1.00
C415   C     0.93902   0.37361   0.19535   0.00000  Uiso   1.00
C416   C     0.97723   0.39016   0.22627   0.00000  Uiso   1.00
C417   C     0.75800   0.62750   0.13257   0.00000  Uiso   1.00
C418   C     0.74869   0.60462   0.08134   0.00000  Uiso   1.00
C419   C     0.70140   0.60076   0.07028   0.00000  Uiso   1.00
C420   C     0.78322   0.38014   0.09026   0.00000  Uiso   1.00
C421   C     0.80802   0.37345   0.04264   0.00000  Uiso   1.00
C422   C     0.78368   0.39249   0.32967   0.00000  Uiso   1.00
C423   C     0.83317   0.49984   0.07315   0.00000  Uiso   1.00
C424   C     0.88557   0.61838   0.24122   0.00000  Uiso   1.00
C425   C     0.86380   0.62490   0.29128   0.00000  Uiso   1.00
C426   C     0.89047   0.60525   0.00214   0.00000  Uiso   1.00
C427   C     0.83402   0.50015   0.26021   0.00000  Uiso   1.00
C428   C     0.83373   0.49977   0.02192   0.00000  Uiso   1.00
C429   C     0.83410   0.50024   0.31152   0.00000  Uiso   1.00
C430   C     0.68671   0.48870   0.12071   0.00000  Uiso   1.00
C431   C     0.97984   0.51368   0.21033   0.00000  Uiso   1.00
C432   C     0.97665   0.48433   0.12277   0.00000  Uiso   1.00
H433   H     0.74237   0.47982   0.07220   0.00000  Uiso   1.00
H434   H     0.89146   0.41428   0.23171   0.00000  Uiso   1.00
H435   H     0.90447   0.36667   0.26319   0.00000  Uiso   1.00
H436   H     0.68711   0.58308   0.10115   0.00000  Uiso   1.00
H437   H     0.68607   0.63420   0.06634   0.00000  Uiso   1.00
H438   H     0.69555   0.58208   0.03447   0.00000  Uiso   1.00
H439   H     0.76147   0.62360   0.05055   0.00000  Uiso   1.00
H440   H     0.76334   0.57103   0.08071   0.00000  Uiso   1.00
H441   H     0.74980   0.60799   0.16498   0.00000  Uiso   1.00
H442   H     0.73489   0.65544   0.13697   0.00000  Uiso   1.00
H443   H     0.75426   0.37429   0.32181   0.00000  Uiso   1.00
H444   H     0.96969   0.55174   0.28210   0.00000  Uiso   1.00
H445   H     0.77554   0.42808   0.00243   0.00000  Uiso   1.00
H446   H     0.80318   0.38916   0.29633   0.00000  Uiso   1.00
H447   H     0.83892   0.38936   0.04749   0.00000  Uiso   1.00
H448   H     0.81433   0.33759   0.03603   0.00000  Uiso   1.00
H449   H     0.75116   0.36795   0.08241   0.00000  Uiso   1.00
H450   H     0.77771   0.41534   0.09751   0.00000  Uiso   1.00
H451   H     0.89636   0.56924   0.32942   0.00000  Uiso   1.00
H452   H     0.92105   0.62189   0.00653   0.00000  Uiso   1.00
H453   H     0.87365   0.61010   0.03745   0.00000  Uiso   1.00
H454   H     0.85781   0.66053   0.29924   0.00000  Uiso   1.00
H455   H     0.92050   0.47932   0.06874   0.00000  Uiso   1.00
H456   H     0.83271   0.60921   0.28886   0.00000  Uiso   1.00
H457   H     0.88940   0.58313   0.23408   0.00000  Uiso   1.00
H458   H     0.91847   0.62919   0.24520   0.00000  Uiso   1.00
H459   H     0.70826   0.55944   0.27448   0.00000  Uiso   1.00
H460   H     0.97153   0.42477   0.23911   0.00000  Uiso   1.00
H461   H     0.98395   0.36894   0.25976   0.00000  Uiso   1.00
H462   H     0.67181   0.38888   0.20289   0.00000  Uiso   1.00
H463   H     0.94518   0.33828   0.18537   0.00000  Uiso   1.00
H464   H     0.93548   0.39180   0.15930   0.00000  Uiso   1.00
N465   N     0.83333   0.61907   0.16667   0.00000  Uiso   1.00
N466   N     0.83333   0.38093   0.16667   0.00000  Uiso   1.00
O467   O     0.77226   0.53821   0.16666   0.00000  Uiso   1.00
O468   O     0.93032   0.50262   0.27181   0.00000  Uiso   1.00
O469   O     0.96334   0.43133   0.05826   0.00000  Uiso   1.00
O470   O     0.74204   0.50291   0.27421   0.00000  Uiso   1.00
O471   O     0.89441   0.46179   0.16667   0.00000  Uiso   1.00
O472   O     0.89441   0.53821   0.16667   0.00000  Uiso   1.00
O473   O     0.77226   0.46179   0.16666   0.00000  Uiso   1.00
O474   O     0.83334   0.53821   0.09511   0.00000  Uiso   1.00
O475   O     0.83333   0.46179   0.23822   0.00000  Uiso   1.00
O476   O     0.83333   0.53821   0.23822   0.00000  Uiso   1.00
O477   O     0.83334   0.46179   0.09511   0.00000  Uiso   1.00
O478   O     0.68925   0.48664   0.03135   0.00000  Uiso   1.00
Zn479  Zn    0.83333   0.55104   0.16667   0.00000  Uiso   1.00
Zn480  Zn    0.83333   0.44896   0.16667   0.00000  Uiso   1.00
C481   C     0.08703   0.83396   0.16589   0.00000  Uiso   1.00
C482   C     0.02324   0.84836   0.20947   0.00000  Uiso   1.00
C483   C     0.29065   0.83156   0.16696   0.00000  Uiso   1.00
C484   C     0.04264   0.83516   0.16516   0.00000  Uiso   1.00
C485   C     0.19547   0.68988   0.19671   0.00000  Uiso   1.00
C486   C     0.13577   0.97748   0.14035   0.00000  Uiso   1.00
C487   C     0.13961   0.69097   0.13499   0.00000  Uiso   1.00
C488   C     0.19419   0.97550   0.19842   0.00000  Uiso   1.00
C489   C     0.04183   0.81701   0.07219   0.00000  Uiso   1.00
C490   C     0.29218   0.85808   0.25802   0.00000  Uiso   1.00
C491   C     0.28443   0.79819   0.07991   0.00000  Uiso   1.00
C492   C     0.24628   0.83271   0.16677   0.00000  Uiso   1.00
C493   C     0.04829   0.86142   0.25574   0.00000  Uiso   1.00
C494   C     0.23193   0.71262   0.22451   0.00000  Uiso   1.00
C495   C     0.27235   0.70695   0.19535   0.00000  Uiso   1.00
C496   C     0.31057   0.72349   0.22627   0.00000  Uiso   1.00
C497   C     0.09134   0.96084   0.13257   0.00000  Uiso   1.00
C498   C     0.08203   0.93795   0.08134   0.00000  Uiso   1.00
C499   C     0.03473   0.93409   0.07028   0.00000  Uiso   1.00
C500   C     0.11655   0.71348   0.09026   0.00000  Uiso   1.00
C501   C     0.14135   0.70678   0.04264   0.00000  Uiso   1.00
C502   C     0.11701   0.72582   0.32967   0.00000  Uiso   1.00
C503   C     0.16651   0.83317   0.07315   0.00000  Uiso   1.00
C504   C     0.21891   0.95171   0.24122   0.00000  Uiso   1.00
C505   C     0.19713   0.95823   0.29128   0.00000  Uiso   1.00
C506   C     0.22380   0.93858   0.00214   0.00000  Uiso   1.00
C507   C     0.16735   0.83349   0.26021   0.00000  Uiso   1.00
C508   C     0.16706   0.83310   0.02192   0.00000  Uiso   1.00
C509   C     0.16743   0.83357   0.31152   0.00000  Uiso   1.00
C510   C     0.02004   0.82204   0.12071   0.00000  Uiso   1.00
C511   C     0.31317   0.84701   0.21033   0.00000  Uiso   1.00
C512   C     0.30998   0.81766   0.12277   0.00000  Uiso   1.00
H513   H     0.07570   0.81315   0.07220   0.00000  Uiso   1.00
H514   H     0.22479   0.74761   0.23171   0.00000  Uiso   1.00
H515   H     0.23780   0.70001   0.26319   0.00000  Uiso   1.00
H516   H     0.02044   0.91642   0.10115   0.00000  Uiso   1.00
H517   H     0.01940   0.96753   0.06634   0.00000  Uiso   1.00
H518   H     0.02888   0.91542   0.03447   0.00000  Uiso   1.00
H519   H     0.09480   0.95694   0.05055   0.00000  Uiso   1.00
H520   H     0.09668   0.90436   0.08071   0.00000  Uiso   1.00
H521   H     0.08313   0.94132   0.16498   0.00000  Uiso   1.00
H522   H     0.06822   0.98877   0.13697   0.00000  Uiso   1.00
H523   H     0.08760   0.70762   0.32181   0.00000  Uiso   1.00
H524   H     0.30303   0.88508   0.28210   0.00000  Uiso   1.00
H525   H     0.10887   0.76142   0.00243   0.00000  Uiso   1.00
H526   H     0.13651   0.72249   0.29633   0.00000  Uiso   1.00
H527   H     0.17226   0.72269   0.04749   0.00000  Uiso   1.00
H528   H     0.14766   0.67093   0.03603   0.00000  Uiso   1.00
H529   H     0.08450   0.70129   0.08241   0.00000  Uiso   1.00
H530   H     0.11104   0.74867   0.09751   0.00000  Uiso   1.00
H531   H     0.22970   0.90258   0.32942   0.00000  Uiso   1.00
H532   H     0.25438   0.95523   0.00653   0.00000  Uiso   1.00
H533   H     0.20699   0.94343   0.03745   0.00000  Uiso   1.00
H534   H     0.19114   0.99387   0.29924   0.00000  Uiso   1.00
H535   H     0.25383   0.81266   0.06874   0.00000  Uiso   1.00
H536   H     0.16605   0.94255   0.28886   0.00000  Uiso   1.00
H537   H     0.22273   0.91646   0.23408   0.00000  Uiso   1.00
H538   H     0.25180   0.96253   0.24520   0.00000  Uiso   1.00
H539   H     0.04160   0.89278   0.27448   0.00000  Uiso   1.00
H540   H     0.30487   0.75810   0.23911   0.00000  Uiso   1.00
H541   H     0.31729   0.70228   0.25976   0.00000  Uiso   1.00
H542   H     0.00515   0.72221   0.20289   0.00000  Uiso   1.00
H543   H     0.27852   0.67161   0.18537   0.00000  Uiso   1.00
H544   H     0.26881   0.72513   0.15930   0.00000  Uiso   1.00
N545   N     0.16667   0.95240   0.16667   0.00000  Uiso   1.00
N546   N     0.16667   0.71427   0.16667   0.00000  Uiso   1.00
O547   O     0.10559   0.87154   0.16666   0.00000  Uiso   1.00
O548   O     0.26365   0.83595   0.27181   0.00000  Uiso   1.00
O549   O     0.29668   0.76466   0.05826   0.00000  Uiso   1.00
O550   O     0.07538   0.83624   0.27421   0.00000  Uiso   1.00
O551   O     0.22774   0.79513   0.16667   0.00000  Uiso   1.00
O552   O     0.22774   0.87154   0.16667   0.00000  Uiso   1.00
O553   O     0.10559   0.79513   0.16666   0.00000  Uiso   1.00
O554   O     0.16667   0.87155   0.09511   0.00000  Uiso   1.00
O555   O     0.16666   0.79512   0.23822   0.00000  Uiso   1.00
O556   O     0.16666   0.87155   0.23822   0.00000  Uiso   1.00
O557   O     0.16667   0.79512   0.09511   0.00000  Uiso   1.00
O558   O     0.02259   0.81998   0.03135   0.00000  Uiso   1.00
Zn559  Zn    0.16667   0.88437   0.16667   0.00000  Uiso   1.00
Zn560  Zn    0.16667   0.78229   0.16667   0.00000  Uiso   1.00
C561   C     0.42037   0.83396   0.16589   0.00000  Uiso   1.00
C562   C     0.35657   0.84836   0.20947   0.00000  Uiso   1.00
C563   C     0.62398   0.83156   0.16696   0.00000  Uiso   1.00
C564   C     0.37597   0.83516   0.16516   0.00000  Uiso   1.00
C565   C     0.52880   0.68988   0.19671   0.00000  Uiso   1.00
C566   C     0.46911   0.97748   0.14035   0.00000  Uiso   1.00
C567   C     0.47294   0.69097   0.13499   0.00000  Uiso   1.00
C568   C     0.52753   0.97550   0.19842   0.00000  Uiso   1.00
C569   C     0.37516   0.81701   0.07219   0.00000  Uiso   1.00
C570   C     0.62551   0.85808   0.25802   0.00000  Uiso   1.00
C571   C     0.61776   0.79819   0.07991   0.00000  Uiso   1.00
C572   C     0.57961   0.83271   0.16677   0.00000  Uiso   1.00
C573   C     0.38162   0.86142   0.25574   0.00000  Uiso   1.00
C574   C     0.56526   0.71262   0.22451   0.00000  Uiso   1.00
C575   C     0.60568   0.70695   0.19535   0.00000  Uiso   1.00
C576   C     0.64390   0.72349   0.22627   0.00000  Uiso   1.00
C577   C     0.42467   0.96084   0.13257   0.00000  Uiso   1.00
C578   C     0.41536   0.93795   0.08134   0.00000  Uiso   1.00
C579   C     0.36806   0.93409   0.07028   0.00000  Uiso   1.00
C580   C     0.44989   0.71348   0.09026   0.00000  Uiso   1.00
C581   C     0.47469   0.70678   0.04264   0.00000  Uiso   1.00
C582   C     0.45034   0.72582   0.32967   0.00000  Uiso   1.00
C583   C     0.49984   0.83317   0.07315   0.00000  Uiso   1.00
C584   C     0.55224   0.95171   0.24122   0.00000  Uiso   1.00
C585   C     0.53046   0.95823   0.29128   0.00000  Uiso   1.00
C586   C     0.55713   0.93858   0.00214   0.00000  Uiso   1.00
C587   C     0.50069   0.83349   0.26021   0.00000  Uiso   1.00
C588   C     0.50039   0.83310   0.02192   0.00000  Uiso   1.00
C589   C     0.50077   0.83357   0.31152   0.00000  Uiso   1.00
C590   C     0.35337   0.82204   0.12071   0.00000  Uiso   1.00
C591   C     0.64650   0.84701   0.21033   0.00000  Uiso   1.00
C592   C     0.64331   0.81766   0.12277   0.00000  Uiso   1.00
H593   H     0.40904   0.81315   0.07220   0.00000  Uiso   1.00
H594   H     0.55812   0.74761   0.23171   0.00000  Uiso   1.00
H595   H     0.57114   0.70001   0.26319   0.00000  Uiso   1.00
H596   H     0.35378   0.91642   0.10115   0.00000  Uiso   1.00
H597   H     0.35274   0.96753   0.06634   0.00000  Uiso   1.00
H598   H     0.36221   0.91542   0.03447   0.00000  Uiso   1.00
H599   H     0.42813   0.95694   0.05055   0.00000  Uiso   1.00
H600   H     0.43001   0.90436   0.08071   0.00000  Uiso   1.00
H601   H     0.41646   0.94132   0.16498   0.00000  Uiso   1.00
H602   H     0.40156   0.98877   0.13697   0.00000  Uiso   1.00
H603   H     0.42093   0.70762   0.32181   0.00000  Uiso   1.00
H604   H     0.63636   0.88508   0.28210   0.00000  Uiso   1.00
H605   H     0.44221   0.76142   0.00243   0.00000  Uiso   1.00
H606   H     0.46984   0.72249   0.29633   0.00000  Uiso   1.00
H607   H     0.50559   0.72269   0.04749   0.00000  Uiso   1.00
H608   H     0.48100   0.67093   0.03603   0.00000  Uiso   1.00
H609   H     0.41783   0.70129   0.08241   0.00000  Uiso   1.00
H610   H     0.44438   0.74867   0.09751   0.00000  Uiso   1.00
H611   H     0.56303   0.90258   0.32942   0.00000  Uiso   1.00
H612   H     0.58771   0.95523   0.00653   0.00000  Uiso   1.00
H613   H     0.54032   0.94343   0.03745   0.00000  Uiso   1.00
H614   H     0.52447   0.99387   0.29924   0.00000  Uiso   1.00
H615   H     0.58716   0.81266   0.06874   0.00000  Uiso   1.00
H616   H     0.49938   0.94255   0.28886   0.00000  Uiso   1.00
H617   H     0.55607   0.91646   0.23408   0.00000  Uiso   1.00
H618   H     0.58513   0.96253   0.24520   0.00000  Uiso   1.00
H619   H     0.37493   0.89278   0.27448   0.00000  Uiso   1.00
H620   H     0.63820   0.75810   0.23911   0.00000  Uiso   1.00
H621   H     0.65062   0.70228   0.25976   0.00000  Uiso   1.00
H622   H     0.33848   0.72221   0.20289   0.00000  Uiso   1.00
H623   H     0.61185   0.67161   0.18537   0.00000  Uiso   1.00
H624   H     0.60214   0.72513   0.15930   0.00000  Uiso   1.00
N625   N     0.50000   0.95240   0.16667   0.00000  Uiso   1.00
N626   N     0.50000   0.71427   0.16667   0.00000  Uiso   1.00
O627   O     0.43892   0.87154   0.16666   0.00000  Uiso   1.00
O628   O     0.59698   0.83595   0.27181   0.00000  Uiso   1.00
O629   O     0.63001   0.76466   0.05826   0.00000  Uiso   1.00
O630   O     0.40871   0.83624   0.27421   0.00000  Uiso   1.00
O631   O     0.56108   0.79513   0.16667   0.00000  Uiso   1.00
O632   O     0.56108   0.87154   0.16667   0.00000  Uiso   1.00
O633   O     0.43892   0.79513   0.16666   0.00000  Uiso   1.00
O634   O     0.50000   0.87155   0.09511   0.00000  Uiso   1.00
O635   O     0.50000   0.79512   0.23822   0.00000  Uiso   1.00
O636   O     0.50000   0.87155   0.23822   0.00000  Uiso   1.00
O637   O     0.50000   0.79512   0.09511   0.00000  Uiso   1.00
O638   O     0.35592   0.81998   0.03135   0.00000  Uiso   1.00
Zn639  Zn    0.50000   0.88437   0.16667   0.00000  Uiso   1.00
Zn640  Zn    0.50000   0.78229   0.16667   0.00000  Uiso   1.00
C641   C     0.75370   0.83396   0.16589   0.00000  Uiso   1.00
C642   C     0.68991   0.84836   0.20947   0.00000  Uiso   1.00
C643   C     0.95731   0.83156   0.16696   0.00000  Uiso   1.00
C644   C     0.70930   0.83516   0.16516   0.00000  Uiso   1.00
C645   C     0.86214   0.68988   0.19671   0.00000  Uiso   1.00
C646   C     0.80244   0.97748   0.14035   0.00000  Uiso   1.00
C647   C     0.80627   0.69097   0.13499   0.00000  Uiso   1.00
C648   C     0.86086   0.97550   0.19842   0.00000  Uiso   1.00
C649   C     0.70850   0.81701   0.07219   0.00000  Uiso   1.00
C650   C     0.95884   0.85808   0.25802   0.00000  Uiso   1.00
C651   C     0.95109   0.79819   0.07991   0.00000  Uiso   1.00
C652   C     0.91294   0.83271   0.16677   0.00000  Uiso   1.00
C653   C     0.71495   0.86142   0.25574   0.00000  Uiso   1.00
C654   C     0.89859   0.71262   0.22451   0.00000  Uiso   1.00
C655   C     0.93902   0.70695   0.19535   0.00000  Uiso   1.00
C656   C     0.97723   0.72349   0.22627   0.00000  Uiso   1.00
C657   C     0.75800   0.96084   0.13257   0.00000  Uiso   1.00
C658   C     0.74869   0.93795   0.08134   0.00000  Uiso   1.00
C659   C     0.70140   0.93409   0.07028   0.00000  Uiso   1.00
C660   C     0.78322   0.71348   0.09026   0.00000  Uiso   1.00
C661   C     0.80802   0.70678   0.04264   0.00000  Uiso   1.00
C662   C     0.78368   0.72582   0.32967   0.00000  Uiso   1.00
C663   C     0.83317   0.83317   0.07315   0.00000  Uiso   1.00
C664   C     0.88557   0.95171   0.24122   0.00000  Uiso   1.00
C665   C     0.86380   0.95823   0.29128   0.00000  Uiso   1.00
C666   C     0.89047   0.93858   0.00214   0.00000  Uiso   1.00
C667   C     0.83402   0.83349   0.26021   0.00000  Uiso   1.00
C668   C     0.83373   0.83310   0.02192   0.00000  Uiso   1.00
C669   C     0.83410   0.83357   0.31152   0.00000  Uiso   1.00
C670   C     0.68671   0.82204   0.12071   0.00000  Uiso   1.00
C671   C     0.97984   0.84701   0.21033   0.00000  Uiso   1.00
C672   C     0.97665   0.81766   0.12277   0.00000  Uiso   1.00
H673   H     0.74237   0.81315   0.07220   0.00000  Uiso   1.00
H674   H     0.89146   0.74761   0.23171   0.00000  Uiso   1.00
H675   H     0.90447   0.70001   0.26319   0.00000  Uiso   1.00
H676   H     0.68711   0.91642   0.10115   0.00000  Uiso   1.00
H677   H     0.68607   0.96753   0.06634   0.00000  Uiso   1.00
H678   H     0.69555   0.91542   0.03447   0.00000  Uiso   1.00
H679   H     0.76147   0.95694   0.05055   0.00000  Uiso   1.00
H680   H     0.76334   0.90436   0.08071   0.00000  Uiso   1.00
H681   H     0.74980   0.94132   0.16498   0.00000  Uiso   1.00
H682   H     0.73489   0.98877   0.13697   0.00000  Uiso   1.00
H683   H     0.75426   0.70762   0.32181   0.00000  Uiso   1.00
H684   H     0.96969   0.88508   0.28210   0.00000  Uiso   1.00
H685   H     0.77554   0.76142   0.00243   0.00000  Uiso   1.00
H686   H     0.80318   0.72249   0.29633   0.00000  Uiso   1.00
H687   H     0.83892   0.72269   0.04749   0.00000  Uiso   1.00
H688   H     0.81433   0.67093   0.03603   0.00000  Uiso   1.00
H689   H     0.75116   0.70129   0.08241   0.00000  Uiso   1.00
H690   H     0.77771   0.74867   0.09751   0.00000  Uiso   1.00
H691   H     0.89636   0.90258   0.32942   0.00000  Uiso   1.00
H692   H     0.92105   0.95523   0.00653   0.00000  Uiso   1.00
H693   H     0.87365   0.94343   0.03745   0.00000  Uiso   1.00
H694   H     0.85781   0.99387   0.29924   0.00000  Uiso   1.00
H695   H     0.92050   0.81266   0.06874   0.00000  Uiso   1.00
H696   H     0.83271   0.94255   0.28886   0.00000  Uiso   1.00
H697   H     0.88940   0.91646   0.23408   0.00000  Uiso   1.00
H698   H     0.91847   0.96253   0.24520   0.00000  Uiso   1.00
H699   H     0.70826   0.89278   0.27448   0.00000  Uiso   1.00
H700   H     0.97153   0.75810   0.23911   0.00000  Uiso   1.00
H701   H     0.98395   0.70228   0.25976   0.00000  Uiso   1.00
H702   H     0.67181   0.72221   0.20289   0.00000  Uiso   1.00
H703   H     0.94518   0.67161   0.18537   0.00000  Uiso   1.00
H704   H     0.93548   0.72513   0.15930   0.00000  Uiso   1.00
N705   N     0.83333   0.95240   0.16667   0.00000  Uiso   1.00
N706   N     0.83333   0.71427   0.16667   0.00000  Uiso   1.00
O707   O     0.77226   0.87154   0.16666   0.00000  Uiso   1.00
O708   O     0.93032   0.83595   0.27181   0.00000  Uiso   1.00
O709   O     0.96334   0.76466   0.05826   0.00000  Uiso   1.00
O710   O     0.74204   0.83624   0.27421   0.00000  Uiso   1.00
O711   O     0.89441   0.79513   0.16667   0.00000  Uiso   1.00
O712   O     0.89441   0.87154   0.16667   0.00000  Uiso   1.00
O713   O     0.77226   0.79513   0.16666   0.00000  Uiso   1.00
O714   O     0.83334   0.87155   0.09511   0.00000  Uiso   1.00
O715   O     0.83333   0.79512   0.23822   0.00000  Uiso   1.00
O716   O     0.83333   0.87155   0.23822   0.00000  Uiso   1.00
O717   O     0.83334   0.79512   0.09511   0.00000  Uiso   1.00
O718   O     0.68925   0.81998   0.03135   0.00000  Uiso   1.00
Zn719  Zn    0.83333   0.88437   0.16667   0.00000  Uiso   1.00
Zn720  Zn    0.83333   0.78229   0.16667   0.00000  Uiso   1.00
C721   C     0.08703   0.16730   0.49922   0.00000  Uiso   1.00
C722   C     0.02324   0.18169   0.54280   0.00000  Uiso   1.00
C723   C     0.29065   0.16490   0.50030   0.00000  Uiso   1.00
C724   C     0.04264   0.16850   0.49849   0.00000  Uiso   1.00
C725   C     0.19547   0.02322   0.53004   0.00000  Uiso   1.00
C726   C     0.13577   0.31081   0.47368   0.00000  Uiso   1.00
C727   C     0.13961   0.02430   0.46832   0.00000  Uiso   1.00
C728   C     0.19419   0.30884   0.53175   0.00000  Uiso   1.00
C729   C     0.04183   0.15034   0.40552   0.00000  Uiso   1.00
C730   C     0.29218   0.19141   0.59135   0.00000  Uiso   1.00
C731   C     0.28443   0.13152   0.41324   0.00000  Uiso   1.00
C732   C     0.24628   0.16605   0.50010   0.00000  Uiso   1.00
C733   C     0.04829   0.19476   0.58907   0.00000  Uiso   1.00
C734   C     0.23193   0.04596   0.55784   0.00000  Uiso   1.00
C735   C     0.27235   0.04028   0.52868   0.00000  Uiso   1.00
C736   C     0.31057   0.05682   0.55960   0.00000  Uiso   1.00
C737   C     0.09134   0.29417   0.46590   0.00000  Uiso   1.00
C738   C     0.08203   0.27128   0.41468   0.00000  Uiso   1.00
C739   C     0.03473   0.26743   0.40361   0.00000  Uiso   1.00
C740   C     0.11655   0.04681   0.42359   0.00000  Uiso   1.00
C741   C     0.14135   0.04011   0.37597   0.00000  Uiso   1.00
C742   C     0.11701   0.05916   0.66300   0.00000  Uiso   1.00
C743   C     0.16651   0.16650   0.40648   0.00000  Uiso   1.00
C744   C     0.21891   0.28505   0.57456   0.00000  Uiso   1.00
C745   C     0.19713   0.29157   0.62461   0.00000  Uiso   1.00
C746   C     0.22380   0.27192   0.33547   0.00000  Uiso   1.00
C747   C     0.16735   0.16682   0.59354   0.00000  Uiso   1.00
C748   C     0.16706   0.16643   0.35526   0.00000  Uiso   1.00
C749   C     0.16743   0.16691   0.64485   0.00000  Uiso   1.00
C750   C     0.02004   0.15537   0.45404   0.00000  Uiso   1.00
C751   C     0.31317   0.18035   0.54367   0.00000  Uiso   1.00
C752   C     0.30998   0.15099   0.45610   0.00000  Uiso   1.00
H753   H     0.07570   0.14649   0.40553   0.00000  Uiso   1.00
H754   H     0.22479   0.08095   0.56504   0.00000  Uiso   1.00
H755   H     0.23780   0.03334   0.59652   0.00000  Uiso   1.00
H756   H     0.02044   0.24975   0.43449   0.00000  Uiso   1.00
H757   H     0.01940   0.30086   0.39967   0.00000  Uiso   1.00
H758   H     0.02888   0.24875   0.36781   0.00000  Uiso   1.00
H759   H     0.09480   0.29027   0.38388   0.00000  Uiso   1.00
H760   H     0.09668   0.23769   0.41405   0.00000  Uiso   1.00
H761   H     0.08313   0.27465   0.49831   0.00000  Uiso   1.00
H762   H     0.06822   0.32210   0.47030   0.00000  Uiso   1.00
H763   H     0.08760   0.04096   0.65514   0.00000  Uiso   1.00
H764   H     0.30303   0.21841   0.61543   0.00000  Uiso   1.00
H765   H     0.10887   0.09475   0.33576   0.00000  Uiso   1.00
H766   H     0.13651   0.05582   0.62966   0.00000  Uiso   1.00
H767   H     0.17226   0.05602   0.38083   0.00000  Uiso   1.00
H768   H     0.14766   0.00426   0.36936   0.00000  Uiso   1.00
H769   H     0.08450   0.03462   0.41574   0.00000  Uiso   1.00
H770   H     0.11104   0.08200   0.43085   0.00000  Uiso   1.00
H771   H     0.22970   0.23591   0.66276   0.00000  Uiso   1.00
H772   H     0.25438   0.28856   0.33986   0.00000  Uiso   1.00
H773   H     0.20699   0.27676   0.37079   0.00000  Uiso   1.00
H774   H     0.19114   0.32720   0.63257   0.00000  Uiso   1.00
H775   H     0.25383   0.14599   0.40208   0.00000  Uiso   1.00
H776   H     0.16605   0.27588   0.62220   0.00000  Uiso   1.00
H777   H     0.22273   0.24980   0.56741   0.00000  Uiso   1.00
H778   H     0.25180   0.29586   0.57853   0.00000  Uiso   1.00
H779   H     0.04160   0.22611   0.60781   0.00000  Uiso   1.00
H780   H     0.30487   0.09144   0.57244   0.00000  Uiso   1.00
H781   H     0.31729   0.03561   0.59309   0.00000  Uiso   1.00
H782   H     0.00515   0.05555   0.53623   0.00000  Uiso   1.00
H783   H     0.27852   0.00494   0.51870   0.00000  Uiso   1.00
H784   H     0.26881   0.05846   0.49263   0.00000  Uiso   1.00
N785   N     0.16667   0.28573   0.50000   0.00000  Uiso   1.00
N786   N     0.16667   0.04760   0.50000   0.00000  Uiso   1.00
O787   O     0.10559   0.20487   0.50000   0.00000  Uiso   1.00
O788   O     0.26365   0.16929   0.60514   0.00000  Uiso   1.00
O789   O     0.29668   0.09799   0.39159   0.00000  Uiso   1.00
O790   O     0.07538   0.16958   0.60755   0.00000  Uiso   1.00
O791   O     0.22774   0.12846   0.50000   0.00000  Uiso   1.00
O792   O     0.22774   0.20487   0.50000   0.00000  Uiso   1.00
O793   O     0.10559   0.12846   0.50000   0.00000  Uiso   1.00
O794   O     0.16667   0.20488   0.42845   0.00000  Uiso   1.00
O795   O     0.16666   0.12845   0.57155   0.00000  Uiso   1.00
O796   O     0.16666   0.20488   0.57155   0.00000  Uiso   1.00
O797   O     0.16667   0.12845   0.42845   0.00000  Uiso   1.00
O798   O     0.02259   0.15331   0.36468   0.00000  Uiso   1.00
Zn799  Zn    0.16667   0.21771   0.50000   0.00000  Uiso   1.00
Zn800  Zn    0.16667   0.11563   0.50000   0.00000  Uiso   1.00
C801   C     0.42037   0.16730   0.49922   0.00000  Uiso   1.00
C802   C     0.35657   0.18169   0.54280   0.00000  Uiso   1.00
C803   C     0.62398   0.16490   0.50030   0.00000  Uiso   1.00
C804   C     0.37597   0.16850   0.49849   0.00000  Uiso   1.00
C805   C     0.52880   0.02322   0.53004   0.00000  Uiso   1.00
C806   C     0.46911   0.31081   0.47368   0.00000  Uiso   1.00
C807   C     0.47294   0.02430   0.46832   0.00000  Uiso   1.00
C808   C     0.52753   0.30884   0.53175   0.00000  Uiso   1.00
C809   C     0.37516   0.15034   0.40552   0.00000  Uiso   1.00
C810   C     0.62551   0.19141   0.59135   0.00000  Uiso   1.00
C811   C     0.61776   0.13152   0.41324   0.00000  Uiso   1.00
C812   C     0.57961   0.16605   0.50010   0.00000  Uiso   1.00
C813   C     0.38162   0.19476   0.58907   0.00000  Uiso   1.00
C814   C     0.56526   0.04596   0.55784   0.00000  Uiso   1.00
C815   C     0.60568   0.04028   0.52868   0.00000  Uiso   1.00
C816   C     0.64390   0.05682   0.55960   0.00000  Uiso   1.00
C817   C     0.42467   0.29417   0.46590   0.00000  Uiso   1.00
C818   C     0.41536   0.27128   0.41468   0.00000  Uiso   1.00
C819   C     0.36806   0.26743   0.40361   0.00000  Uiso   1.00
C820   C     0.44989   0.04681   0.42359   0.00000  Uiso   1.00
C821   C     0.47469   0.04011   0.37597   0.00000  Uiso   1.00
C822   C     0.45034   0.05916   0.66300   0.00000  Uiso   1.00
C823   C     0.49984   0.16650   0.40648   0.00000  Uiso   1.00
C824   C     0.55224   0.28505   0.57456   0.00000  Uiso   1.00
C825   C     0.53046   0.29157   0.62461   0.00000  Uiso   1.00
C826   C     0.55713   0.27192   0.33547   0.00000  Uiso   1.00
C827   C     0.50069   0.16682   0.59354   0.00000  Uiso   1.00
C828   C     0.50039   0.16643   0.35526   0.00000  Uiso   1.00
C829   C     0.50077   0.16691   0.64485   0.00000  Uiso   1.00
C830   C     0.35337   0.15537   0.45404   0.00000  Uiso   1.00
C831   C     0.64650   0.18035   0.54367   0.00000  Uiso   1.00
C832   C     0.64331   0.15099   0.45610   0.00000  Uiso   1.00
H833   H     0.40904   0.14649   0.40553   0.00000  Uiso   1.00
H834   H     0.55812   0.08095   0.56504   0.00000  Uiso   1.00
H835   H     0.57114   0.03334   0.59652   0.00000  Uiso   1.00
H836   H     0.35378   0.24975   0.43449   0.00000  Uiso   1.00
H837   H     0.35274   0.30086   0.39967   0.00000  Uiso   1.00
H838   H     0.36221   0.24875   0.36781   0.00000  Uiso   1.00
H839   H     0.42813   0.29027   0.38388   0.00000  Uiso   1.00
H840   H     0.43001   0.23769   0.41405   0.00000  Uiso   1.00
H841   H     0.41646   0.27465   0.49831   0.00000  Uiso   1.00
H842   H     0.40156   0.32210   0.47030   0.00000  Uiso   1.00
H843   H     0.42093   0.04096   0.65514   0.00000  Uiso   1.00
H844   H     0.63636   0.21841   0.61543   0.00000  Uiso   1.00
H845   H     0.44221   0.09475   0.33576   0.00000  Uiso   1.00
H846   H     0.46984   0.05582   0.62966   0.00000  Uiso   1.00
H847   H     0.50559   0.05602   0.38083   0.00000  Uiso   1.00
H848   H     0.48100   0.00426   0.36936   0.00000  Uiso   1.00
H849   H     0.41783   0.03462   0.41574   0.00000  Uiso   1.00
H850   H     0.44438   0.08200   0.43085   0.00000  Uiso   1.00
H851   H     0.56303   0.23591   0.66276   0.00000  Uiso   1.00
H852   H     0.58771   0.28856   0.33986   0.00000  Uiso   1.00
H853   H     0.54032   0.27676   0.37079   0.00000  Uiso   1.00
H854   H     0.52447   0.32720   0.63257   0.00000  Uiso   1.00
H855   H     0.58716   0.14599   0.40208   0.00000  Uiso   1.00
H856   H     0.49938   0.27588   0.62220   0.00000  Uiso   1.00
H857   H     0.55607   0.24980   0.56741   0.00000  Uiso   1.00
H858   H     0.58513   0.29586   0.57853   0.00000  Uiso   1.00
H859   H     0.37493   0.22611   0.60781   0.00000  Uiso   1.00
H860   H     0.63820   0.09144   0.57244   0.00000  Uiso   1.00
H861   H     0.65062   0.03561   0.59309   0.00000  Uiso   1.00
H862   H     0.33848   0.05555   0.53623   0.00000  Uiso   1.00
H863   H     0.61185   0.00494   0.51870   0.00000  Uiso   1.00
H864   H     0.60214   0.05846   0.49263   0.00000  Uiso   1.00
N865   N     0.50000   0.28573   0.50000   0.00000  Uiso   1.00
N866   N     0.50000   0.04760   0.50000   0.00000  Uiso   1.00
O867   O     0.43892   0.20487   0.50000   0.00000  Uiso   1.00
O868   O     0.59698   0.16929   0.60514   0.00000  Uiso   1.00
O869   O     0.63001   0.09799   0.39159   0.00000  Uiso   1.00
O870   O     0.40871   0.16958   0.60755   0.00000  Uiso   1.00
O871   O     0.56108   0.12846   0.50000   0.00000  Uiso   1.00
O872   O     0.56108   0.20487   0.50000   0.00000  Uiso   1.00
O873   O     0.43892   0.12846   0.50000   0.00000  Uiso   1.00
O874   O     0.50000   0.20488   0.42845   0.00000  Uiso   1.00
O875   O     0.50000   0.12845   0.57155   0.00000  Uiso   1.00
O876   O     0.50000   0.20488   0.57155   0.00000  Uiso   1.00
O877   O     0.50000   0.12845   0.42845   0.00000  Uiso   1.00
O878   O     0.35592   0.15331   0.36468   0.00000  Uiso   1.00
Zn879  Zn    0.50000   0.21771   0.50000   0.00000  Uiso   1.00
Zn880  Zn    0.50000   0.11563   0.50000   0.00000  Uiso   1.00
C881   C     0.75370   0.16730   0.49922   0.00000  Uiso   1.00
C882   C     0.68991   0.18169   0.54280   0.00000  Uiso   1.00
C883   C     0.95731   0.16490   0.50030   0.00000  Uiso   1.00
C884   C     0.70930   0.16850   0.49849   0.00000  Uiso   1.00
C885   C     0.86214   0.02322   0.53004   0.00000  Uiso   1.00
C886   C     0.80244   0.31081   0.47368   0.00000  Uiso   1.00
C887   C     0.80627   0.02430   0.46832   0.00000  Uiso   1.00
C888   C     0.86086   0.30884   0.53175   0.00000  Uiso   1.00
C889   C     0.70850   0.15034   0.40552   0.00000  Uiso   1.00
C890   C     0.95884   0.19141   0.59135   0.00000  Uiso   1.00
C891   C     0.95109   0.13152   0.41324   0.00000  Uiso   1.00
C892   C     0.91294   0.16605   0.50010   0.00000  Uiso   1.00
C893   C     0.71495   0.19476   0.58907   0.00000  Uiso   1.00
C894   C     0.89859   0.04596   0.55784   0.00000  Uiso   1.00
C895   C     0.93902   0.04028   0.52868   0.00000  Uiso   1.00
C896   C     0.97723   0.05682   0.55960   0.00000  Uiso   1.00
C897   C     0.75800   0.29417   0.46590   0.00000  Uiso   1.00
C898   C     0.74869   0.27128   0.41468   0.00000  Uiso   1.00
C899   C     0.70140   0.26743   0.40361   0.00000  Uiso   1.00
C900   C     0.78322   0.04681   0.42359   0.00000  Uiso   1.00
C901   C     0.80802   0.04011   0.37597   0.00000  Uiso   1.00
C902   C     0.78368   0.05916   0.66300   0.00000  Uiso   1.00
C903   C     0.83317   0.16650   0.40648   0.00000  Uiso   1.00
C904   C     0.88557   0.28505   0.57456   0.00000  Uiso   1.00
C905   C     0.86380   0.29157   0.62461   0.00000  Uiso   1.00
C906   C     0.89047   0.27192   0.33547   0.00000  Uiso   1.00
C907   C     0.83402   0.16682   0.59354   0.00000  Uiso   1.00
C908   C     0.83373   0.16643   0.35526   0.00000  Uiso   1.00
C909   C     0.83410   0.16691   0.64485   0.00000  Uiso   1.00
C910   C     0.68671   0.15537   0.45404   0.00000  Uiso   1.00
C911   C     0.97984   0.18035   0.54367   0.00000  Uiso   1.00
C912   C     0.97665   0.15099   0.45610   0.00000  Uiso   1.00
H913   H     0.74237   0.14649   0.40553   0.00000  Uiso   1.00
H914   H     0.89146   0.08095   0.56504   0.00000  Uiso   1.00
H915   H     0.90447   0.03334   0.59652   0.00000  Uiso   1.00
H916   H     0.68711   0.24975   0.43449   0.00000  Uiso   1.00
H917   H     0.68607   0.30086   0.39967   0.00000  Uiso   1.00
H918   H     0.69555   0.24875   0.36781   0.00000  Uiso   1.00
H919   H     0.76147   0.29027   0.38388   0.00000  Uiso   1.00
H920   H     0.76334   0.23769   0.41405   0.00000  Uiso   1.00
H921   H     0.74980   0.27465   0.49831   0.00000  Uiso   1.00
H922   H     0.73489   0.32210   0.47030   0.00000  Uiso   1.00
H923   H     0.75426   0.04096   0.65514   0.00000  Uiso   1.00
H924   H     0.96969   0.21841   0.61543   0.00000  Uiso   1.00
H925   H     0.77554   0.09475   0.33576   0.00000  Uiso   1.00
H926   H     0.80318   0.05582   0.62966   0.00000  Uiso   1.00
H927   H     0.83892   0.05602   0.38083   0.00000  Uiso   1.00
H928   H     0.81433   0.00426   0.36936   0.00000  Uiso   1.00
H929   H     0.75116   0.03462   0.41574   0.00000  Uiso   1.00
H930   H     0.77771   0.08200   0.43085   0.00000  Uiso   1.00
H931   H     0.89636   0.23591   0.66276   0.00000  Uiso   1.00
H932   H     0.92105   0.28856   0.33986   0.00000  Uiso   1.00
H933   H     0.87365   0.27676   0.37079   0.00000  Uiso   1.00
H934   H     0.85781   0.32720   0.63257   0.00000  Uiso   1.00
H935   H     0.92050   0.14599   0.40208   0.00000  Uiso   1.00
H936   H     0.83271   0.27588   0.62220   0.00000  Uiso   1.00
H937   H     0.88940   0.24980   0.56741   0.00000  Uiso   1.00
H938   H     0.91847   0.29586   0.57853   0.00000  Uiso   1.00
H939   H     0.70826   0.22611   0.60781   0.00000  Uiso   1.00
H940   H     0.97153   0.09144   0.57244   0.00000  Uiso   1.00
H941   H     0.98395   0.03561   0.59309   0.00000  Uiso   1.00
H942   H     0.67181   0.05555   0.53623   0.00000  Uiso   1.00
H943   H     0.94518   0.00494   0.51870   0.00000  Uiso   1.00
H944   H     0.93548   0.05846   0.49263   0.00000  Uiso   1.00
N945   N     0.83333   0.28573   0.50000   0.00000  Uiso   1.00
N946   N     0.83333   0.04760   0.50000   0.00000  Uiso   1.00
O947   O     0.77226   0.20487   0.50000   0.00000  Uiso   1.00
O948   O     0.93032   0.16929   0.60514   0.00000  Uiso   1.00
O949   O     0.96334   0.09799   0.39159   0.00000  Uiso   1.00
O950   O     0.74204   0.16958   0.60755   0.00000  Uiso   1.00
O951   O     0.89441   0.12846   0.50000   0.00000  Uiso   1.00
O952   O     0.89441   0.20487   0.50000   0.00000  Uiso   1.00
O953   O     0.77226   0.12846   0.50000   0.00000  Uiso   1.00
O954   O     0.83334   0.20488   0.42845   0.00000  Uiso   1.00
O955   O     0.83333   0.12845   0.57155   0.00000  Uiso   1.00
O956   O     0.83333   0.20488   0.57155   0.00000  Uiso   1.00
O957   O     0.83334   0.12845   0.42845   0.00000  Uiso   1.00
O958   O     0.68925   0.15331   0.36468   0.00000  Uiso   1.00
Zn959  Zn    0.83333   0.21771   0.50000   0.00000  Uiso   1.00
Zn960  Zn    0.83333   0.11563   0.50000   0.00000  Uiso   1.00
C961   C     0.08703   0.50063   0.49922   0.00000  Uiso   1.00
C962   C     0.02324   0.51503   0.54280   0.00000  Uiso   1.00
C963   C     0.29065   0.49823   0.50030   0.00000  Uiso   1.00
C964   C     0.04264   0.50183   0.49849   0.00000  Uiso   1.00
C965   C     0.19547   0.35655   0.53004   0.00000  Uiso   1.00
C966   C     0.13577   0.64414   0.47368   0.00000  Uiso   1.00
C967   C     0.13961   0.35763   0.46832   0.00000  Uiso   1.00
C968   C     0.19419   0.64217   0.53175   0.00000  Uiso   1.00
C969   C     0.04183   0.48368   0.40552   0.00000  Uiso   1.00
C970   C     0.29218   0.52474   0.59135   0.00000  Uiso   1.00
C971   C     0.28443   0.46485   0.41324   0.00000  Uiso   1.00
C972   C     0.24628   0.49938   0.50010   0.00000  Uiso   1.00
C973   C     0.04829   0.52809   0.58907   0.00000  Uiso   1.00
C974   C     0.23193   0.37929   0.55784   0.00000  Uiso   1.00
C975   C     0.27235   0.37361   0.52868   0.00000  Uiso   1.00
C976   C     0.31057   0.39016   0.55960   0.00000  Uiso   1.00
C977   C     0.09134   0.62750   0.46590   0.00000  Uiso   1.00
C978   C     0.08203   0.60462   0.41468   0.00000  Uiso   1.00
C979   C     0.03473   0.60076   0.40361   0.00000  Uiso   1.00
C980   C     0.11655   0.38014   0.42359   0.00000  Uiso   1.00
C981   C     0.14135   0.37345   0.37597   0.00000  Uiso   1.00
C982   C     0.11701   0.39249   0.66300   0.00000  Uiso   1.00
C983   C     0.16651   0.49984   0.40648   0.00000  Uiso   1.00
C984   C     0.21891   0.61838   0.57456   0.00000  Uiso   1.00
C985   C     0.19713   0.62490   0.62461   0.00000  Uiso   1.00
C986   C     0.22380   0.60525   0.33547   0.00000  Uiso   1.00
C987   C     0.16735   0.50015   0.59354   0.00000  Uiso   1.00
C988   C     0.16706   0.49977   0.35526   0.00000  Uiso   1.00
C989   C     0.16743   0.50024   0.64485   0.00000  Uiso   1.00
C990   C     0.02004   0.48870   0.45404   0.00000  Uiso   1.00
C991   C     0.31317   0.51368   0.54367   0.00000  Uiso   1.00
C992   C     0.30998   0.48433   0.45610   0.00000  Uiso   1.00
H993   H     0.07570   0.47982   0.40553   0.00000  Uiso   1.00
H994   H     0.22479   0.41428   0.56504   0.00000  Uiso   1.00
H995   H     0.23780   0.36667   0.59652   0.00000  Uiso   1.00
H996   H     0.02044   0.58308   0.43449   0.00000  Uiso   1.00
H997   H     0.01940   0.63420   0.39967   0.00000  Uiso   1.00
H998   H     0.02888   0.58208   0.36781   0.00000  Uiso   1.00
H999   H     0.09480   0.62360   0.38388   0.00000  Uiso   1.00
H1000  H     0.09668   0.57103   0.41405   0.00000  Uiso   1.00
H1001  H     0.08313   0.60799   0.49831   0.00000  Uiso   1.00
H1002  H     0.06822   0.65544   0.47030   0.00000  Uiso   1.00
H1003  H     0.08760   0.37429   0.65514   0.00000  Uiso   1.00
H1004  H     0.30303   0.55174   0.61543   0.00000  Uiso   1.00
H1005  H     0.10887   0.42808   0.33576   0.00000  Uiso   1.00
H1006  H     0.13651   0.38916   0.62966   0.00000  Uiso   1.00
H1007  H     0.17226   0.38936   0.38083   0.00000  Uiso   1.00
H1008  H     0.14766   0.33759   0.36936   0.00000  Uiso   1.00
H1009  H     0.08450   0.36795   0.41574   0.00000  Uiso   1.00
H1010  H     0.11104   0.41534   0.43085   0.00000  Uiso   1.00
H1011  H     0.22970   0.56924   0.66276   0.00000  Uiso   1.00
H1012  H     0.25438   0.62189   0.33986   0.00000  Uiso   1.00
H1013  H     0.20699   0.61010   0.37079   0.00000  Uiso   1.00
H1014  H     0.19114   0.66053   0.63257   0.00000  Uiso   1.00
H1015  H     0.25383   0.47932   0.40208   0.00000  Uiso   1.00
H1016  H     0.16605   0.60921   0.62220   0.00000  Uiso   1.00
H1017  H     0.22273   0.58313   0.56741   0.00000  Uiso   1.00
H1018  H     0.25180   0.62919   0.57853   0.00000  Uiso   1.00
H1019  H     0.04160   0.55944   0.60781   0.00000  Uiso   1.00
H1020  H     0.30487   0.42477   0.57244   0.00000  Uiso   1.00
H1021  H     0.31729   0.36894   0.59309   0.00000  Uiso   1.00
H1022  H     0.00515   0.38888   0.53623   0.00000  Uiso   1.00
H1023  H     0.27852   0.33828   0.51870   0.00000  Uiso   1.00
H1024  H     0.26881   0.39180   0.49263   0.00000  Uiso   1.00
N1025  N     0.16667   0.61907   0.50000   0.00000  Uiso   1.00
N1026  N     0.16667   0.38093   0.50000   0.00000  Uiso   1.00
O1027  O     0.10559   0.53821   0.50000   0.00000  Uiso   1.00
O1028  O     0.26365   0.50262   0.60514   0.00000  Uiso   1.00
O1029  O     0.29668   0.43133   0.39159   0.00000  Uiso   1.00
O1030  O     0.07538   0.50291   0.60755   0.00000  Uiso   1.00
O1031  O     0.22774   0.46179   0.50000   0.00000  Uiso   1.00
O1032  O     0.22774   0.53821   0.50000   0.00000  Uiso   1.00
O1033  O     0.10559   0.46179   0.50000   0.00000  Uiso   1.00
O1034  O     0.16667   0.53821   0.42845   0.00000  Uiso   1.00
O1035  O     0.16666   0.46179   0.57155   0.00000  Uiso   1.00
O1036  O     0.16666   0.53821   0.57155   0.00000  Uiso   1.00
O1037  O     0.16667   0.46179   0.42845   0.00000  Uiso   1.00
O1038  O     0.02259   0.48664   0.36468   0.00000  Uiso   1.00
Zn1039 Zn    0.16667   0.55104   0.50000   0.00000  Uiso   1.00
Zn1040 Zn    0.16667   0.44896   0.50000   0.00000  Uiso   1.00
C1041  C     0.42037   0.50063   0.49922   0.00000  Uiso   1.00
C1042  C     0.35657   0.51503   0.54280   0.00000  Uiso   1.00
C1043  C     0.62398   0.49823   0.50030   0.00000  Uiso   1.00
C1044  C     0.37597   0.50183   0.49849   0.00000  Uiso   1.00
C1045  C     0.52880   0.35655   0.53004   0.00000  Uiso   1.00
C1046  C     0.46911   0.64414   0.47368   0.00000  Uiso   1.00
C1047  C     0.47294   0.35763   0.46832   0.00000  Uiso   1.00
C1048  C     0.52753   0.64217   0.53175   0.00000  Uiso   1.00
C1049  C     0.37516   0.48368   0.40552   0.00000  Uiso   1.00
C1050  C     0.62551   0.52474   0.59135   0.00000  Uiso   1.00
C1051  C     0.61776   0.46485   0.41324   0.00000  Uiso   1.00
C1052  C     0.57961   0.49938   0.50010   0.00000  Uiso   1.00
C1053  C     0.38162   0.52809   0.58907   0.00000  Uiso   1.00
C1054  C     0.56526   0.37929   0.55784   0.00000  Uiso   1.00
C1055  C     0.60568   0.37361   0.52868   0.00000  Uiso   1.00
C1056  C     0.64390   0.39016   0.55960   0.00000  Uiso   1.00
C1057  C     0.42467   0.62750   0.46590   0.00000  Uiso   1.00
C1058  C     0.41536   0.60462   0.41468   0.00000  Uiso   1.00
C1059  C     0.36806   0.60076   0.40361   0.00000  Uiso   1.00
C1060  C     0.44989   0.38014   0.42359   0.00000  Uiso   1.00
C1061  C     0.47469   0.37345   0.37597   0.00000  Uiso   1.00
C1062  C     0.45034   0.39249   0.66300   0.00000  Uiso   1.00
C1063  C     0.49984   0.49984   0.40648   0.00000  Uiso   1.00
C1064  C     0.55224   0.61838   0.57456   0.00000  Uiso   1.00
C1065  C     0.53046   0.62490   0.62461   0.00000  Uiso   1.00
C1066  C     0.55713   0.60525   0.33547   0.00000  Uiso   1.00
C1067  C     0.50069   0.50015   0.59354   0.00000  Uiso   1.00
C1068  C     0.50039   0.49977   0.35526   0.00000  Uiso   1.00
C1069  C     0.50077   0.50024   0.64485   0.00000  Uiso   1.00
C1070  C     0.35337   0.48870   0.45404   0.00000  Uiso   1.00
C1071  C     0.64650   0.51368   0.54367   0.00000  Uiso   1.00
C1072  C     0.64331   0.48433   0.45610   0.00000  Uiso   1.00
H1073  H     0.40904   0.47982   0.40553   0.00000  Uiso   1.00
H1074  H     0.55812   0.41428   0.56504   0.00000  Uiso   1.00
H1075  H     0.57114   0.36667   0.59652   0.00000  Uiso   1.00
H1076  H     0.35378   0.58308   0.43449   0.00000  Uiso   1.00
H1077  H     0.35274   0.63420   0.39967   0.00000  Uiso   1.00
H1078  H     0.36221   0.58208   0.36781   0.00000  Uiso   1.00
H1079  H     0.42813   0.62360   0.38388   0.00000  Uiso   1.00
H1080  H     0.43001   0.57103   0.41405   0.00000  Uiso   1.00
H1081  H     0.41646   0.60799   0.49831   0.00000  Uiso   1.00
H1082  H     0.40156   0.65544   0.47030   0.00000  Uiso   1.00
H1083  H     0.42093   0.37429   0.65514   0.00000  Uiso   1.00
H1084  H     0.63636   0.55174   0.61543   0.00000  Uiso   1.00
H1085  H     0.44221   0.42808   0.33576   0.00000  Uiso   1.00
H1086  H     0.46984   0.38916   0.62966   0.00000  Uiso   1.00
H1087  H     0.50559   0.38936   0.38083   0.00000  Uiso   1.00
H1088  H     0.48100   0.33759   0.36936   0.00000  Uiso   1.00
H1089  H     0.41783   0.36795   0.41574   0.00000  Uiso   1.00
H1090  H     0.44438   0.41534   0.43085   0.00000  Uiso   1.00
H1091  H     0.56303   0.56924   0.66276   0.00000  Uiso   1.00
H1092  H     0.58771   0.62189   0.33986   0.00000  Uiso   1.00
H1093  H     0.54032   0.61010   0.37079   0.00000  Uiso   1.00
H1094  H     0.52447   0.66053   0.63257   0.00000  Uiso   1.00
H1095  H     0.58716   0.47932   0.40208   0.00000  Uiso   1.00
H1096  H     0.49938   0.60921   0.62220   0.00000  Uiso   1.00
H1097  H     0.55607   0.58313   0.56741   0.00000  Uiso   1.00
H1098  H     0.58513   0.62919   0.57853   0.00000  Uiso   1.00
H1099  H     0.37493   0.55944   0.60781   0.00000  Uiso   1.00
H1100  H     0.63820   0.42477   0.57244   0.00000  Uiso   1.00
H1101  H     0.65062   0.36894   0.59309   0.00000  Uiso   1.00
H1102  H     0.33848   0.38888   0.53623   0.00000  Uiso   1.00
H1103  H     0.61185   0.33828   0.51870   0.00000  Uiso   1.00
H1104  H     0.60214   0.39180   0.49263   0.00000  Uiso   1.00
N1105  N     0.50000   0.61907   0.50000   0.00000  Uiso   1.00
N1106  N     0.50000   0.38093   0.50000   0.00000  Uiso   1.00
O1107  O     0.43892   0.53821   0.50000   0.00000  Uiso   1.00
O1108  O     0.59698   0.50262   0.60514   0.00000  Uiso   1.00
O1109  O     0.63001   0.43133   0.39159   0.00000  Uiso   1.00
O1110  O     0.40871   0.50291   0.60755   0.00000  Uiso   1.00
O1111  O     0.56108   0.46179   0.50000   0.00000  Uiso   1.00
O1112  O     0.56108   0.53821   0.50000   0.00000  Uiso   1.00
O1113  O     0.43892   0.46179   0.50000   0.00000  Uiso   1.00
O1114  O     0.50000   0.53821   0.42845   0.00000  Uiso   1.00
O1115  O     0.50000   0.46179   0.57155   0.00000  Uiso   1.00
O1116  O     0.50000   0.53821   0.57155   0.00000  Uiso   1.00
O1117  O     0.50000   0.46179   0.42845   0.00000  Uiso   1.00
O1118  O     0.35592   0.48664   0.36468   0.00000  Uiso   1.00
Zn1119 Zn    0.50000   0.55104   0.50000   0.00000  Uiso   1.00
Zn1120 Zn    0.50000   0.44896   0.50000   0.00000  Uiso   1.00
C1121  C     0.75370   0.50063   0.49922   0.00000  Uiso   1.00
C1122  C     0.68991   0.51503   0.54280   0.00000  Uiso   1.00
C1123  C     0.95731   0.49823   0.50030   0.00000  Uiso   1.00
C1124  C     0.70930   0.50183   0.49849   0.00000  Uiso   1.00
C1125  C     0.86214   0.35655   0.53004   0.00000  Uiso   1.00
C1126  C     0.80244   0.64414   0.47368   0.00000  Uiso   1.00
C1127  C     0.80627   0.35763   0.46832   0.00000  Uiso   1.00
C1128  C     0.86086   0.64217   0.53175   0.00000  Uiso   1.00
C1129  C     0.70850   0.48368   0.40552   0.00000  Uiso   1.00
C1130  C     0.95884   0.52474   0.59135   0.00000  Uiso   1.00
C1131  C     0.95109   0.46485   0.41324   0.00000  Uiso   1.00
C1132  C     0.91294   0.49938   0.50010   0.00000  Uiso   1.00
C1133  C     0.71495   0.52809   0.58907   0.00000  Uiso   1.00
C1134  C     0.89859   0.37929   0.55784   0.00000  Uiso   1.00
C1135  C     0.93902   0.37361   0.52868   0.00000  Uiso   1.00
C1136  C     0.97723   0.39016   0.55960   0.00000  Uiso   1.00
C1137  C     0.75800   0.62750   0.46590   0.00000  Uiso   1.00
C1138  C     0.74869   0.60462   0.41468   0.00000  Uiso   1.00
C1139  C     0.70140   0.60076   0.40361   0.00000  Uiso   1.00
C1140  C     0.78322   0.38014   0.42359   0.00000  Uiso   1.00
C1141  C     0.80802   0.37345   0.37597   0.00000  Uiso   1.00
C1142  C     0.78368   0.39249   0.66300   0.00000  Uiso   1.00
C1143  C     0.83317   0.49984   0.40648   0.00000  Uiso   1.00
C1144  C     0.88557   0.61838   0.57456   0.00000  Uiso   1.00
C1145  C     0.86380   0.62490   0.62461   0.00000  Uiso   1.00
C1146  C     0.89047   0.60525   0.33547   0.00000  Uiso   1.00
C1147  C     0.83402   0.50015   0.59354   0.00000  Uiso   1.00
C1148  C     0.83373   0.49977   0.35526   0.00000  Uiso   1.00
C1149  C     0.83410   0.50024   0.64485   0.00000  Uiso   1.00
C1150  C     0.68671   0.48870   0.45404   0.00000  Uiso   1.00
C1151  C     0.97984   0.51368   0.54367   0.00000  Uiso   1.00
C1152  C     0.97665   0.48433   0.45610   0.00000  Uiso   1.00
H1153  H     0.74237   0.47982   0.40553   0.00000  Uiso   1.00
H1154  H     0.89146   0.41428   0.56504   0.00000  Uiso   1.00
H1155  H     0.90447   0.36667   0.59652   0.00000  Uiso   1.00
H1156  H     0.68711   0.58308   0.43449   0.00000  Uiso   1.00
H1157  H     0.68607   0.63420   0.39967   0.00000  Uiso   1.00
H1158  H     0.69555   0.58208   0.36781   0.00000  Uiso   1.00
H1159  H     0.76147   0.62360   0.38388   0.00000  Uiso   1.00
H1160  H     0.76334   0.57103   0.41405   0.00000  Uiso   1.00
H1161  H     0.74980   0.60799   0.49831   0.00000  Uiso   1.00
H1162  H     0.73489   0.65544   0.47030   0.00000  Uiso   1.00
H1163  H     0.75426   0.37429   0.65514   0.00000  Uiso   1.00
H1164  H     0.96969   0.55174   0.61543   0.00000  Uiso   1.00
H1165  H     0.77554   0.42808   0.33576   0.00000  Uiso   1.00
H1166  H     0.80318   0.38916   0.62966   0.00000  Uiso   1.00
H1167  H     0.83892   0.38936   0.38083   0.00000  Uiso   1.00
H1168  H     0.81433   0.33759   0.36936   0.00000  Uiso   1.00
H1169  H     0.75116   0.36795   0.41574   0.00000  Uiso   1.00
H1170  H     0.77771   0.41534   0.43085   0.00000  Uiso   1.00
H1171  H     0.89636   0.56924   0.66276   0.00000  Uiso   1.00
H1172  H     0.92105   0.62189   0.33986   0.00000  Uiso   1.00
H1173  H     0.87365   0.61010   0.37079   0.00000  Uiso   1.00
H1174  H     0.85781   0.66053   0.63257   0.00000  Uiso   1.00
H1175  H     0.92050   0.47932   0.40208   0.00000  Uiso   1.00
H1176  H     0.83271   0.60921   0.62220   0.00000  Uiso   1.00
H1177  H     0.88940   0.58313   0.56741   0.00000  Uiso   1.00
H1178  H     0.91847   0.62919   0.57853   0.00000  Uiso   1.00
H1179  H     0.70826   0.55944   0.60781   0.00000  Uiso   1.00
H1180  H     0.97153   0.42477   0.57244   0.00000  Uiso   1.00
H1181  H     0.98395   0.36894   0.59309   0.00000  Uiso   1.00
H1182  H     0.67181   0.38888   0.53623   0.00000  Uiso   1.00
H1183  H     0.94518   0.33828   0.51870   0.00000  Uiso   1.00
H1184  H     0.93548   0.39180   0.49263   0.00000  Uiso   1.00
N1185  N     0.83333   0.61907   0.50000   0.00000  Uiso   1.00
N1186  N     0.83333   0.38093   0.50000   0.00000  Uiso   1.00
O1187  O     0.77226   0.53821   0.50000   0.00000  Uiso   1.00
O1188  O     0.93032   0.50262   0.60514   0.00000  Uiso   1.00
O1189  O     0.96334   0.43133   0.39159   0.00000  Uiso   1.00
O1190  O     0.74204   0.50291   0.60755   0.00000  Uiso   1.00
O1191  O     0.89441   0.46179   0.50000   0.00000  Uiso   1.00
O1192  O     0.89441   0.53821   0.50000   0.00000  Uiso   1.00
O1193  O     0.77226   0.46179   0.50000   0.00000  Uiso   1.00
O1194  O     0.83334   0.53821   0.42845   0.00000  Uiso   1.00
O1195  O     0.83333   0.46179   0.57155   0.00000  Uiso   1.00
O1196  O     0.83333   0.53821   0.57155   0.00000  Uiso   1.00
O1197  O     0.83334   0.46179   0.42845   0.00000  Uiso   1.00
O1198  O     0.68925   0.48664   0.36468   0.00000  Uiso   1.00
Zn1199 Zn    0.83333   0.55104   0.50000   0.00000  Uiso   1.00
Zn1200 Zn    0.83333   0.44896   0.50000   0.00000  Uiso   1.00
C1201  C     0.08703   0.83396   0.49922   0.00000  Uiso   1.00
C1202  C     0.02324   0.84836   0.54280   0.00000  Uiso   1.00
C1203  C     0.29065   0.83156   0.50030   0.00000  Uiso   1.00
C1204  C     0.04264   0.83516   0.49849   0.00000  Uiso   1.00
C1205  C     0.19547   0.68988   0.53004   0.00000  Uiso   1.00
C1206  C     0.13577   0.97748   0.47368   0.00000  Uiso   1.00
C1207  C     0.13961   0.69097   0.46832   0.00000  Uiso   1.00
C1208  C     0.19419   0.97550   0.53175   0.00000  Uiso   1.00
C1209  C     0.04183   0.81701   0.40552   0.00000  Uiso   1.00
C1210  C     0.29218   0.85808   0.59135   0.00000  Uiso   1.00
C1211  C     0.28443   0.79819   0.41324   0.00000  Uiso   1.00
C1212  C     0.24628   0.83271   0.50010   0.00000  Uiso   1.00
C1213  C     0.04829   0.86142   0.58907   0.00000  Uiso   1.00
C1214  C     0.23193   0.71262   0.55784   0.00000  Uiso   1.00
C1215  C     0.27235   0.70695   0.52868   0.00000  Uiso   1.00
C1216  C     0.31057   0.72349   0.55960   0.00000  Uiso   1.00
C1217  C     0.09134   0.96084   0.46590   0.00000  Uiso   1.00
C1218  C     0.08203   0.93795   0.41468   0.00000  Uiso   1.00
C1219  C     0.03473   0.93409   0.40361   0.00000  Uiso   1.00
C1220  C     0.11655   0.71348   0.42359   0.00000  Uiso   1.00
C1221  C     0.14135   0.70678   0.37597   0.00000  Uiso   1.00
C1222  C     0.11701   0.72582   0.66300   0.00000  Uiso   1.00
C1223  C     0.16651   0.83317   0.40648   0.00000  Uiso   1.00
C1224  C     0.21891   0.95171   0.57456   0.00000  Uiso   1.00
C1225  C     0.19713   0.95823   0.62461   0.00000  Uiso   1.00
C1226  C     0.22380   0.93858   0.33547   0.00000  Uiso   1.00
C1227  C     0.16735   0.83349   0.59354   0.00000  Uiso   1.00
C1228  C     0.16706   0.83310   0.35526   0.00000  Uiso   1.00
C1229  C     0.16743   0.83357   0.64485   0.00000  Uiso   1.00
C1230  C     0.02004   0.82204   0.45404   0.00000  Uiso   1.00
C1231  C     0.31317   0.84701   0.54367   0.00000  Uiso   1.00
C1232  C     0.30998   0.81766   0.45610   0.00000  Uiso   1.00
H1233  H     0.07570   0.81315   0.40553   0.00000  Uiso   1.00
H1234  H     0.22479   0.74761   0.56504   0.00000  Uiso   1.00
H1235  H     0.23780   0.70001   0.59652   0.00000  Uiso   1.00
H1236  H     0.02044   0.91642   0.43449   0.00000  Uiso   1.00
H1237  H     0.01940   0.96753   0.39967   0.00000  Uiso   1.00
H1238  H     0.02888   0.91542   0.36781   0.00000  Uiso   1.00
H1239  H     0.09480   0.95694   0.38388   0.00000  Uiso   1.00
H1240  H     0.09668   0.90436   0.41405   0.00000  Uiso   1.00
H1241  H     0.08313   0.94132   0.49831   0.00000  Uiso   1.00
H1242  H     0.06822   0.98877   0.47030   0.00000  Uiso   1.00
H1243  H     0.08760   0.70762   0.65514   0.00000  Uiso   1.00
H1244  H     0.30303   0.88508   0.61543   0.00000  Uiso   1.00
H1245  H     0.10887   0.76142   0.33576   0.00000  Uiso   1.00
H1246  H     0.13651   0.72249   0.62966   0.00000  Uiso   1.00
H1247  H     0.17226   0.72269   0.38083   0.00000  Uiso   1.00
H1248  H     0.14766   0.67093   0.36936   0.00000  Uiso   1.00
H1249  H     0.08450   0.70129   0.41574   0.00000  Uiso   1.00
H1250  H     0.11104   0.74867   0.43085   0.00000  Uiso   1.00
H1251  H     0.22970   0.90258   0.66276   0.00000  Uiso   1.00
H1252  H     0.25438   0.95523   0.33986   0.00000  Uiso   1.00
H1253  H     0.20699   0.94343   0.37079   0.00000  Uiso   1.00
H1254  H     0.19114   0.99387   0.63257   0.00000  Uiso   1.00
H1255  H     0.25383   0.81266   0.40208   0.00000  Uiso   1.00
H1256  H     0.16605   0.94255   0.62220   0.00000  Uiso   1.00
H1257  H     0.22273   0.91646   0.56741   0.00000  Uiso   1.00
H1258  H     0.25180   0.96253   0.57853   0.00000  Uiso   1.00
H1259  H     0.04160   0.89278   0.60781   0.00000  Uiso   1.00
H1260  H     0.30487   0.75810   0.57244   0.00000  Uiso   1.00
H1261  H     0.31729   0.70228   0.59309   0.00000  Uiso   1.00
H1262  H     0.00515   0.72221   0.53623   0.00000  Uiso   1.00
H1263  H     0.27852   0.67161   0.51870   0.00000  Uiso   1.00
H1264  H     0.26881   0.72513   0.49263   0.00000  Uiso   1.00
N1265  N     0.16667   0.95240   0.50000   0.00000  Uiso   1.00
N1266  N     0.16667   0.71427   0.50000   0.00000  Uiso   1.00
O1267  O     0.10559   0.87154   0.50000   0.00000  Uiso   1.00
O1268  O     0.26365   0.83595   0.60514   0.00000  Uiso   1.00
O1269  O     0.29668   0.76466   0.39159   0.00000  Uiso   1.00
O1270  O     0.07538   0.83624   0.60755   0.00000  Uiso   1.00
O1271  O     0.22774   0.79513   0.50000   0.00000  Uiso   1.00
O1272  O     0.22774   0.87154   0.50000   0.00000  Uiso   1.00
O1273  O     0.10559   0.79513   0.50000   0.00000  Uiso   1.00
O1274  O     0.16667   0.87155   0.42845   0.00000  Uiso   1.00
O1275  O     0.16666   0.79512   0.57155   0.00000  Uiso   1.00
O1276  O     0.16666   0.87155   0.57155   0.00000  Uiso   1.00
O1277  O     0.16667   0.79512   0.42845   0.00000  Uiso   1.00
O1278  O     0.02259   0.81998   0.36468   0.00000  Uiso   1.00
Zn1279 Zn    0.16667   0.88437   0.50000   0.00000  Uiso   1.00
Zn1280 Zn    0.16667   0.78229   0.50000   0.00000  Uiso   1.00
C1281  C     0.42037   0.83396   0.49922   0.00000  Uiso   1.00
C1282  C     0.35657   0.84836   0.54280   0.00000  Uiso   1.00
C1283  C     0.62398   0.83156   0.50030   0.00000  Uiso   1.00
C1284  C     0.37597   0.83516   0.49849   0.00000  Uiso   1.00
C1285  C     0.52880   0.68988   0.53004   0.00000  Uiso   1.00
C1286  C     0.46911   0.97748   0.47368   0.00000  Uiso   1.00
C1287  C     0.47294   0.69097   0.46832   0.00000  Uiso   1.00
C1288  C     0.52753   0.97550   0.53175   0.00000  Uiso   1.00
C1289  C     0.37516   0.81701   0.40552   0.00000  Uiso   1.00
C1290  C     0.62551   0.85808   0.59135   0.00000  Uiso   1.00
C1291  C     0.61776   0.79819   0.41324   0.00000  Uiso   1.00
C1292  C     0.57961   0.83271   0.50010   0.00000  Uiso   1.00
C1293  C     0.38162   0.86142   0.58907   0.00000  Uiso   1.00
C1294  C     0.56526   0.71262   0.55784   0.00000  Uiso   1.00
C1295  C     0.60568   0.70695   0.52868   0.00000  Uiso   1.00
C1296  C     0.64390   0.72349   0.55960   0.00000  Uiso   1.00
C1297  C     0.42467   0.96084   0.46590   0.00000  Uiso   1.00
C1298  C     0.41536   0.93795   0.41468   0.00000  Uiso   1.00
C1299  C     0.36806   0.93409   0.40361   0.00000  Uiso   1.00
C1300  C     0.44989   0.71348   0.42359   0.00000  Uiso   1.00
C1301  C     0.47469   0.70678   0.37597   0.00000  Uiso   1.00
C1302  C     0.45034   0.72582   0.66300   0.00000  Uiso   1.00
C1303  C     0.49984   0.83317   0.40648   0.00000  Uiso   1.00
C1304  C     0.55224   0.95171   0.57456   0.00000  Uiso   1.00
C1305  C     0.53046   0.95823   0.62461   0.00000  Uiso   1.00
C1306  C     0.55713   0.93858   0.33547   0.00000  Uiso   1.00
C1307  C     0.50069   0.83349   0.59354   0.00000  Uiso   1.00
C1308  C     0.50039   0.83310   0.35526   0.00000  Uiso   1.00
C1309  C     0.50077   0.83357   0.64485   0.00000  Uiso   1.00
C1310  C     0.35337   0.82204   0.45404   0.00000  Uiso   1.00
C1311  C     0.64650   0.84701   0.54367   0.00000  Uiso   1.00
C1312  C     0.64331   0.81766   0.45610   0.00000  Uiso   1.00
H1313  H     0.40904   0.81315   0.40553   0.00000  Uiso   1.00
H1314  H     0.55812   0.74761   0.56504   0.00000  Uiso   1.00
H1315  H     0.57114   0.70001   0.59652   0.00000  Uiso   1.00
H1316  H     0.35378   0.91642   0.43449   0.00000  Uiso   1.00
H1317  H     0.35274   0.96753   0.39967   0.00000  Uiso   1.00
H1318  H     0.36221   0.91542   0.36781   0.00000  Uiso   1.00
H1319  H     0.42813   0.95694   0.38388   0.00000  Uiso   1.00
H1320  H     0.43001   0.90436   0.41405   0.00000  Uiso   1.00
H1321  H     0.41646   0.94132   0.49831   0.00000  Uiso   1.00
H1322  H     0.40156   0.98877   0.47030   0.00000  Uiso   1.00
H1323  H     0.42093   0.70762   0.65514   0.00000  Uiso   1.00
H1324  H     0.63636   0.88508   0.61543   0.00000  Uiso   1.00
H1325  H     0.44221   0.76142   0.33576   0.00000  Uiso   1.00
H1326  H     0.46984   0.72249   0.62966   0.00000  Uiso   1.00
H1327  H     0.50559   0.72269   0.38083   0.00000  Uiso   1.00
H1328  H     0.48100   0.67093   0.36936   0.00000  Uiso   1.00
H1329  H     0.41783   0.70129   0.41574   0.00000  Uiso   1.00
H1330  H     0.44438   0.74867   0.43085   0.00000  Uiso   1.00
H1331  H     0.56303   0.90258   0.66276   0.00000  Uiso   1.00
H1332  H     0.58771   0.95523   0.33986   0.00000  Uiso   1.00
H1333  H     0.54032   0.94343   0.37079   0.00000  Uiso   1.00
H1334  H     0.52447   0.99387   0.63257   0.00000  Uiso   1.00
H1335  H     0.58716   0.81266   0.40208   0.00000  Uiso   1.00
H1336  H     0.49938   0.94255   0.62220   0.00000  Uiso   1.00
H1337  H     0.55607   0.91646   0.56741   0.00000  Uiso   1.00
H1338  H     0.58513   0.96253   0.57853   0.00000  Uiso   1.00
H1339  H     0.37493   0.89278   0.60781   0.00000  Uiso   1.00
H1340  H     0.63820   0.75810   0.57244   0.00000  Uiso   1.00
H1341  H     0.65062   0.70228   0.59309   0.00000  Uiso   1.00
H1342  H     0.33848   0.72221   0.53623   0.00000  Uiso   1.00
H1343  H     0.61185   0.67161   0.51870   0.00000  Uiso   1.00
H1344  H     0.60214   0.72513   0.49263   0.00000  Uiso   1.00
N1345  N     0.50000   0.95240   0.50000   0.00000  Uiso   1.00
N1346  N     0.50000   0.71427   0.50000   0.00000  Uiso   1.00
O1347  O     0.43892   0.87154   0.50000   0.00000  Uiso   1.00
O1348  O     0.59698   0.83595   0.60514   0.00000  Uiso   1.00
O1349  O     0.63001   0.76466   0.39159   0.00000  Uiso   1.00
O1350  O     0.40871   0.83624   0.60755   0.00000  Uiso   1.00
O1351  O     0.56108   0.79513   0.50000   0.00000  Uiso   1.00
O1352  O     0.56108   0.87154   0.50000   0.00000  Uiso   1.00
O1353  O     0.43892   0.79513   0.50000   0.00000  Uiso   1.00
O1354  O     0.50000   0.87155   0.42845   0.00000  Uiso   1.00
O1355  O     0.50000   0.79512   0.57155   0.00000  Uiso   1.00
O1356  O     0.50000   0.87155   0.57155   0.00000  Uiso   1.00
O1357  O     0.50000   0.79512   0.42845   0.00000  Uiso   1.00
O1358  O     0.35592   0.81998   0.36468   0.00000  Uiso   1.00
Zn1359 Zn    0.50000   0.88437   0.50000   0.00000  Uiso   1.00
Zn1360 Zn    0.50000   0.78229   0.50000   0.00000  Uiso   1.00
C1361  C     0.75370   0.83396   0.49922   0.00000  Uiso   1.00
C1362  C     0.68991   0.84836   0.54280   0.00000  Uiso   1.00
C1363  C     0.95731   0.83156   0.50030   0.00000  Uiso   1.00
C1364  C     0.70930   0.83516   0.49849   0.00000  Uiso   1.00
C1365  C     0.86214   0.68988   0.53004   0.00000  Uiso   1.00
C1366  C     0.80244   0.97748   0.47368   0.00000  Uiso   1.00
C1367  C     0.80627   0.69097   0.46832   0.00000  Uiso   1.00
C1368  C     0.86086   0.97550   0.53175   0.00000  Uiso   1.00
C1369  C     0.70850   0.81701   0.40552   0.00000  Uiso   1.00
C1370  C     0.95884   0.85808   0.59135   0.00000  Uiso   1.00
C1371  C     0.95109   0.79819   0.41324   0.00000  Uiso   1.00
C1372  C     0.91294   0.83271   0.50010   0.00000  Uiso   1.00
C1373  C     0.71495   0.86142   0.58907   0.00000  Uiso   1.00
C1374  C     0.89859   0.71262   0.55784   0.00000  Uiso   1.00
C1375  C     0.93902   0.70695   0.52868   0.00000  Uiso   1.00
C1376  C     0.97723   0.72349   0.55960   0.00000  Uiso   1.00
C1377  C     0.75800   0.96084   0.46590   0.00000  Uiso   1.00
C1378  C     0.74869   0.93795   0.41468   0.00000  Uiso   1.00
C1379  C     0.70140   0.93409   0.40361   0.00000  Uiso   1.00
C1380  C     0.78322   0.71348   0.42359   0.00000  Uiso   1.00
C1381  C     0.80802   0.70678   0.37597   0.00000  Uiso   1.00
C1382  C     0.78368   0.72582   0.66300   0.00000  Uiso   1.00
C1383  C     0.83317   0.83317   0.40648   0.00000  Uiso   1.00
C1384  C     0.88557   0.95171   0.57456   0.00000  Uiso   1.00
C1385  C     0.86380   0.95823   0.62461   0.00000  Uiso   1.00
C1386  C     0.89047   0.93858   0.33547   0.00000  Uiso   1.00
C1387  C     0.83402   0.83349   0.59354   0.00000  Uiso   1.00
C1388  C     0.83373   0.83310   0.35526   0.00000  Uiso   1.00
C1389  C     0.83410   0.83357   0.64485   0.00000  Uiso   1.00
C1390  C     0.68671   0.82204   0.45404   0.00000  Uiso   1.00
C1391  C     0.97984   0.84701   0.54367   0.00000  Uiso   1.00
C1392  C     0.97665   0.81766   0.45610   0.00000  Uiso   1.00
H1393  H     0.74237   0.81315   0.40553   0.00000  Uiso   1.00
H1394  H     0.89146   0.74761   0.56504   0.00000  Uiso   1.00
H1395  H     0.90447   0.70001   0.59652   0.00000  Uiso   1.00
H1396  H     0.68711   0.91642   0.43449   0.00000  Uiso   1.00
H1397  H     0.68607   0.96753   0.39967   0.00000  Uiso   1.00
H1398  H     0.69555   0.91542   0.36781   0.00000  Uiso   1.00
H1399  H     0.76147   0.95694   0.38388   0.00000  Uiso   1.00
H1400  H     0.76334   0.90436   0.41405   0.00000  Uiso   1.00
H1401  H     0.74980   0.94132   0.49831   0.00000  Uiso   1.00
H1402  H     0.73489   0.98877   0.47030   0.00000  Uiso   1.00
H1403  H     0.75426   0.70762   0.65514   0.00000  Uiso   1.00
H1404  H     0.96969   0.88508   0.61543   0.00000  Uiso   1.00
H1405  H     0.77554   0.76142   0.33576   0.00000  Uiso   1.00
H1406  H     0.80318   0.72249   0.62966   0.00000  Uiso   1.00
H1407  H     0.83892   0.72269   0.38083   0.00000  Uiso   1.00
H1408  H     0.81433   0.67093   0.36936   0.00000  Uiso   1.00
H1409  H     0.75116   0.70129   0.41574   0.00000  Uiso   1.00
H1410  H     0.77771   0.74867   0.43085   0.00000  Uiso   1.00
H1411  H     0.89636   0.90258   0.66276   0.00000  Uiso   1.00
H1412  H     0.92105   0.95523   0.33986   0.00000  Uiso   1.00
H1413  H     0.87365   0.94343   0.37079   0.00000  Uiso   1.00
H1414  H     0.85781   0.99387   0.63257   0.00000  Uiso   1.00
H1415  H     0.92050   0.81266   0.40208   0.00000  Uiso   1.00
H1416  H     0.83271   0.94255   0.62220   0.00000  Uiso   1.00
H1417  H     0.88940   0.91646   0.56741   0.00000  Uiso   1.00
H1418  H     0.91847   0.96253   0.57853   0.00000  Uiso   1.00
H1419  H     0.70826   0.89278   0.60781   0.00000  Uiso   1.00
H1420  H     0.97153   0.75810   0.57244   0.00000  Uiso   1.00
H1421  H     0.98395   0.70228   0.59309   0.00000  Uiso   1.00
H1422  H     0.67181   0.72221   0.53623   0.00000  Uiso   1.00
H1423  H     0.94518   0.67161   0.51870   0.00000  Uiso   1.00
H1424  H     0.93548   0.72513   0.49263   0.00000  Uiso   1.00
N1425  N     0.83333   0.95240   0.50000   0.00000  Uiso   1.00
N1426  N     0.83333   0.71427   0.50000   0.00000  Uiso   1.00
O1427  O     0.77226   0.87154   0.50000   0.00000  Uiso   1.00
O1428  O     0.93032   0.83595   0.60514   0.00000  Uiso   1.00
O1429  O     0.96334   0.76466   0.39159   0.00000  Uiso   1.00
O1430  O     0.74204   0.83624   0.60755   0.00000  Uiso   1.00
O1431  O     0.89441   0.79513   0.50000   0.00000  Uiso   1.00
O1432  O     0.89441   0.87154   0.50000   0.00000  Uiso   1.00
O1433  O     0.77226   0.79513   0.50000   0.00000  Uiso   1.00
O1434  O     0.83334   0.87155   0.42845   0.00000  Uiso   1.00
O1435  O     0.83333   0.79512   0.57155   0.00000  Uiso   1.00
O1436  O     0.83333   0.87155   0.57155   0.00000  Uiso   1.00
O1437  O     0.83334   0.79512   0.42845   0.00000  Uiso   1.00
O1438  O     0.68925   0.81998   0.36468   0.00000  Uiso   1.00
Zn1439 Zn    0.83333   0.88437   0.50000   0.00000  Uiso   1.00
Zn1440 Zn    0.83333   0.78229   0.50000   0.00000  Uiso   1.00
C1441  C     0.08703   0.16730   0.83256   0.00000  Uiso   1.00
C1442  C     0.02324   0.18169   0.87614   0.00000  Uiso   1.00
C1443  C     0.29065   0.16490   0.83363   0.00000  Uiso   1.00
C1444  C     0.04264   0.16850   0.83182   0.00000  Uiso   1.00
C1445  C     0.19547   0.02322   0.86338   0.00000  Uiso   1.00
C1446  C     0.13577   0.31081   0.80702   0.00000  Uiso   1.00
C1447  C     0.13961   0.02430   0.80165   0.00000  Uiso   1.00
C1448  C     0.19419   0.30884   0.86509   0.00000  Uiso   1.00
C1449  C     0.04183   0.15034   0.73885   0.00000  Uiso   1.00
C1450  C     0.29218   0.19141   0.92468   0.00000  Uiso   1.00
C1451  C     0.28443   0.13152   0.74657   0.00000  Uiso   1.00
C1452  C     0.24628   0.16605   0.83343   0.00000  Uiso   1.00
C1453  C     0.04829   0.19476   0.92240   0.00000  Uiso   1.00
C1454  C     0.23193   0.04596   0.89118   0.00000  Uiso   1.00
C1455  C     0.27235   0.04028   0.86201   0.00000  Uiso   1.00
C1456  C     0.31057   0.05682   0.89293   0.00000  Uiso   1.00
C1457  C     0.09134   0.29417   0.79923   0.00000  Uiso   1.00
C1458  C     0.08203   0.27128   0.74801   0.00000  Uiso   1.00
C1459  C     0.03473   0.26743   0.73694   0.00000  Uiso   1.00
C1460  C     0.11655   0.04681   0.75692   0.00000  Uiso   1.00
C1461  C     0.14135   0.04011   0.70930   0.00000  Uiso   1.00
C1462  C     0.11701   0.05916   0.99633   0.00000  Uiso   1.00
C1463  C     0.16651   0.16650   0.73982   0.00000  Uiso   1.00
C1464  C     0.21891   0.28505   0.90789   0.00000  Uiso   1.00
C1465  C     0.19713   0.29157   0.95795   0.00000  Uiso   1.00
C1466  C     0.22380   0.27192   0.66881   0.00000  Uiso   1.00
C1467  C     0.16735   0.16682   0.92688   0.00000  Uiso   1.00
C1468  C     0.16706   0.16643   0.68859   0.00000  Uiso   1.00
C1469  C     0.16743   0.16691   0.97818   0.00000  Uiso   1.00
C1470  C     0.02004   0.15537   0.78737   0.00000  Uiso   1.00
C1471  C     0.31317   0.18035   0.87700   0.00000  Uiso   1.00
C1472  C     0.30998   0.15099   0.78943   0.00000  Uiso   1.00
H1473  H     0.07570   0.14649   0.73886   0.00000  Uiso   1.00
H1474  H     0.22479   0.08095   0.89837   0.00000  Uiso   1.00
H1475  H     0.23780   0.03334   0.92985   0.00000  Uiso   1.00
H1476  H     0.02044   0.24975   0.76782   0.00000  Uiso   1.00
H1477  H     0.01940   0.30086   0.73300   0.00000  Uiso   1.00
H1478  H     0.02888   0.24875   0.70114   0.00000  Uiso   1.00
H1479  H     0.09480   0.29027   0.71722   0.00000  Uiso   1.00
H1480  H     0.09668   0.23769   0.74738   0.00000  Uiso   1.00
H1481  H     0.08313   0.27465   0.83165   0.00000  Uiso   1.00
H1482  H     0.06822   0.32210   0.80364   0.00000  Uiso   1.00
H1483  H     0.08760   0.04096   0.98847   0.00000  Uiso   1.00
H1484  H     0.30303   0.21841   0.94876   0.00000  Uiso   1.00
H1485  H     0.10887   0.09475   0.66910   0.00000  Uiso   1.00
H1486  H     0.13651   0.05582   0.96300   0.00000  Uiso   1.00
H1487  H     0.17226   0.05602   0.71416   0.00000  Uiso   1.00
H1488  H     0.14766   0.00426   0.70270   0.00000  Uiso   1.00
H1489  H     0.08450   0.03462   0.74908   0.00000  Uiso   1.00
H1490  H     0.11104   0.08200   0.76418   0.00000  Uiso   1.00
H1491  H     0.22970   0.23591   0.99609   0.00000  Uiso   1.00
H1492  H     0.25438   0.28856   0.67319   0.00000  Uiso   1.00
H1493  H     0.20699   0.27676   0.70412   0.00000  Uiso   1.00
H1494  H     0.19114   0.32720   0.96590   0.00000  Uiso   1.00
H1495  H     0.25383   0.14599   0.73541   0.00000  Uiso   1.00
H1496  H     0.16605   0.27588   0.95553   0.00000  Uiso   1.00
H1497  H     0.22273   0.24980   0.90074   0.00000  Uiso   1.00
H1498  H     0.25180   0.29586   0.91187   0.00000  Uiso   1.00
H1499  H     0.04160   0.22611   0.94115   0.00000  Uiso   1.00
H1500  H     0.30487   0.09144   0.90577   0.00000  Uiso   1.00
H1501  H     0.31729   0.03561   0.92643   0.00000  Uiso   1.00
H1502  H     0.00515   0.05555   0.86956   0.00000  Uiso   1.00
H1503  H     0.27852   0.00494   0.85203   0.00000  Uiso   1.00
H1504  H     0.26881   0.05846   0.82597   0.00000  Uiso   1.00
N1505  N     0.16667   0.28573   0.83333   0.00000  Uiso   1.00
N1506  N     0.16667   0.04760   0.83333   0.00000  Uiso   1.00
O1507  O     0.10559   0.20487   0.83333   0.00000  Uiso   1.00
O1508  O     0.26365   0.16929   0.93847   0.00000  Uiso   1.00
O1509  O     0.29668   0.09799   0.72493   0.00000  Uiso   1.00
O1510  O     0.07538   0.16958   0.94088   0.00000  Uiso   1.00
O1511  O     0.22774   0.12846   0.83334   0.00000  Uiso   1.00
O1512  O     0.22774   0.20487   0.83334   0.00000  Uiso   1.00
O1513  O     0.10559   0.12846   0.83333   0.00000  Uiso   1.00
O1514  O     0.16667   0.20488   0.76178   0.00000  Uiso   1.00
O1515  O     0.16666   0.12845   0.90489   0.00000  Uiso   1.00
O1516  O     0.16666   0.20488   0.90489   0.00000  Uiso   1.00
O1517  O     0.16667   0.12845   0.76178   0.00000  Uiso   1.00
O1518  O     0.02259   0.15331   0.69801   0.00000  Uiso   1.00
Zn1519 Zn    0.16667   0.21771   0.83333   0.00000  Uiso   1.00
Zn1520 Zn    0.16667   0.11563   0.83333   0.00000  Uiso   1.00
C1521  C     0.42037   0.16730   0.83256   0.00000  Uiso   1.00
C1522  C     0.35657   0.18169   0.87614   0.00000  Uiso   1.00
C1523  C     0.62398   0.16490   0.83363   0.00000  Uiso   1.00
C1524  C     0.37597   0.16850   0.83182   0.00000  Uiso   1.00
C1525  C     0.52880   0.02322   0.86338   0.00000  Uiso   1.00
C1526  C     0.46911   0.31081   0.80702   0.00000  Uiso   1.00
C1527  C     0.47294   0.02430   0.80165   0.00000  Uiso   1.00
C1528  C     0.52753   0.30884   0.86509   0.00000  Uiso   1.00
C1529  C     0.37516   0.15034   0.73885   0.00000  Uiso   1.00
C1530  C     0.62551   0.19141   0.92468   0.00000  Uiso   1.00
C1531  C     0.61776   0.13152   0.74657   0.00000  Uiso   1.00
C1532  C     0.57961   0.16605   0.83343   0.00000  Uiso   1.00
C1533  C     0.38162   0.19476   0.92240   0.00000  Uiso   1.00
C1534  C     0.56526   0.04596   0.89118   0.00000  Uiso   1.00
C1535  C     0.60568   0.04028   0.86201   0.00000  Uiso   1.00
C1536  C     0.64390   0.05682   0.89293   0.00000  Uiso   1.00
C1537  C     0.42467   0.29417   0.79923   0.00000  Uiso   1.00
C1538  C     0.41536   0.27128   0.74801   0.00000  Uiso   1.00
C1539  C     0.36806   0.26743   0.73694   0.00000  Uiso   1.00
C1540  C     0.44989   0.04681   0.75692   0.00000  Uiso   1.00
C1541  C     0.47469   0.04011   0.70930   0.00000  Uiso   1.00
C1542  C     0.45034   0.05916   0.99633   0.00000  Uiso   1.00
C1543  C     0.49984   0.16650   0.73982   0.00000  Uiso   1.00
C1544  C     0.55224   0.28505   0.90789   0.00000  Uiso   1.00
C1545  C     0.53046   0.29157   0.95795   0.00000  Uiso   1.00
C1546  C     0.55713   0.27192   0.66881   0.00000  Uiso   1.00
C1547  C     0.50069   0.16682   0.92688   0.00000  Uiso   1.00
C1548  C     0.50039   0.16643   0.68859   0.00000  Uiso   1.00
C1549  C     0.50077   0.16691   0.97818   0.00000  Uiso   1.00
C1550  C     0.35337   0.15537   0.78737   0.00000  Uiso   1.00
C1551  C     0.64650   0.18035   0.87700   0.00000  Uiso   1.00
C1552  C     0.64331   0.15099   0.78943   0.00000  Uiso   1.00
H1553  H     0.40904   0.14649   0.73886   0.00000  Uiso   1.00
H1554  H     0.55812   0.08095   0.89837   0.00000  Uiso   1.00
H1555  H     0.57114   0.03334   0.92985   0.00000  Uiso   1.00
H1556  H     0.35378   0.24975   0.76782   0.00000  Uiso   1.00
H1557  H     0.35274   0.30086   0.73300   0.00000  Uiso   1.00
H1558  H     0.36221   0.24875   0.70114   0.00000  Uiso   1.00
H1559  H     0.42813   0.29027   0.71722   0.00000  Uiso   1.00
H1560  H     0.43001   0.23769   0.74738   0.00000  Uiso   1.00
H1561  H     0.41646   0.27465   0.83165   0.00000  Uiso   1.00
H1562  H     0.40156   0.32210   0.80364   0.00000  Uiso   1.00
H1563  H     0.42093   0.04096   0.98847   0.00000  Uiso   1.00
H1564  H     0.63636   0.21841   0.94876   0.00000  Uiso   1.00
H1565  H     0.44221   0.09475   0.66910   0.00000  Uiso   1.00
H1566  H     0.46984   0.05582   0.96300   0.00000  Uiso   1.00
H1567  H     0.50559   0.05602   0.71416   0.00000  Uiso   1.00
H1568  H     0.48100   0.00426   0.70270   0.00000  Uiso   1.00
H1569  H     0.41783   0.03462   0.74908   0.00000  Uiso   1.00
H1570  H     0.44438   0.08200   0.76418   0.00000  Uiso   1.00
H1571  H     0.56303   0.23591   0.99609   0.00000  Uiso   1.00
H1572  H     0.58771   0.28856   0.67319   0.00000  Uiso   1.00
H1573  H     0.54032   0.27676   0.70412   0.00000  Uiso   1.00
H1574  H     0.52447   0.32720   0.96590   0.00000  Uiso   1.00
H1575  H     0.58716   0.14599   0.73541   0.00000  Uiso   1.00
H1576  H     0.49938   0.27588   0.95553   0.00000  Uiso   1.00
H1577  H     0.55607   0.24980   0.90074   0.00000  Uiso   1.00
H1578  H     0.58513   0.29586   0.91187   0.00000  Uiso   1.00
H1579  H     0.37493   0.22611   0.94115   0.00000  Uiso   1.00
H1580  H     0.63820   0.09144   0.90577   0.00000  Uiso   1.00
H1581  H     0.65062   0.03561   0.92643   0.00000  Uiso   1.00
H1582  H     0.33848   0.05555   0.86956   0.00000  Uiso   1.00
H1583  H     0.61185   0.00494   0.85203   0.00000  Uiso   1.00
H1584  H     0.60214   0.05846   0.82597   0.00000  Uiso   1.00
N1585  N     0.50000   0.28573   0.83333   0.00000  Uiso   1.00
N1586  N     0.50000   0.04760   0.83333   0.00000  Uiso   1.00
O1587  O     0.43892   0.20487   0.83333   0.00000  Uiso   1.00
O1588  O     0.59698   0.16929   0.93847   0.00000  Uiso   1.00
O1589  O     0.63001   0.09799   0.72493   0.00000  Uiso   1.00
O1590  O     0.40871   0.16958   0.94088   0.00000  Uiso   1.00
O1591  O     0.56108   0.12846   0.83334   0.00000  Uiso   1.00
O1592  O     0.56108   0.20487   0.83334   0.00000  Uiso   1.00
O1593  O     0.43892   0.12846   0.83333   0.00000  Uiso   1.00
O1594  O     0.50000   0.20488   0.76178   0.00000  Uiso   1.00
O1595  O     0.50000   0.12845   0.90489   0.00000  Uiso   1.00
O1596  O     0.50000   0.20488   0.90489   0.00000  Uiso   1.00
O1597  O     0.50000   0.12845   0.76178   0.00000  Uiso   1.00
O1598  O     0.35592   0.15331   0.69801   0.00000  Uiso   1.00
Zn1599 Zn    0.50000   0.21771   0.83333   0.00000  Uiso   1.00
Zn1600 Zn    0.50000   0.11563   0.83333   0.00000  Uiso   1.00
C1601  C     0.75370   0.16730   0.83256   0.00000  Uiso   1.00
C1602  C     0.68991   0.18169   0.87614   0.00000  Uiso   1.00
C1603  C     0.95731   0.16490   0.83363   0.00000  Uiso   1.00
C1604  C     0.70930   0.16850   0.83182   0.00000  Uiso   1.00
C1605  C     0.86214   0.02322   0.86338   0.00000  Uiso   1.00
C1606  C     0.80244   0.31081   0.80702   0.00000  Uiso   1.00
C1607  C     0.80627   0.02430   0.80165   0.00000  Uiso   1.00
C1608  C     0.86086   0.30884   0.86509   0.00000  Uiso   1.00
C1609  C     0.70850   0.15034   0.73885   0.00000  Uiso   1.00
C1610  C     0.95884   0.19141   0.92468   0.00000  Uiso   1.00
C1611  C     0.95109   0.13152   0.74657   0.00000  Uiso   1.00
C1612  C     0.91294   0.16605   0.83343   0.00000  Uiso   1.00
C1613  C     0.71495   0.19476   0.92240   0.00000  Uiso   1.00
C1614  C     0.89859   0.04596   0.89118   0.00000  Uiso   1.00
C1615  C     0.93902   0.04028   0.86201   0.00000  Uiso   1.00
C1616  C     0.97723   0.05682   0.89293   0.00000  Uiso   1.00
C1617  C     0.75800   0.29417   0.79923   0.00000  Uiso   1.00
C1618  C     0.74869   0.27128   0.74801   0.00000  Uiso   1.00
C1619  C     0.70140   0.26743   0.73694   0.00000  Uiso   1.00
C1620  C     0.78322   0.04681   0.75692   0.00000  Uiso   1.00
C1621  C     0.80802   0.04011   0.70930   0.00000  Uiso   1.00
C1622  C     0.78368   0.05916   0.99633   0.00000  Uiso   1.00
C1623  C     0.83317   0.16650   0.73982   0.00000  Uiso   1.00
C1624  C     0.88557   0.28505   0.90789   0.00000  Uiso   1.00
C1625  C     0.86380   0.29157   0.95795   0.00000  Uiso   1.00
C1626  C     0.89047   0.27192   0.66881   0.00000  Uiso   1.00
C1627  C     0.83402   0.16682   0.92688   0.00000  Uiso   1.00
C1628  C     0.83373   0.16643   0.68859   0.00000  Uiso   1.00
C1629  C     0.83410   0.16691   0.97818   0.00000  Uiso   1.00
C1630  C     0.68671   0.15537   0.78737   0.00000  Uiso   1.00
C1631  C     0.97984   0.18035   0.87700   0.00000  Uiso   1.00
C1632  C     0.97665   0.15099   0.78943   0.00000  Uiso   1.00
H1633  H     0.74237   0.14649   0.73886   0.00000  Uiso   1.00
H1634  H     0.89146   0.08095   0.89837   0.00000  Uiso   1.00
H1635  H     0.90447   0.03334   0.92985   0.00000  Uiso   1.00
H1636  H     0.68711   0.24975   0.76782   0.00000  Uiso   1.00
H1637  H     0.68607   0.30086   0.73300   0.00000  Uiso   1.00
H1638  H     0.69555   0.24875   0.70114   0.00000  Uiso   1.00
H1639  H     0.76147   0.29027   0.71722   0.00000  Uiso   1.00
H1640  H     0.76334   0.23769   0.74738   0.00000  Uiso   1.00
H1641  H     0.74980   0.27465   0.83165   0.00000  Uiso   1.00
H1642  H     0.73489   0.32210   0.80364   0.00000  Uiso   1.00
H1643  H     0.75426   0.04096   0.98847   0.00000  Uiso   1.00
H1644  H     0.96969   0.21841   0.94876   0.00000  Uiso   1.00
H1645  H     0.77554   0.09475   0.66910   0.00000  Uiso   1.00
H1646  H     0.80318   0.05582   0.96300   0.00000  Uiso   1.00
H1647  H     0.83892   0.05602   0.71416   0.00000  Uiso   1.00
H1648  H     0.81433   0.00426   0.70270   0.00000  Uiso   1.00
H1649  H     0.75116   0.03462   0.74908   0.00000  Uiso   1.00
H1650  H     0.77771   0.08200   0.76418   0.00000  Uiso   1.00
H1651  H     0.89636   0.23591   0.99609   0.00000  Uiso   1.00
H1652  H     0.92105   0.28856   0.67319   0.00000  Uiso   1.00
H1653  H     0.87365   0.27676   0.70412   0.00000  Uiso   1.00
H1654  H     0.85781   0.32720   0.96590   0.00000  Uiso   1.00
H1655  H     0.92050   0.14599   0.73541   0.00000  Uiso   1.00
H1656  H     0.83271   0.27588   0.95553   0.00000  Uiso   1.00
H1657  H     0.88940   0.24980   0.90074   0.00000  Uiso   1.00
H1658  H     0.91847   0.29586   0.91187   0.00000  Uiso   1.00
H1659  H     0.70826   0.22611   0.94115   0.00000  Uiso   1.00
H1660  H     0.97153   0.09144   0.90577   0.00000  Uiso   1.00
H1661  H     0.98395   0.03561   0.92643   0.00000  Uiso   1.00
H1662  H     0.67181   0.05555   0.86956   0.00000  Uiso   1.00
H1663  H     0.94518   0.00494   0.85203   0.00000  Uiso   1.00
H1664  H     0.93548   0.05846   0.82597   0.00000  Uiso   1.00
N1665  N     0.83333   0.28573   0.83333   0.00000  Uiso   1.00
N1666  N     0.83333   0.04760   0.83333   0.00000  Uiso   1.00
O1667  O     0.77226   0.20487   0.83333   0.00000  Uiso   1.00
O1668  O     0.93032   0.16929   0.93847   0.00000  Uiso   1.00
O1669  O     0.96334   0.09799   0.72493   0.00000  Uiso   1.00
O1670  O     0.74204   0.16958   0.94088   0.00000  Uiso   1.00
O1671  O     0.89441   0.12846   0.83334   0.00000  Uiso   1.00
O1672  O     0.89441   0.20487   0.83334   0.00000  Uiso   1.00
O1673  O     0.77226   0.12846   0.83333   0.00000  Uiso   1.00
O1674  O     0.83334   0.20488   0.76178   0.00000  Uiso   1.00
O1675  O     0.83333   0.12845   0.90489   0.00000  Uiso   1.00
O1676  O     0.83333   0.20488   0.90489   0.00000  Uiso   1.00
O1677  O     0.83334   0.12845   0.76178   0.00000  Uiso   1.00
O1678  O     0.68925   0.15331   0.69801   0.00000  Uiso   1.00
Zn1679 Zn    0.83333   0.21771   0.83333   0.00000  Uiso   1.00
Zn1680 Zn    0.83333   0.11563   0.83333   0.00000  Uiso   1.00
C1681  C     0.08703   0.50063   0.83256   0.00000  Uiso   1.00
C1682  C     0.02324   0.51503   0.87614   0.00000  Uiso   1.00
C1683  C     0.29065   0.49823   0.83363   0.00000  Uiso   1.00
C1684  C     0.04264   0.50183   0.83182   0.00000  Uiso   1.00
C1685  C     0.19547   0.35655   0.86338   0.00000  Uiso   1.00
C1686  C     0.13577   0.64414   0.80702   0.00000  Uiso   1.00
C1687  C     0.13961   0.35763   0.80165   0.00000  Uiso   1.00
C1688  C     0.19419   0.64217   0.86509   0.00000  Uiso   1.00
C1689  C     0.04183   0.48368   0.73885   0.00000  Uiso   1.00
C1690  C     0.29218   0.52474   0.92468   0.00000  Uiso   1.00
C1691  C     0.28443   0.46485   0.74657   0.00000  Uiso   1.00
C1692  C     0.24628   0.49938   0.83343   0.00000  Uiso   1.00
C1693  C     0.04829   0.52809   0.92240   0.00000  Uiso   1.00
C1694  C     0.23193   0.37929   0.89118   0.00000  Uiso   1.00
C1695  C     0.27235   0.37361   0.86201   0.00000  Uiso   1.00
C1696  C     0.31057   0.39016   0.89293   0.00000  Uiso   1.00
C1697  C     0.09134   0.62750   0.79923   0.00000  Uiso   1.00
C1698  C     0.08203   0.60462   0.74801   0.00000  Uiso   1.00
C1699  C     0.03473   0.60076   0.73694   0.00000  Uiso   1.00
C1700  C     0.11655   0.38014   0.75692   0.00000  Uiso   1.00
C1701  C     0.14135   0.37345   0.70930   0.00000  Uiso   1.00
C1702  C     0.11701   0.39249   0.99633   0.00000  Uiso   1.00
C1703  C     0.16651   0.49984   0.73982   0.00000  Uiso   1.00
C1704  C     0.21891   0.61838   0.90789   0.00000  Uiso   1.00
C1705  C     0.19713   0.62490   0.95795   0.00000  Uiso   1.00
C1706  C     0.22380   0.60525   0.66881   0.00000  Uiso   1.00
C1707  C     0.16735   0.50015   0.92688   0.00000  Uiso   1.00
C1708  C     0.16706   0.49977   0.68859   0.00000  Uiso   1.00
C1709  C     0.16743   0.50024   0.97818   0.00000  Uiso   1.00
C1710  C     0.02004   0.48870   0.78737   0.00000  Uiso   1.00
C1711  C     0.31317   0.51368   0.87700   0.00000  Uiso   1.00
C1712  C     0.30998   0.48433   0.78943   0.00000  Uiso   1.00
H1713  H     0.07570   0.47982   0.73886   0.00000  Uiso   1.00
H1714  H     0.22479   0.41428   0.89837   0.00000  Uiso   1.00
H1715  H     0.23780   0.36667   0.92985   0.00000  Uiso   1.00
H1716  H     0.02044   0.58308   0.76782   0.00000  Uiso   1.00
H1717  H     0.01940   0.63420   0.73300   0.00000  Uiso   1.00
H1718  H     0.02888   0.58208   0.70114   0.00000  Uiso   1.00
H1719  H     0.09480   0.62360   0.71722   0.00000  Uiso   1.00
H1720  H     0.09668   0.57103   0.74738   0.00000  Uiso   1.00
H1721  H     0.08313   0.60799   0.83165   0.00000  Uiso   1.00
H1722  H     0.06822   0.65544   0.80364   0.00000  Uiso   1.00
H1723  H     0.08760   0.37429   0.98847   0.00000  Uiso   1.00
H1724  H     0.30303   0.55174   0.94876   0.00000  Uiso   1.00
H1725  H     0.10887   0.42808   0.66910   0.00000  Uiso   1.00
H1726  H     0.13651   0.38916   0.96300   0.00000  Uiso   1.00
H1727  H     0.17226   0.38936   0.71416   0.00000  Uiso   1.00
H1728  H     0.14766   0.33759   0.70270   0.00000  Uiso   1.00
H1729  H     0.08450   0.36795   0.74908   0.00000  Uiso   1.00
H1730  H     0.11104   0.41534   0.76418   0.00000  Uiso   1.00
H1731  H     0.22970   0.56924   0.99609   0.00000  Uiso   1.00
H1732  H     0.25438   0.62189   0.67319   0.00000  Uiso   1.00
H1733  H     0.20699   0.61010   0.70412   0.00000  Uiso   1.00
H1734  H     0.19114   0.66053   0.96590   0.00000  Uiso   1.00
H1735  H     0.25383   0.47932   0.73541   0.00000  Uiso   1.00
H1736  H     0.16605   0.60921   0.95553   0.00000  Uiso   1.00
H1737  H     0.22273   0.58313   0.90074   0.00000  Uiso   1.00
H1738  H     0.25180   0.62919   0.91187   0.00000  Uiso   1.00
H1739  H     0.04160   0.55944   0.94115   0.00000  Uiso   1.00
H1740  H     0.30487   0.42477   0.90577   0.00000  Uiso   1.00
H1741  H     0.31729   0.36894   0.92643   0.00000  Uiso   1.00
H1742  H     0.00515   0.38888   0.86956   0.00000  Uiso   1.00
H1743  H     0.27852   0.33828   0.85203   0.00000  Uiso   1.00
H1744  H     0.26881   0.39180   0.82597   0.00000  Uiso   1.00
N1745  N     0.16667   0.61907   0.83333   0.00000  Uiso   1.00
N1746  N     0.16667   0.38093   0.83333   0.00000  Uiso   1.00
O1747  O     0.10559   0.53821   0.83333   0.00000  Uiso   1.00
O1748  O     0.26365   0.50262   0.93847   0.00000  Uiso   1.00
O1749  O     0.29668   0.43133   0.72493   0.00000  Uiso   1.00
O1750  O     0.07538   0.50291   0.94088   0.00000  Uiso   1.00
O1751  O     0.22774   0.46179   0.83334   0.00000  Uiso   1.00
O1752  O     0.22774   0.53821   0.83334   0.00000  Uiso   1.00
O1753  O     0.10559   0.46179   0.83333   0.00000  Uiso   1.00
O1754  O     0.16667   0.53821   0.76178   0.00000  Uiso   1.00
O1755  O     0.16666   0.46179   0.90489   0.00000  Uiso   1.00
O1756  O     0.16666   0.53821   0.90489   0.00000  Uiso   1.00
O1757  O     0.16667   0.46179   0.76178   0.00000  Uiso   1.00
O1758  O     0.02259   0.48664   0.69801   0.00000  Uiso   1.00
Zn1759 Zn    0.16667   0.55104   0.83333   0.00000  Uiso   1.00
Zn1760 Zn    0.16667   0.44896   0.83333   0.00000  Uiso   1.00
C1761  C     0.42037   0.50063   0.83256   0.00000  Uiso   1.00
C1762  C     0.35657   0.51503   0.87614   0.00000  Uiso   1.00
C1763  C     0.62398   0.49823   0.83363   0.00000  Uiso   1.00
C1764  C     0.37597   0.50183   0.83182   0.00000  Uiso   1.00
C1765  C     0.52880   0.35655   0.86338   0.00000  Uiso   1.00
C1766  C     0.46911   0.64414   0.80702   0.00000  Uiso   1.00
C1767  C     0.47294   0.35763   0.80165   0.00000  Uiso   1.00
C1768  C     0.52753   0.64217   0.86509   0.00000  Uiso   1.00
C1769  C     0.37516   0.48368   0.73885   0.00000  Uiso   1.00
C1770  C     0.62551   0.52474   0.92468   0.00000  Uiso   1.00
C1771  C     0.61776   0.46485   0.74657   0.00000  Uiso   1.00
C1772  C     0.57961   0.49938   0.83343   0.00000  Uiso   1.00
C1773  C     0.38162   0.52809   0.92240   0.00000  Uiso   1.00
C1774  C     0.56526   0.37929   0.89118   0.00000  Uiso   1.00
C1775  C     0.60568   0.37361   0.86201   0.00000  Uiso   1.00
C1776  C     0.64390   0.39016   0.89293   0.00000  Uiso   1.00
C1777  C     0.42467   0.62750   0.79923   0.00000  Uiso   1.00
C1778  C     0.41536   0.60462   0.74801   0.00000  Uiso   1.00
C1779  C     0.36806   0.60076   0.73694   0.00000  Uiso   1.00
C1780  C     0.44989   0.38014   0.75692   0.00000  Uiso   1.00
C1781  C     0.47469   0.37345   0.70930   0.00000  Uiso   1.00
C1782  C     0.45034   0.39249   0.99633   0.00000  Uiso   1.00
C1783  C     0.49984   0.49984   0.73982   0.00000  Uiso   1.00
C1784  C     0.55224   0.61838   0.90789   0.00000  Uiso   1.00
C1785  C     0.53046   0.62490   0.95795   0.00000  Uiso   1.00
C1786  C     0.55713   0.60525   0.66881   0.00000  Uiso   1.00
C1787  C     0.50069   0.50015   0.92688   0.00000  Uiso   1.00
C1788  C     0.50039   0.49977   0.68859   0.00000  Uiso   1.00
C1789  C     0.50077   0.50024   0.97818   0.00000  Uiso   1.00
C1790  C     0.35337   0.48870   0.78737   0.00000  Uiso   1.00
C1791  C     0.64650   0.51368   0.87700   0.00000  Uiso   1.00
C1792  C     0.64331   0.48433   0.78943   0.00000  Uiso   1.00
H1793  H     0.40904   0.47982   0.73886   0.00000  Uiso   1.00
H1794  H     0.55812   0.41428   0.89837   0.00000  Uiso   1.00
H1795  H     0.57114   0.36667   0.92985   0.00000  Uiso   1.00
H1796  H     0.35378   0.58308   0.76782   0.00000  Uiso   1.00
H1797  H     0.35274   0.63420   0.73300   0.00000  Uiso   1.00
H1798  H     0.36221   0.58208   0.70114   0.00000  Uiso   1.00
H1799  H     0.42813   0.62360   0.71722   0.00000  Uiso   1.00
H1800  H     0.43001   0.57103   0.74738   0.00000  Uiso   1.00
H1801  H     0.41646   0.60799   0.83165   0.00000  Uiso   1.00
H1802  H     0.40156   0.65544   0.80364   0.00000  Uiso   1.00
H1803  H     0.42093   0.37429   0.98847   0.00000  Uiso   1.00
H1804  H     0.63636   0.55174   0.94876   0.00000  Uiso   1.00
H1805  H     0.44221   0.42808   0.66910   0.00000  Uiso   1.00
H1806  H     0.46984   0.38916   0.96300   0.00000  Uiso   1.00
H1807  H     0.50559   0.38936   0.71416   0.00000  Uiso   1.00
H1808  H     0.48100   0.33759   0.70270   0.00000  Uiso   1.00
H1809  H     0.41783   0.36795   0.74908   0.00000  Uiso   1.00
H1810  H     0.44438   0.41534   0.76418   0.00000  Uiso   1.00
H1811  H     0.56303   0.56924   0.99609   0.00000  Uiso   1.00
H1812  H     0.58771   0.62189   0.67319   0.00000  Uiso   1.00
H1813  H     0.54032   0.61010   0.70412   0.00000  Uiso   1.00
H1814  H     0.52447   0.66053   0.96590   0.00000  Uiso   1.00
H1815  H     0.58716   0.47932   0.73541   0.00000  Uiso   1.00
H1816  H     0.49938   0.60921   0.95553   0.00000  Uiso   1.00
H1817  H     0.55607   0.58313   0.90074   0.00000  Uiso   1.00
H1818  H     0.58513   0.62919   0.91187   0.00000  Uiso   1.00
H1819  H     0.37493   0.55944   0.94115   0.00000  Uiso   1.00
H1820  H     0.63820   0.42477   0.90577   0.00000  Uiso   1.00
H1821  H     0.65062   0.36894   0.92643   0.00000  Uiso   1.00
H1822  H     0.33848   0.38888   0.86956   0.00000  Uiso   1.00
H1823  H     0.61185   0.33828   0.85203   0.00000  Uiso   1.00
H1824  H     0.60214   0.39180   0.82597   0.00000  Uiso   1.00
N1825  N     0.50000   0.61907   0.83333   0.00000  Uiso   1.00
N1826  N     0.50000   0.38093   0.83333   0.00000  Uiso   1.00
O1827  O     0.43892   0.53821   0.83333   0.00000  Uiso   1.00
O1828  O     0.59698   0.50262   0.93847   0.00000  Uiso   1.00
O1829  O     0.63001   0.43133   0.72493   0.00000  Uiso   1.00
O1830  O     0.40871   0.50291   0.94088   0.00000  Uiso   1.00
O1831  O     0.56108   0.46179   0.83334   0.00000  Uiso   1.00
O1832  O     0.56108   0.53821   0.83334   0.00000  Uiso   1.00
O1833  O     0.43892   0.46179   0.83333   0.00000  Uiso   1.00
O1834  O     0.50000   0.53821   0.76178   0.00000  Uiso   1.00
O1835  O     0.50000   0.46179   0.90489   0.00000  Uiso   1.00
O1836  O     0.50000   0.53821   0.90489   0.00000  Uiso   1.00
O1837  O     0.50000   0.46179   0.76178   0.00000  Uiso   1.00
O1838  O     0.35592   0.48664   0.69801   0.00000  Uiso   1.00
Zn1839 Zn    0.50000   0.55104   0.83333   0.00000  Uiso   1.00
Zn1840 Zn    0.50000   0.44896   0.83333   0.00000  Uiso   1.00
C1841  C     0.75370   0.50063   0.83256   0.00000  Uiso   1.00
C1842  C     0.68991   0.51503   0.87614   0.00000  Uiso   1.00
C1843  C     0.95731   0.49823   0.83363   0.00000  Uiso   1.00
C1844  C     0.70930   0.50183   0.83182   0.00000  Uiso   1.00
C1845  C     0.86214   0.35655   0.86338   0.00000  Uiso   1.00
C1846  C     0.80244   0.64414   0.80702   0.00000  Uiso   1.00
C1847  C     0.80627   0.35763   0.80165   0.00000  Uiso   1.00
C1848  C     0.86086   0.64217   0.86509   0.00000  Uiso   1.00
C1849  C     0.70850   0.48368   0.73885   0.00000  Uiso   1.00
C1850  C     0.95884   0.52474   0.92468   0.00000  Uiso   1.00
C1851  C     0.95109   0.46485   0.74657   0.00000  Uiso   1.00
C1852  C     0.91294   0.49938   0.83343   0.00000  Uiso   1.00
C1853  C     0.71495   0.52809   0.92240   0.00000  Uiso   1.00
C1854  C     0.89859   0.37929   0.89118   0.00000  Uiso   1.00
C1855  C     0.93902   0.37361   0.86201   0.00000  Uiso   1.00
C1856  C     0.97723   0.39016   0.89293   0.00000  Uiso   1.00
C1857  C     0.75800   0.62750   0.79923   0.00000  Uiso   1.00
C1858  C     0.74869   0.60462   0.74801   0.00000  Uiso   1.00
C1859  C     0.70140   0.60076   0.73694   0.00000  Uiso   1.00
C1860  C     0.78322   0.38014   0.75692   0.00000  Uiso   1.00
C1861  C     0.80802   0.37345   0.70930   0.00000  Uiso   1.00
C1862  C     0.78368   0.39249   0.99633   0.00000  Uiso   1.00
C1863  C     0.83317   0.49984   0.73982   0.00000  Uiso   1.00
C1864  C     0.88557   0.61838   0.90789   0.00000  Uiso   1.00
C1865  C     0.86380   0.62490   0.95795   0.00000  Uiso   1.00
C1866  C     0.89047   0.60525   0.66881   0.00000  Uiso   1.00
C1867  C     0.83402   0.50015   0.92688   0.00000  Uiso   1.00
C1868  C     0.83373   0.49977   0.68859   0.00000  Uiso   1.00
C1869  C     0.83410   0.50024   0.97818   0.00000  Uiso   1.00
C1870  C     0.68671   0.48870   0.78737   0.00000  Uiso   1.00
C1871  C     0.97984   0.51368   0.87700   0.00000  Uiso   1.00
C1872  C     0.97665   0.48433   0.78943   0.00000  Uiso   1.00
H1873  H     0.74237   0.47982   0.73886   0.00000  Uiso   1.00
H1874  H     0.89146   0.41428   0.89837   0.00000  Uiso   1.00
H1875  H     0.90447   0.36667   0.92985   0.00000  Uiso   1.00
H1876  H     0.68711   0.58308   0.76782   0.00000  Uiso   1.00
H1877  H     0.68607   0.63420   0.73300   0.00000  Uiso   1.00
H1878  H     0.69555   0.58208   0.70114   0.00000  Uiso   1.00
H1879  H     0.76147   0.62360   0.71722   0.00000  Uiso   1.00
H1880  H     0.76334   0.57103   0.74738   0.00000  Uiso   1.00
H1881  H     0.74980   0.60799   0.83165   0.00000  Uiso   1.00
H1882  H     0.73489   0.65544   0.80364   0.00000  Uiso   1.00
H1883  H     0.75426   0.37429   0.98847   0.00000  Uiso   1.00
H1884  H     0.96969   0.55174   0.94876   0.00000  Uiso   1.00
H1885  H     0.77554   0.42808   0.66910   0.00000  Uiso   1.00
H1886  H     0.80318   0.38916   0.96300   0.00000  Uiso   1.00
H1887  H     0.83892   0.38936   0.71416   0.00000  Uiso   1.00
H1888  H     0.81433   0.33759   0.70270   0.00000  Uiso   1.00
H1889  H     0.75116   0.36795   0.74908   0.00000  Uiso   1.00
H1890  H     0.77771   0.41534   0.76418   0.00000  Uiso   1.00
H1891  H     0.89636   0.56924   0.99609   0.00000  Uiso   1.00
H1892  H     0.92105   0.62189   0.67319   0.00000  Uiso   1.00
H1893  H     0.87365   0.61010   0.70412   0.00000  Uiso   1.00
H1894  H     0.85781   0.66053   0.96590   0.00000  Uiso   1.00
H1895  H     0.92050   0.47932   0.73541   0.00000  Uiso   1.00
H1896  H     0.83271   0.60921   0.95553   0.00000  Uiso   1.00
H1897  H     0.88940   0.58313   0.90074   0.00000  Uiso   1.00
H1898  H     0.91847   0.62919   0.91187   0.00000  Uiso   1.00
H1899  H     0.70826   0.55944   0.94115   0.00000  Uiso   1.00
H1900  H     0.97153   0.42477   0.90577   0.00000  Uiso   1.00
H1901  H     0.98395   0.36894   0.92643   0.00000  Uiso   1.00
H1902  H     0.67181   0.38888   0.86956   0.00000  Uiso   1.00
H1903  H     0.94518   0.33828   0.85203   0.00000  Uiso   1.00
H1904  H     0.93548   0.39180   0.82597   0.00000  Uiso   1.00
N1905  N     0.83333   0.61907   0.83333   0.00000  Uiso   1.00
N1906  N     0.83333   0.38093   0.83333   0.00000  Uiso   1.00
O1907  O     0.77226   0.53821   0.83333   0.00000  Uiso   1.00
O1908  O     0.93032   0.50262   0.93847   0.00000  Uiso   1.00
O1909  O     0.96334   0.43133   0.72493   0.00000  Uiso   1.00
O1910  O     0.74204   0.50291   0.94088   0.00000  Uiso   1.00
O1911  O     0.89441   0.46179   0.83334   0.00000  Uiso   1.00
O1912  O     0.89441   0.53821   0.83334   0.00000  Uiso   1.00
O1913  O     0.77226   0.46179   0.83333   0.00000  Uiso   1.00
O1914  O     0.83334   0.53821   0.76178   0.00000  Uiso   1.00
O1915  O     0.83333   0.46179   0.90489   0.00000  Uiso   1.00
O1916  O     0.83333   0.53821   0.90489   0.00000  Uiso   1.00
O1917  O     0.83334   0.46179   0.76178   0.00000  Uiso   1.00
O1918  O     0.68925   0.48664   0.69801   0.00000  Uiso   1.00
Zn1919 Zn    0.83333   0.55104   0.83333   0.00000  Uiso   1.00
Zn1920 Zn    0.83333   0.44896   0.83333   0.00000  Uiso   1.00
C1921  C     0.08703   0.83396   0.83256   0.00000  Uiso   1.00
C1922  C     0.02324   0.84836   0.87614   0.00000  Uiso   1.00
C1923  C     0.29065   0.83156   0.83363   0.00000  Uiso   1.00
C1924  C     0.04264   0.83516   0.83182   0.00000  Uiso   1.00
C1925  C     0.19547   0.68988   0.86338   0.00000  Uiso   1.00
C1926  C     0.13577   0.97748   0.80702   0.00000  Uiso   1.00
C1927  C     0.13961   0.69097   0.80165   0.00000  Uiso   1.00
C1928  C     0.19419   0.97550   0.86509   0.00000  Uiso   1.00
C1929  C     0.04183   0.81701   0.73885   0.00000  Uiso   1.00
C1930  C     0.29218   0.85808   0.92468   0.00000  Uiso   1.00
C1931  C     0.28443   0.79819   0.74657   0.00000  Uiso   1.00
C1932  C     0.24628   0.83271   0.83343   0.00000  Uiso   1.00
C1933  C     0.04829   0.86142   0.92240   0.00000  Uiso   1.00
C1934  C     0.23193   0.71262   0.89118   0.00000  Uiso   1.00
C1935  C     0.27235   0.70695   0.86201   0.00000  Uiso   1.00
C1936  C     0.31057   0.72349   0.89293   0.00000  Uiso   1.00
C1937  C     0.09134   0.96084   0.79923   0.00000  Uiso   1.00
C1938  C     0.08203   0.93795   0.74801   0.00000  Uiso   1.00
C1939  C     0.03473   0.93409   0.73694   0.00000  Uiso   1.00
C1940  C     0.11655   0.71348   0.75692   0.00000  Uiso   1.00
C1941  C     0.14135   0.70678   0.70930   0.00000  Uiso   1.00
C1942  C     0.11701   0.72582   0.99633   0.00000  Uiso   1.00
C1943  C     0.16651   0.83317   0.73982   0.00000  Uiso   1.00
C1944  C     0.21891   0.95171   0.90789   0.00000  Uiso   1.00
C1945  C     0.19713   0.95823   0.95795   0.00000  Uiso   1.00
C1946  C     0.22380   0.93858   0.66881   0.00000  Uiso   1.00
C1947  C     0.16735   0.83349   0.92688   0.00000  Uiso   1.00
C1948  C     0.16706   0.83310   0.68859   0.00000  Uiso   1.00
C1949  C     0.16743   0.83357   0.97818   0.00000  Uiso   1.00
C1950  C     0.02004   0.82204   0.78737   0.00000  Uiso   1.00
C1951  C     0.31317   0.84701   0.87700   0.00000  Uiso   1.00
C1952  C     0.30998   0.81766   0.78943   0.00000  Uiso   1.00
H1953  H     0.07570   0.81315   0.73886   0.00000  Uiso   1.00
H1954  H     0.22479   0.74761   0.89837   0.00000  Uiso   1.00
H1955  H     0.23780   0.70001   0.92985   0.00000  Uiso   1.00
H1956  H     0.02044   0.91642   0.76782   0.00000  Uiso   1.00
H1957  H     0.01940   0.96753   0.73300   0.00000  Uiso   1.00
H1958  H     0.02888   0.91542   0.70114   0.00000  Uiso   1.00
H1959  H     0.09480   0.95694   0.71722   0.00000  Uiso   1.00
H1960  H     0.09668   0.90436   0.74738   0.00000  Uiso   1.00
H1961  H     0.08313   0.94132   0.83165   0.00000  Uiso   1.00
H1962  H     0.06822   0.98877   0.80364   0.00000  Uiso   1.00
H1963  H     0.08760   0.70762   0.98847   0.00000  Uiso   1.00
H1964  H     0.30303   0.88508   0.94876   0.00000  Uiso   1.00
H1965  H     0.10887   0.76142   0.66910   0.00000  Uiso   1.00
H1966  H     0.13651   0.72249   0.96300   0.00000  Uiso   1.00
H1967  H     0.17226   0.72269   0.71416   0.00000  Uiso   1.00
H1968  H     0.14766   0.67093   0.70270   0.00000  Uiso   1.00
H1969  H     0.08450   0.70129   0.74908   0.00000  Uiso   1.00
H1970  H     0.11104   0.74867   0.76418   0.00000  Uiso   1.00
H1971  H     0.22970   0.90258   0.99609   0.00000  Uiso   1.00
H1972  H     0.25438   0.95523   0.67319   0.00000  Uiso   1.00
H1973  H     0.20699   0.94343   0.70412   0.00000  Uiso   1.00
H1974  H     0.19114   0.99387   0.96590   0.00000  Uiso   1.00
H1975  H     0.25383   0.81266   0.73541   0.00000  Uiso   1.00
H1976  H     0.16605   0.94255   0.95553   0.00000  Uiso   1.00
H1977  H     0.22273   0.91646   0.90074   0.00000  Uiso   1.00
H1978  H     0.25180   0.96253   0.91187   0.00000  Uiso   1.00
H1979  H     0.04160   0.89278   0.94115   0.00000  Uiso   1.00
H1980  H     0.30487   0.75810   0.90577   0.00000  Uiso   1.00
H1981  H     0.31729   0.70228   0.92643   0.00000  Uiso   1.00
H1982  H     0.00515   0.72221   0.86956   0.00000  Uiso   1.00
H1983  H     0.27852   0.67161   0.85203   0.00000  Uiso   1.00
H1984  H     0.26881   0.72513   0.82597   0.00000  Uiso   1.00
N1985  N     0.16667   0.95240   0.83333   0.00000  Uiso   1.00
N1986  N     0.16667   0.71427   0.83333   0.00000  Uiso   1.00
O1987  O     0.10559   0.87154   0.83333   0.00000  Uiso   1.00
O1988  O     0.26365   0.83595   0.93847   0.00000  Uiso   1.00
O1989  O     0.29668   0.76466   0.72493   0.00000  Uiso   1.00
O1990  O     0.07538   0.83624   0.94088   0.00000  Uiso   1.00
O1991  O     0.22774   0.79513   0.83334   0.00000  Uiso   1.00
O1992  O     0.22774   0.87154   0.83334   0.00000  Uiso   1.00
O1993  O     0.10559   0.79513   0.83333   0.00000  Uiso   1.00
O1994  O     0.16667   0.87155   0.76178   0.00000  Uiso   1.00
O1995  O     0.16666   0.79512   0.90489   0.00000  Uiso   1.00
O1996  O     0.16666   0.87155   0.90489   0.00000  Uiso   1.00
O1997  O     0.16667   0.79512   0.76178   0.00000  Uiso   1.00
O1998  O     0.02259   0.81998   0.69801   0.00000  Uiso   1.00
Zn1999 Zn    0.16667   0.88437   0.83333   0.00000  Uiso   1.00
Zn2000 Zn    0.16667   0.78229   0.83333   0.00000  Uiso   1.00
C2001  C     0.42037   0.83396   0.83256   0.00000  Uiso   1.00
C2002  C     0.35657   0.84836   0.87614   0.00000  Uiso   1.00
C2003  C     0.62398   0.83156   0.83363   0.00000  Uiso   1.00
C2004  C     0.37597   0.83516   0.83182   0.00000  Uiso   1.00
C2005  C     0.52880   0.68988   0.86338   0.00000  Uiso   1.00
C2006  C     0.46911   0.97748   0.80702   0.00000  Uiso   1.00
C2007  C     0.47294   0.69097   0.80165   0.00000  Uiso   1.00
C2008  C     0.52753   0.97550   0.86509   0.00000  Uiso   1.00
C2009  C     0.37516   0.81701   0.73885   0.00000  Uiso   1.00
C2010  C     0.62551   0.85808   0.92468   0.00000  Uiso   1.00
C2011  C     0.61776   0.79819   0.74657   0.00000  Uiso   1.00
C2012  C     0.57961   0.83271   0.83343   0.00000  Uiso   1.00
C2013  C     0.38162   0.86142   0.92240   0.00000  Uiso   1.00
C2014  C     0.56526   0.71262   0.89118   0.00000  Uiso   1.00
C2015  C     0.60568   0.70695   0.86201   0.00000  Uiso   1.00
C2016  C     0.64390   0.72349   0.89293   0.00000  Uiso   1.00
C2017  C     0.42467   0.96084   0.79923   0.00000  Uiso   1.00
C2018  C     0.41536   0.93795   0.74801   0.00000  Uiso   1.00
C2019  C     0.36806   0.93409   0.73694   0.00000  Uiso   1.00
C2020  C     0.44989   0.71348   0.75692   0.00000  Uiso   1.00
C2021  C     0.47469   0.70678   0.70930   0.00000  Uiso   1.00
C2022  C     0.45034   0.72582   0.99633   0.00000  Uiso   1.00
C2023  C     0.49984   0.83317   0.73982   0.00000  Uiso   1.00
C2024  C     0.55224   0.95171   0.90789   0.00000  Uiso   1.00
C2025  C     0.53046   0.95823   0.95795   0.00000  Uiso   1.00
C2026  C     0.55713   0.93858   0.66881   0.00000  Uiso   1.00
C2027  C     0.50069   0.83349   0.92688   0.00000  Uiso   1.00
C2028  C     0.50039   0.83310   0.68859   0.00000  Uiso   1.00
C2029  C     0.50077   0.83357   0.97818   0.00000  Uiso   1.00
C2030  C     0.35337   0.82204   0.78737   0.00000  Uiso   1.00
C2031  C     0.64650   0.84701   0.87700   0.00000  Uiso   1.00
C2032  C     0.64331   0.81766   0.78943   0.00000  Uiso   1.00
H2033  H     0.40904   0.81315   0.73886   0.00000  Uiso   1.00
H2034  H     0.55812   0.74761   0.89837   0.00000  Uiso   1.00
H2035  H     0.57114   0.70001   0.92985   0.00000  Uiso   1.00
H2036  H     0.35378   0.91642   0.76782   0.00000  Uiso   1.00
H2037  H     0.35274   0.96753   0.73300   0.00000  Uiso   1.00
H2038  H     0.36221   0.91542   0.70114   0.00000  Uiso   1.00
H2039  H     0.42813   0.95694   0.71722   0.00000  Uiso   1.00
H2040  H     0.43001   0.90436   0.74738   0.00000  Uiso   1.00
H2041  H     0.41646   0.94132   0.83165   0.00000  Uiso   1.00
H2042  H     0.40156   0.98877   0.80364   0.00000  Uiso   1.00
H2043  H     0.42093   0.70762   0.98847   0.00000  Uiso   1.00
H2044  H     0.63636   0.88508   0.94876   0.00000  Uiso   1.00
H2045  H     0.44221   0.76142   0.66910   0.00000  Uiso   1.00
H2046  H     0.46984   0.72249   0.96300   0.00000  Uiso   1.00
H2047  H     0.50559   0.72269   0.71416   0.00000  Uiso   1.00
H2048  H     0.48100   0.67093   0.70270   0.00000  Uiso   1.00
H2049  H     0.41783   0.70129   0.74908   0.00000  Uiso   1.00
H2050  H     0.44438   0.74867   0.76418   0.00000  Uiso   1.00
H2051  H     0.56303   0.90258   0.99609   0.00000  Uiso   1.00
H2052  H     0.58771   0.95523   0.67319   0.00000  Uiso   1.00
H2053  H     0.54032   0.94343   0.70412   0.00000  Uiso   1.00
H2054  H     0.52447   0.99387   0.96590   0.00000  Uiso   1.00
H2055  H     0.58716   0.81266   0.73541   0.00000  Uiso   1.00
H2056  H     0.49938   0.94255   0.95553   0.00000  Uiso   1.00
H2057  H     0.55607   0.91646   0.90074   0.00000  Uiso   1.00
H2058  H     0.58513   0.96253   0.91187   0.00000  Uiso   1.00
H2059  H     0.37493   0.89278   0.94115   0.00000  Uiso   1.00
H2060  H     0.63820   0.75810   0.90577   0.00000  Uiso   1.00
H2061  H     0.65062   0.70228   0.92643   0.00000  Uiso   1.00
H2062  H     0.33848   0.72221   0.86956   0.00000  Uiso   1.00
H2063  H     0.61185   0.67161   0.85203   0.00000  Uiso   1.00
H2064  H     0.60214   0.72513   0.82597   0.00000  Uiso   1.00
N2065  N     0.50000   0.95240   0.83333   0.00000  Uiso   1.00
N2066  N     0.50000   0.71427   0.83333   0.00000  Uiso   1.00
O2067  O     0.43892   0.87154   0.83333   0.00000  Uiso   1.00
O2068  O     0.59698   0.83595   0.93847   0.00000  Uiso   1.00
O2069  O     0.63001   0.76466   0.72493   0.00000  Uiso   1.00
O2070  O     0.40871   0.83624   0.94088   0.00000  Uiso   1.00
O2071  O     0.56108   0.79513   0.83334   0.00000  Uiso   1.00
O2072  O     0.56108   0.87154   0.83334   0.00000  Uiso   1.00
O2073  O     0.43892   0.79513   0.83333   0.00000  Uiso   1.00
O2074  O     0.50000   0.87155   0.76178   0.00000  Uiso   1.00
O2075  O     0.50000   0.79512   0.90489   0.00000  Uiso   1.00
O2076  O     0.50000   0.87155   0.90489   0.00000  Uiso   1.00
O2077  O     0.50000   0.79512   0.76178   0.00000  Uiso   1.00
O2078  O     0.35592   0.81998   0.69801   0.00000  Uiso   1.00
Zn2079 Zn    0.50000   0.88437   0.83333   0.00000  Uiso   1.00
Zn2080 Zn    0.50000   0.78229   0.83333   0.00000  Uiso   1.00
C2081  C     0.75370   0.83396   0.83256   0.00000  Uiso   1.00
C2082  C     0.68991   0.84836   0.87614   0.00000  Uiso   1.00
C2083  C     0.95731   0.83156   0.83363   0.00000  Uiso   1.00
C2084  C     0.70930   0.83516   0.83182   0.00000  Uiso   1.00
C2085  C     0.86214   0.68988   0.86338   0.00000  Uiso   1.00
C2086  C     0.80244   0.97748   0.80702   0.00000  Uiso   1.00
C2087  C     0.80627   0.69097   0.80165   0.00000  Uiso   1.00
C2088  C     0.86086   0.97550   0.86509   0.00000  Uiso   1.00
C2089  C     0.70850   0.81701   0.73885   0.00000  Uiso   1.00
C2090  C     0.95884   0.85808   0.92468   0.00000  Uiso   1.00
C2091  C     0.95109   0.79819   0.74657   0.00000  Uiso   1.00
C2092  C     0.91294   0.83271   0.83343   0.00000  Uiso   1.00
C2093  C     0.71495   0.86142   0.92240   0.00000  Uiso   1.00
C2094  C     0.89859   0.71262   0.89118   0.00000  Uiso   1.00
C2095  C     0.93902   0.70695   0.86201   0.00000  Uiso   1.00
C2096  C     0.97723   0.72349   0.89293   0.00000  Uiso   1.00
C2097  C     0.75800   0.96084   0.79923   0.00000  Uiso   1.00
C2098  C     0.74869   0.93795   0.74801   0.00000  Uiso   1.00
C2099  C     0.70140   0.93409   0.73694   0.00000  Uiso   1.00
C2100  C     0.78322   0.71348   0.75692   0.00000  Uiso   1.00
C2101  C     0.80802   0.70678   0.70930   0.00000  Uiso   1.00
C2102  C     0.78368   0.72582   0.99633   0.00000  Uiso   1.00
C2103  C     0.83317   0.83317   0.73982   0.00000  Uiso   1.00
C2104  C     0.88557   0.95171   0.90789   0.00000  Uiso   1.00
C2105  C     0.86380   0.95823   0.95795   0.00000  Uiso   1.00
C2106  C     0.89047   0.93858   0.66881   0.00000  Uiso   1.00
C2107  C     0.83402   0.83349   0.92688   0.00000  Uiso   1.00
C2108  C     0.83373   0.83310   0.68859   0.00000  Uiso   1.00
C2109  C     0.83410   0.83357   0.97818   0.00000  Uiso   1.00
C2110  C     0.68671   0.82204   0.78737   0.00000  Uiso   1.00
C2111  C     0.97984   0.84701   0.87700   0.00000  Uiso   1.00
C2112  C     0.97665   0.81766   0.78943   0.00000  Uiso   1.00
H2113  H     0.74237   0.81315   0.73886   0.00000  Uiso   1.00
H2114  H     0.89146   0.74761   0.89837   0.00000  Uiso   1.00
H2115  H     0.90447   0.70001   0.92985   0.00000  Uiso   1.00
H2116  H     0.68711   0.91642   0.76782   0.00000  Uiso   1.00
H2117  H     0.68607   0.96753   0.73300   0.00000  Uiso   1.00
H2118  H     0.69555   0.91542   0.70114   0.00000  Uiso   1.00
H2119  H     0.76147   0.95694   0.71722   0.00000  Uiso   1.00
H2120  H     0.76334   0.90436   0.74738   0.00000  Uiso   1.00
H2121  H     0.74980   0.94132   0.83165   0.00000  Uiso   1.00
H2122  H     0.73489   0.98877   0.80364   0.00000  Uiso   1.00
H2123  H     0.75426   0.70762   0.98847   0.00000  Uiso   1.00
H2124  H     0.96969   0.88508   0.94876   0.00000  Uiso   1.00
H2125  H     0.77554   0.76142   0.66910   0.00000  Uiso   1.00
H2126  H     0.80318   0.72249   0.96300   0.00000  Uiso   1.00
H2127  H     0.83892   0.72269   0.71416   0.00000  Uiso   1.00
H2128  H     0.81433   0.67093   0.70270   0.00000  Uiso   1.00
H2129  H     0.75116   0.70129   0.74908   0.00000  Uiso   1.00
H2130  H     0.77771   0.74867   0.76418   0.00000  Uiso   1.00
H2131  H     0.89636   0.90258   0.99609   0.00000  Uiso   1.00
H2132  H     0.92105   0.95523   0.67319   0.00000  Uiso   1.00
H2133  H     0.87365   0.94343   0.70412   0.00000  Uiso   1.00
H2134  H     0.85781   0.99387   0.96590   0.00000  Uiso   1.00
H2135  H     0.92050   0.81266   0.73541   0.00000  Uiso   1.00
H2136  H     0.83271   0.94255   0.95553   0.00000  Uiso   1.00
H2137  H     0.88940   0.91646   0.90074   0.00000  Uiso   1.00
H2138  H     0.91847   0.96253   0.91187   0.00000  Uiso   1.00
H2139  H     0.70826   0.89278   0.94115   0.00000  Uiso   1.00
H2140  H     0.97153   0.75810   0.90577   0.00000  Uiso   1.00
H2141  H     0.98395   0.70228   0.92643   0.00000  Uiso   1.00
H2142  H     0.67181   0.72221   0.86956   0.00000  Uiso   1.00
H2143  H     0.94518   0.67161   0.85203   0.00000  Uiso   1.00
H2144  H     0.93548   0.72513   0.82597   0.00000  Uiso   1.00
N2145  N     0.83333   0.95240   0.83333   0.00000  Uiso   1.00
N2146  N     0.83333   0.71427   0.83333   0.00000  Uiso   1.00
O2147  O     0.77226   0.87154   0.83333   0.00000  Uiso   1.00
O2148  O     0.93032   0.83595   0.93847   0.00000  Uiso   1.00
O2149  O     0.96334   0.76466   0.72493   0.00000  Uiso   1.00
O2150  O     0.74204   0.83624   0.94088   0.00000  Uiso   1.00
O2151  O     0.89441   0.79513   0.83334   0.00000  Uiso   1.00
O2152  O     0.89441   0.87154   0.83334   0.00000  Uiso   1.00
O2153  O     0.77226   0.79513   0.83333   0.00000  Uiso   1.00
O2154  O     0.83334   0.87155   0.76178   0.00000  Uiso   1.00
O2155  O     0.83333   0.79512   0.90489   0.00000  Uiso   1.00
O2156  O     0.83333   0.87155   0.90489   0.00000  Uiso   1.00
O2157  O     0.83334   0.79512   0.76178   0.00000  Uiso   1.00
O2158  O     0.68925   0.81998   0.69801   0.00000  Uiso   1.00
Zn2159 Zn    0.83333   0.88437   0.83333   0.00000  Uiso   1.00
Zn2160 Zn    0.83333   0.78229   0.83333   0.00000  Uiso   1.00
loop_
_geom_bond_atom_site_label_1
_geom_bond_atom_site_label_2
_geom_bond_distance
_geom_bond_site_symmetry_2
_ccdc_geom_bond_type
C1     O67     1.297   .     A
C1     C4      1.413   .     S
C1     O73     1.296   .     A
C2     C13     1.486   .     S
C2     C4      1.406   .     A
C2     C191    1.386   1_455 S
C3     C12     1.412   .     S
C3     C31     1.407   .     A
C3     C32     1.408   .     A
C4     C30     1.409   .     A
C5     C14     1.521   .     S
C5     N66     1.384   .     A
C5     C488    1.445   1_545 S
C6     N65     1.386   .     A
C6     C17     1.521   .     S
C6     C247    1.433   .     S
C7     N66     1.376   .     A
C7     C20     1.520   .     S
C7     C486    1.433   1_545 S
C8     N65     1.384   .     A
C8     C24     1.523   .     S
C8     C245    1.445   .     S
C9     H33     1.081   .     S
C9     C30     1.500   .     S
C9     O78     1.220   .     D
C10    C31     1.493   .     S
C10    H44     1.084   .     S
C10    O68     1.220   .     D
C11    C32     1.490   .     S
C11    H55     1.083   .     S
C11    O69     1.221   .     D
C12    O72     1.295   .     A
C12    O71     1.297   .     A
C13    O70     1.219   .     D
C13    H59     1.084   .     S
C14    H35     1.105   .     S
C14    H34     1.090   .     S
C14    C15     1.541   .     S
C15    C16     1.526   .     S
C15    H64     1.109   .     S
C15    H63     1.110   .     S
C16    H60     1.108   .     S
C16    H61     1.111   .     S
C16    H142    1.111   .     S
C17    H42     1.111   .     S
C17    C18     1.538   .     S
C17    H41     1.098   .     S
C18    C19     1.527   .     S
C18    H40     1.103   .     S
C18    H39     1.108   .     S
C19    H36     1.110   .     S
C19    H37     1.111   .     S
C19    H38     1.110   .     S
C20    H50     1.088   .     S
C20    H49     1.105   .     S
C20    C21     1.535   .     S
C21    H48     1.109   .     S
C21    H47     1.110   .     S
C21    C1462   1.527   1_554 S
C22    H43     1.111   .     S
C22    H46     1.110   .     S
C22    C741    1.527   .     S
C22    H765    1.110   .     S
C23    C28     1.362   .     S
C23    O77     1.296   .     A
C23    O74     1.291   .     A
C24    C25     1.540   .     S
C24    H57     1.083   .     S
C24    H58     1.107   .     S
C25    H56     1.110   .     S
C25    H54     1.107   .     S
C25    C746    1.527   .     S
C26    H52     1.111   .     S
C26    H53     1.111   .     S
C26    C1465   1.527   1_554 S
C26    H1491   1.109   1_554 S
C27    C29     1.363   .     S
C27    O75     1.291   .     A
C27    O76     1.295   .     A
C28    C1469   1.163   1_554 S
C29    C748    1.163   .     S
C30    C192    1.397   1_455 S
C31    C82     1.386   .     S
C32    C110    1.397   .     S
H45    C1462   1.110   1_554 S
H51    C746    1.109   .     S
H62    C176    1.111   1_455 S
N65    Zn79    2.055   .     S
N66    Zn80    2.055   .     S
O67    Zn79    1.996   .     S
O71    Zn80    1.996   .     S
O72    Zn79    1.971   .     S
O73    Zn80    1.971   .     S
O74    Zn79    1.935   .     S
O75    Zn80    1.935   .     S
O76    Zn79    1.945   .     S
O77    Zn80    1.945   .     S
C81    O147    1.297   .     A
C81    C84     1.413   .     S
C81    O153    1.296   .     A
C82    C93     1.486   .     S
C82    C84     1.406   .     A
C83    C92     1.412   .     S
C83    C111    1.407   .     A
C83    C112    1.408   .     A
C84    C110    1.409   .     A
C85    C94     1.521   .     S
C85    N146    1.384   .     A
C85    C568    1.445   1_545 S
C86    N145    1.386   .     A
C86    C97     1.521   .     S
C86    C327    1.433   .     S
C87    N146    1.376   .     A
C87    C100    1.520   .     S
C87    C566    1.433   1_545 S
C88    N145    1.384   .     A
C88    C104    1.523   .     S
C88    C325    1.445   .     S
C89    H113    1.081   .     S
C89    C110    1.500   .     S
C89    O158    1.220   .     D
C90    C111    1.493   .     S
C90    H124    1.084   .     S
C90    O148    1.220   .     D
C91    C112    1.490   .     S
C91    H135    1.083   .     S
C91    O149    1.221   .     D
C92    O152    1.295   .     A
C92    O151    1.297   .     A
C93    O150    1.219   .     D
C93    H139    1.084   .     S
C94    H115    1.105   .     S
C94    H114    1.090   .     S
C94    C95     1.541   .     S
C95    C96     1.526   .     S
C95    H144    1.109   .     S
C95    H143    1.110   .     S
C96    H140    1.108   .     S
C96    H141    1.111   .     S
C96    H222    1.111   .     S
C97    H122    1.111   .     S
C97    C98     1.538   .     S
C97    H121    1.098   .     S
C98    C99     1.527   .     S
C98    H120    1.103   .     S
C98    H119    1.108   .     S
C99    H116    1.110   .     S
C99    H117    1.111   .     S
C99    H118    1.110   .     S
C100   H130    1.088   .     S
C100   H129    1.105   .     S
C100   C101    1.535   .     S
C101   H128    1.109   .     S
C101   H127    1.110   .     S
C101   C1542   1.527   1_554 S
C102   H123    1.111   .     S
C102   H126    1.110   .     S
C102   C821    1.527   .     S
C102   H845    1.110   .     S
C103   C108    1.362   .     S
C103   O157    1.296   .     A
C103   O154    1.291   .     A
C104   C105    1.540   .     S
C104   H137    1.083   .     S
C104   H138    1.107   .     S
C105   H136    1.110   .     S
C105   H134    1.107   .     S
C105   C826    1.527   .     S
C106   H132    1.111   .     S
C106   H133    1.111   .     S
C106   C1545   1.527   1_554 S
C106   H1571   1.109   1_554 S
C107   C109    1.363   .     S
C107   O155    1.291   .     A
C107   O156    1.295   .     A
C108   C1549   1.163   1_554 S
C109   C828    1.163   .     S
C111   C162    1.386   .     S
C112   C190    1.397   .     S
H125   C1542   1.110   1_554 S
H131   C826    1.109   .     S
N145   Zn159   2.055   .     S
N146   Zn160   2.055   .     S
O147   Zn159   1.996   .     S
O151   Zn160   1.996   .     S
O152   Zn159   1.971   .     S
O153   Zn160   1.971   .     S
O154   Zn159   1.935   .     S
O155   Zn160   1.935   .     S
O156   Zn159   1.945   .     S
O157   Zn160   1.945   .     S
C161   O227    1.297   .     A
C161   C164    1.413   .     S
C161   O233    1.296   .     A
C162   C173    1.486   .     S
C162   C164    1.406   .     A
C163   C172    1.412   .     S
C163   C191    1.407   .     A
C163   C192    1.408   .     A
C164   C190    1.409   .     A
C165   C174    1.521   .     S
C165   N226    1.384   .     A
C165   C648    1.445   1_545 S
C166   N225    1.386   .     A
C166   C177    1.521   .     S
C166   C407    1.433   .     S
C167   N226    1.376   .     A
C167   C180    1.520   .     S
C167   C646    1.433   1_545 S
C168   N225    1.384   .     A
C168   C184    1.523   .     S
C168   C405    1.445   .     S
C169   H193    1.081   .     S
C169   C190    1.500   .     S
C169   O238    1.220   .     D
C170   C191    1.493   .     S
C170   H204    1.084   .     S
C170   O228    1.220   .     D
C171   C192    1.490   .     S
C171   H215    1.083   .     S
C171   O229    1.221   .     D
C172   O232    1.295   .     A
C172   O231    1.297   .     A
C173   O230    1.219   .     D
C173   H219    1.084   .     S
C174   H195    1.105   .     S
C174   H194    1.090   .     S
C174   C175    1.541   .     S
C175   C176    1.526   .     S
C175   H224    1.109   .     S
C175   H223    1.110   .     S
C176   H220    1.108   .     S
C176   H221    1.111   .     S
C176   H62     1.111   1_655 S
C177   H202    1.111   .     S
C177   C178    1.538   .     S
C177   H201    1.098   .     S
C178   C179    1.527   .     S
C178   H200    1.103   .     S
C178   H199    1.108   .     S
C179   H196    1.110   .     S
C179   H197    1.111   .     S
C179   H198    1.110   .     S
C180   H210    1.088   .     S
C180   H209    1.105   .     S
C180   C181    1.535   .     S
C181   H208    1.109   .     S
C181   H207    1.110   .     S
C181   C1622   1.527   1_554 S
C182   H203    1.111   .     S
C182   H206    1.110   .     S
C182   C901    1.527   .     S
C182   H925    1.110   .     S
C183   C188    1.362   .     S
C183   O237    1.296   .     A
C183   O234    1.291   .     A
C184   C185    1.540   .     S
C184   H217    1.083   .     S
C184   H218    1.107   .     S
C185   H216    1.110   .     S
C185   H214    1.107   .     S
C185   C906    1.527   .     S
C186   H212    1.111   .     S
C186   H213    1.111   .     S
C186   C1625   1.527   1_554 S
C186   H1651   1.109   1_554 S
C187   C189    1.363   .     S
C187   O235    1.291   .     A
C187   O236    1.295   .     A
C188   C1629   1.163   1_554 S
C189   C908    1.163   .     S
C191   C2      1.386   1_655 S
C192   C30     1.397   1_655 S
H205   C1622   1.110   1_554 S
H211   C906    1.109   .     S
N225   Zn239   2.055   .     S
N226   Zn240   2.055   .     S
O227   Zn239   1.996   .     S
O231   Zn240   1.996   .     S
O232   Zn239   1.971   .     S
O233   Zn240   1.971   .     S
O234   Zn239   1.935   .     S
O235   Zn240   1.935   .     S
O236   Zn239   1.945   .     S
O237   Zn240   1.945   .     S
C241   O307    1.297   .     A
C241   C244    1.413   .     S
C241   O313    1.296   .     A
C242   C253    1.486   .     S
C242   C244    1.406   .     A
C242   C431    1.386   1_455 S
C243   C252    1.412   .     S
C243   C271    1.407   .     A
C243   C272    1.408   .     A
C244   C270    1.409   .     A
C245   C254    1.521   .     S
C245   N306    1.384   .     A
C246   N305    1.386   .     A
C246   C257    1.521   .     S
C246   C487    1.433   .     S
C247   N306    1.376   .     A
C247   C260    1.520   .     S
C248   N305    1.384   .     A
C248   C264    1.523   .     S
C248   C485    1.445   .     S
C249   H273    1.081   .     S
C249   C270    1.500   .     S
C249   O318    1.220   .     D
C250   C271    1.493   .     S
C250   H284    1.084   .     S
C250   O308    1.220   .     D
C251   C272    1.490   .     S
C251   H295    1.083   .     S
C251   O309    1.221   .     D
C252   O312    1.295   .     A
C252   O311    1.297   .     A
C253   O310    1.219   .     D
C253   H299    1.084   .     S
C254   H275    1.105   .     S
C254   H274    1.090   .     S
C254   C255    1.541   .     S
C255   C256    1.526   .     S
C255   H304    1.109   .     S
C255   H303    1.110   .     S
C256   H300    1.108   .     S
C256   H301    1.111   .     S
C256   H382    1.111   .     S
C257   H282    1.111   .     S
C257   C258    1.538   .     S
C257   H281    1.098   .     S
C258   C259    1.527   .     S
C258   H280    1.103   .     S
C258   H279    1.108   .     S
C259   H276    1.110   .     S
C259   H277    1.111   .     S
C259   H278    1.110   .     S
C260   H290    1.088   .     S
C260   H289    1.105   .     S
C260   C261    1.535   .     S
C261   H288    1.109   .     S
C261   H287    1.110   .     S
C261   C1702   1.527   1_554 S
C262   H283    1.111   .     S
C262   H286    1.110   .     S
C262   C981    1.527   .     S
C262   H1005   1.110   .     S
C263   C268    1.362   .     S
C263   O317    1.296   .     A
C263   O314    1.291   .     A
C264   C265    1.540   .     S
C264   H297    1.083   .     S
C264   H298    1.107   .     S
C265   H296    1.110   .     S
C265   H294    1.107   .     S
C265   C986    1.527   .     S
C266   H292    1.111   .     S
C266   H293    1.111   .     S
C266   C1705   1.527   1_554 S
C266   H1731   1.109   1_554 S
C267   C269    1.363   .     S
C267   O315    1.291   .     A
C267   O316    1.295   .     A
C268   C1709   1.163   1_554 S
C269   C988    1.163   .     S
C270   C432    1.397   1_455 S
C271   C322    1.386   .     S
C272   C350    1.397   .     S
H285   C1702   1.110   1_554 S
H291   C986    1.109   .     S
H302   C416    1.111   1_455 S
N305   Zn319   2.055   .     S
N306   Zn320   2.055   .     S
O307   Zn319   1.996   .     S
O311   Zn320   1.996   .     S
O312   Zn319   1.971   .     S
O313   Zn320   1.971   .     S
O314   Zn319   1.935   .     S
O315   Zn320   1.935   .     S
O316   Zn319   1.945   .     S
O317   Zn320   1.945   .     S
C321   O387    1.297   .     A
C321   C324    1.413   .     S
C321   O393    1.296   .     A
C322   C333    1.486   .     S
C322   C324    1.406   .     A
C323   C332    1.412   .     S
C323   C351    1.407   .     A
C323   C352    1.408   .     A
C324   C350    1.409   .     A
C325   C334    1.521   .     S
C325   N386    1.384   .     A
C326   N385    1.386   .     A
C326   C337    1.521   .     S
C326   C567    1.433   .     S
C327   N386    1.376   .     A
C327   C340    1.520   .     S
C328   N385    1.384   .     A
C328   C344    1.523   .     S
C328   C565    1.445   .     S
C329   H353    1.081   .     S
C329   C350    1.500   .     S
C329   O398    1.220   .     D
C330   C351    1.493   .     S
C330   H364    1.084   .     S
C330   O388    1.220   .     D
C331   C352    1.490   .     S
C331   H375    1.083   .     S
C331   O389    1.221   .     D
C332   O392    1.295   .     A
C332   O391    1.297   .     A
C333   O390    1.219   .     D
C333   H379    1.084   .     S
C334   H355    1.105   .     S
C334   H354    1.090   .     S
C334   C335    1.541   .     S
C335   C336    1.526   .     S
C335   H384    1.109   .     S
C335   H383    1.110   .     S
C336   H380    1.108   .     S
C336   H381    1.111   .     S
C336   H462    1.111   .     S
C337   H362    1.111   .     S
C337   C338    1.538   .     S
C337   H361    1.098   .     S
C338   C339    1.527   .     S
C338   H360    1.103   .     S
C338   H359    1.108   .     S
C339   H356    1.110   .     S
C339   H357    1.111   .     S
C339   H358    1.110   .     S
C340   H370    1.088   .     S
C340   H369    1.105   .     S
C340   C341    1.535   .     S
C341   H368    1.109   .     S
C341   H367    1.110   .     S
C341   C1782   1.527   1_554 S
C342   H363    1.111   .     S
C342   H366    1.110   .     S
C342   C1061   1.527   .     S
C342   H1085   1.110   .     S
C343   C348    1.362   .     S
C343   O397    1.296   .     A
C343   O394    1.291   .     A
C344   C345    1.540   .     S
C344   H377    1.083   .     S
C344   H378    1.107   .     S
C345   H376    1.110   .     S
C345   H374    1.107   .     S
C345   C1066   1.527   .     S
C346   H372    1.111   .     S
C346   H373    1.111   .     S
C346   C1785   1.527   1_554 S
C346   H1811   1.109   1_554 S
C347   C349    1.363   .     S
C347   O395    1.291   .     A
C347   O396    1.295   .     A
C348   C1789   1.163   1_554 S
C349   C1068   1.163   .     S
C351   C402    1.386   .     S
C352   C430    1.397   .     S
H365   C1782   1.110   1_554 S
H371   C1066   1.109   .     S
N385   Zn399   2.055   .     S
N386   Zn400   2.055   .     S
O387   Zn399   1.996   .     S
O391   Zn400   1.996   .     S
O392   Zn399   1.971   .     S
O393   Zn400   1.971   .     S
O394   Zn399   1.935   .     S
O395   Zn400   1.935   .     S
O396   Zn399   1.945   .     S
O397   Zn400   1.945   .     S
C401   O467    1.297   .     A
C401   C404    1.413   .     S
C401   O473    1.296   .     A
C402   C413    1.486   .     S
C402   C404    1.406   .     A
C403   C412    1.412   .     S
C403   C431    1.407   .     A
C403   C432    1.408   .     A
C404   C430    1.409   .     A
C405   C414    1.521   .     S
C405   N466    1.384   .     A
C406   N465    1.386   .     A
C406   C417    1.521   .     S
C406   C647    1.433   .     S
C407   N466    1.376   .     A
C407   C420    1.520   .     S
C408   N465    1.384   .     A
C408   C424    1.523   .     S
C408   C645    1.445   .     S
C409   H433    1.081   .     S
C409   C430    1.500   .     S
C409   O478    1.220   .     D
C410   C431    1.493   .     S
C410   H444    1.084   .     S
C410   O468    1.220   .     D
C411   C432    1.490   .     S
C411   H455    1.083   .     S
C411   O469    1.221   .     D
C412   O472    1.295   .     A
C412   O471    1.297   .     A
C413   O470    1.219   .     D
C413   H459    1.084   .     S
C414   H435    1.105   .     S
C414   H434    1.090   .     S
C414   C415    1.541   .     S
C415   C416    1.526   .     S
C415   H464    1.109   .     S
C415   H463    1.110   .     S
C416   H460    1.108   .     S
C416   H461    1.111   .     S
C416   H302    1.111   1_655 S
C417   H442    1.111   .     S
C417   C418    1.538   .     S
C417   H441    1.098   .     S
C418   C419    1.527   .     S
C418   H440    1.103   .     S
C418   H439    1.108   .     S
C419   H436    1.110   .     S
C419   H437    1.111   .     S
C419   H438    1.110   .     S
C420   H450    1.088   .     S
C420   H449    1.105   .     S
C420   C421    1.535   .     S
C421   H448    1.109   .     S
C421   H447    1.110   .     S
C421   C1862   1.527   1_554 S
C422   H443    1.111   .     S
C422   H446    1.110   .     S
C422   C1141   1.527   .     S
C422   H1165   1.110   .     S
C423   C428    1.362   .     S
C423   O477    1.296   .     A
C423   O474    1.291   .     A
C424   C425    1.540   .     S
C424   H457    1.083   .     S
C424   H458    1.107   .     S
C425   H456    1.110   .     S
C425   H454    1.107   .     S
C425   C1146   1.527   .     S
C426   H452    1.111   .     S
C426   H453    1.111   .     S
C426   C1865   1.527   1_554 S
C426   H1891   1.109   1_554 S
C427   C429    1.363   .     S
C427   O475    1.291   .     A
C427   O476    1.295   .     A
C428   C1869   1.163   1_554 S
C429   C1148   1.163   .     S
C431   C242    1.386   1_655 S
C432   C270    1.397   1_655 S
H445   C1862   1.110   1_554 S
H451   C1146   1.109   .     S
N465   Zn479   2.055   .     S
N466   Zn480   2.055   .     S
O467   Zn479   1.996   .     S
O471   Zn480   1.996   .     S
O472   Zn479   1.971   .     S
O473   Zn480   1.971   .     S
O474   Zn479   1.935   .     S
O475   Zn480   1.935   .     S
O476   Zn479   1.945   .     S
O477   Zn480   1.945   .     S
C481   O547    1.297   .     A
C481   C484    1.413   .     S
C481   O553    1.296   .     A
C482   C493    1.486   .     S
C482   C484    1.406   .     A
C482   C671    1.386   1_455 S
C483   C492    1.412   .     S
C483   C511    1.407   .     A
C483   C512    1.408   .     A
C484   C510    1.409   .     A
C485   C494    1.521   .     S
C485   N546    1.384   .     A
C486   N545    1.386   .     A
C486   C497    1.521   .     S
C486   C7      1.433   1_565 S
C487   N546    1.376   .     A
C487   C500    1.520   .     S
C488   N545    1.384   .     A
C488   C504    1.523   .     S
C488   C5      1.445   1_565 S
C489   H513    1.081   .     S
C489   C510    1.500   .     S
C489   O558    1.220   .     D
C490   C511    1.493   .     S
C490   H524    1.084   .     S
C490   O548    1.220   .     D
C491   C512    1.490   .     S
C491   H535    1.083   .     S
C491   O549    1.221   .     D
C492   O552    1.295   .     A
C492   O551    1.297   .     A
C493   O550    1.219   .     D
C493   H539    1.084   .     S
C494   H515    1.105   .     S
C494   H514    1.090   .     S
C494   C495    1.541   .     S
C495   C496    1.526   .     S
C495   H544    1.109   .     S
C495   H543    1.110   .     S
C496   H540    1.108   .     S
C496   H541    1.111   .     S
C496   H622    1.111   .     S
C497   H522    1.111   .     S
C497   C498    1.538   .     S
C497   H521    1.098   .     S
C498   C499    1.527   .     S
C498   H520    1.103   .     S
C498   H519    1.108   .     S
C499   H516    1.110   .     S
C499   H517    1.111   .     S
C499   H518    1.110   .     S
C500   H530    1.088   .     S
C500   H529    1.105   .     S
C500   C501    1.535   .     S
C501   H528    1.109   .     S
C501   H527    1.110   .     S
C501   C1942   1.527   1_554 S
C502   H523    1.111   .     S
C502   H526    1.110   .     S
C502   C1221   1.527   .     S
C502   H1245   1.110   .     S
C503   C508    1.362   .     S
C503   O557    1.296   .     A
C503   O554    1.291   .     A
C504   C505    1.540   .     S
C504   H537    1.083   .     S
C504   H538    1.107   .     S
C505   H536    1.110   .     S
C505   H534    1.107   .     S
C505   C1226   1.527   .     S
C506   H532    1.111   .     S
C506   H533    1.111   .     S
C506   C1945   1.527   1_554 S
C506   H1971   1.109   1_554 S
C507   C509    1.363   .     S
C507   O555    1.291   .     A
C507   O556    1.295   .     A
C508   C1949   1.163   1_554 S
C509   C1228   1.163   .     S
C510   C672    1.397   1_455 S
C511   C562    1.386   .     S
C512   C590    1.397   .     S
H525   C1942   1.110   1_554 S
H531   C1226   1.109   .     S
H542   C656    1.111   1_455 S
N545   Zn559   2.055   .     S
N546   Zn560   2.055   .     S
O547   Zn559   1.996   .     S
O551   Zn560   1.996   .     S
O552   Zn559   1.971   .     S
O553   Zn560   1.971   .     S
O554   Zn559   1.935   .     S
O555   Zn560   1.935   .     S
O556   Zn559   1.945   .     S
O557   Zn560   1.945   .     S
C561   O627    1.297   .     A
C561   C564    1.413   .     S
C561   O633    1.296   .     A
C562   C573    1.486   .     S
C562   C564    1.406   .     A
C563   C572    1.412   .     S
C563   C591    1.407   .     A
C563   C592    1.408   .     A
C564   C590    1.409   .     A
C565   C574    1.521   .     S
C565   N626    1.384   .     A
C566   N625    1.386   .     A
C566   C577    1.521   .     S
C566   C87     1.433   1_565 S
C567   N626    1.376   .     A
C567   C580    1.520   .     S
C568   N625    1.384   .     A
C568   C584    1.523   .     S
C568   C85     1.445   1_565 S
C569   H593    1.081   .     S
C569   C590    1.500   .     S
C569   O638    1.220   .     D
C570   C591    1.493   .     S
C570   H604    1.084   .     S
C570   O628    1.220   .     D
C571   C592    1.490   .     S
C571   H615    1.083   .     S
C571   O629    1.221   .     D
C572   O632    1.295   .     A
C572   O631    1.297   .     A
C573   O630    1.219   .     D
C573   H619    1.084   .     S
C574   H595    1.105   .     S
C574   H594    1.090   .     S
C574   C575    1.541   .     S
C575   C576    1.526   .     S
C575   H624    1.109   .     S
C575   H623    1.110   .     S
C576   H620    1.108   .     S
C576   H621    1.111   .     S
C576   H702    1.111   .     S
C577   H602    1.111   .     S
C577   C578    1.538   .     S
C577   H601    1.098   .     S
C578   C579    1.527   .     S
C578   H600    1.103   .     S
C578   H599    1.108   .     S
C579   H596    1.110   .     S
C579   H597    1.111   .     S
C579   H598    1.110   .     S
C580   H610    1.088   .     S
C580   H609    1.105   .     S
C580   C581    1.535   .     S
C581   H608    1.109   .     S
C581   H607    1.110   .     S
C581   C2022   1.527   1_554 S
C582   H603    1.111   .     S
C582   H606    1.110   .     S
C582   C1301   1.527   .     S
C582   H1325   1.110   .     S
C583   C588    1.362   .     S
C583   O637    1.296   .     A
C583   O634    1.291   .     A
C584   C585    1.540   .     S
C584   H617    1.083   .     S
C584   H618    1.107   .     S
C585   H616    1.110   .     S
C585   H614    1.107   .     S
C585   C1306   1.527   .     S
C586   H612    1.111   .     S
C586   H613    1.111   .     S
C586   C2025   1.527   1_554 S
C586   H2051   1.109   1_554 S
C587   C589    1.363   .     S
C587   O635    1.291   .     A
C587   O636    1.295   .     A
C588   C2029   1.163   1_554 S
C589   C1308   1.163   .     S
C591   C642    1.386   .     S
C592   C670    1.397   .     S
H605   C2022   1.110   1_554 S
H611   C1306   1.109   .     S
N625   Zn639   2.055   .     S
N626   Zn640   2.055   .     S
O627   Zn639   1.996   .     S
O631   Zn640   1.996   .     S
O632   Zn639   1.971   .     S
O633   Zn640   1.971   .     S
O634   Zn639   1.935   .     S
O635   Zn640   1.935   .     S
O636   Zn639   1.945   .     S
O637   Zn640   1.945   .     S
C641   O707    1.297   .     A
C641   C644    1.413   .     S
C641   O713    1.296   .     A
C642   C653    1.486   .     S
C642   C644    1.406   .     A
C643   C652    1.412   .     S
C643   C671    1.407   .     A
C643   C672    1.408   .     A
C644   C670    1.409   .     A
C645   C654    1.521   .     S
C645   N706    1.384   .     A
C646   N705    1.386   .     A
C646   C657    1.521   .     S
C646   C167    1.433   1_565 S
C647   N706    1.376   .     A
C647   C660    1.520   .     S
C648   N705    1.384   .     A
C648   C664    1.523   .     S
C648   C165    1.445   1_565 S
C649   H673    1.081   .     S
C649   C670    1.500   .     S
C649   O718    1.220   .     D
C650   C671    1.493   .     S
C650   H684    1.084   .     S
C650   O708    1.220   .     D
C651   C672    1.490   .     S
C651   H695    1.083   .     S
C651   O709    1.221   .     D
C652   O712    1.295   .     A
C652   O711    1.297   .     A
C653   O710    1.219   .     D
C653   H699    1.084   .     S
C654   H675    1.105   .     S
C654   H674    1.090   .     S
C654   C655    1.541   .     S
C655   C656    1.526   .     S
C655   H704    1.109   .     S
C655   H703    1.110   .     S
C656   H700    1.108   .     S
C656   H701    1.111   .     S
C656   H542    1.111   1_655 S
C657   H682    1.111   .     S
C657   C658    1.538   .     S
C657   H681    1.098   .     S
C658   C659    1.527   .     S
C658   H680    1.103   .     S
C658   H679    1.108   .     S
C659   H676    1.110   .     S
C659   H677    1.111   .     S
C659   H678    1.110   .     S
C660   H690    1.088   .     S
C660   H689    1.105   .     S
C660   C661    1.535   .     S
C661   H688    1.109   .     S
C661   H687    1.110   .     S
C661   C2102   1.527   1_554 S
C662   H683    1.111   .     S
C662   H686    1.110   .     S
C662   C1381   1.527   .     S
C662   H1405   1.110   .     S
C663   C668    1.362   .     S
C663   O717    1.296   .     A
C663   O714    1.291   .     A
C664   C665    1.540   .     S
C664   H697    1.083   .     S
C664   H698    1.107   .     S
C665   H696    1.110   .     S
C665   H694    1.107   .     S
C665   C1386   1.527   .     S
C666   H692    1.111   .     S
C666   H693    1.111   .     S
C666   C2105   1.527   1_554 S
C666   H2131   1.109   1_554 S
C667   C669    1.363   .     S
C667   O715    1.291   .     A
C667   O716    1.295   .     A
C668   C2109   1.163   1_554 S
C669   C1388   1.163   .     S
C671   C482    1.386   1_655 S
C672   C510    1.397   1_655 S
H685   C2102   1.110   1_554 S
H691   C1386   1.109   .     S
N705   Zn719   2.055   .     S
N706   Zn720   2.055   .     S
O707   Zn719   1.996   .     S
O711   Zn720   1.996   .     S
O712   Zn719   1.971   .     S
O713   Zn720   1.971   .     S
O714   Zn719   1.935   .     S
O715   Zn720   1.935   .     S
O716   Zn719   1.945   .     S
O717   Zn720   1.945   .     S
C721   O787    1.297   .     A
C721   C724    1.413   .     S
C721   O793    1.296   .     A
C722   C733    1.486   .     S
C722   C724    1.406   .     A
C722   C911    1.386   1_455 S
C723   C732    1.412   .     S
C723   C751    1.407   .     A
C723   C752    1.408   .     A
C724   C750    1.409   .     A
C725   C734    1.521   .     S
C725   N786    1.384   .     A
C725   C1208   1.445   1_545 S
C726   N785    1.386   .     A
C726   C737    1.521   .     S
C726   C967    1.433   .     S
C727   N786    1.376   .     A
C727   C740    1.520   .     S
C727   C1206   1.433   1_545 S
C728   N785    1.384   .     A
C728   C744    1.523   .     S
C728   C965    1.445   .     S
C729   H753    1.081   .     S
C729   C750    1.500   .     S
C729   O798    1.220   .     D
C730   C751    1.493   .     S
C730   H764    1.084   .     S
C730   O788    1.220   .     D
C731   C752    1.490   .     S
C731   H775    1.083   .     S
C731   O789    1.221   .     D
C732   O792    1.295   .     A
C732   O791    1.297   .     A
C733   O790    1.219   .     D
C733   H779    1.084   .     S
C734   H755    1.105   .     S
C734   H754    1.090   .     S
C734   C735    1.541   .     S
C735   C736    1.526   .     S
C735   H784    1.109   .     S
C735   H783    1.110   .     S
C736   H780    1.108   .     S
C736   H781    1.111   .     S
C736   H862    1.111   .     S
C737   H762    1.111   .     S
C737   C738    1.538   .     S
C737   H761    1.098   .     S
C738   C739    1.527   .     S
C738   H760    1.103   .     S
C738   H759    1.108   .     S
C739   H756    1.110   .     S
C739   H757    1.111   .     S
C739   H758    1.110   .     S
C740   H770    1.088   .     S
C740   H769    1.105   .     S
C740   C741    1.535   .     S
C741   H768    1.109   .     S
C741   H767    1.110   .     S
C742   H763    1.111   .     S
C742   H766    1.110   .     S
C742   C1461   1.527   .     S
C742   H1485   1.110   .     S
C743   C748    1.362   .     S
C743   O797    1.296   .     A
C743   O794    1.291   .     A
C744   C745    1.540   .     S
C744   H777    1.083   .     S
C744   H778    1.107   .     S
C745   H776    1.110   .     S
C745   H774    1.107   .     S
C745   C1466   1.527   .     S
C746   H772    1.111   .     S
C746   H773    1.111   .     S
C747   C749    1.363   .     S
C747   O795    1.291   .     A
C747   O796    1.295   .     A
C749   C1468   1.163   .     S
C750   C912    1.397   1_455 S
C751   C802    1.386   .     S
C752   C830    1.397   .     S
H771   C1466   1.109   .     S
H782   C896    1.111   1_455 S
N785   Zn799   2.055   .     S
N786   Zn800   2.055   .     S
O787   Zn799   1.996   .     S
O791   Zn800   1.996   .     S
O792   Zn799   1.971   .     S
O793   Zn800   1.971   .     S
O794   Zn799   1.935   .     S
O795   Zn800   1.935   .     S
O796   Zn799   1.945   .     S
O797   Zn800   1.945   .     S
C801   O867    1.297   .     A
C801   C804    1.413   .     S
C801   O873    1.296   .     A
C802   C813    1.486   .     S
C802   C804    1.406   .     A
C803   C812    1.412   .     S
C803   C831    1.407   .     A
C803   C832    1.408   .     A
C804   C830    1.409   .     A
C805   C814    1.521   .     S
C805   N866    1.384   .     A
C805   C1288   1.445   1_545 S
C806   N865    1.386   .     A
C806   C817    1.521   .     S
C806   C1047   1.433   .     S
C807   N866    1.376   .     A
C807   C820    1.520   .     S
C807   C1286   1.433   1_545 S
C808   N865    1.384   .     A
C808   C824    1.523   .     S
C808   C1045   1.445   .     S
C809   H833    1.081   .     S
C809   C830    1.500   .     S
C809   O878    1.220   .     D
C810   C831    1.493   .     S
C810   H844    1.084   .     S
C810   O868    1.220   .     D
C811   C832    1.490   .     S
C811   H855    1.083   .     S
C811   O869    1.221   .     D
C812   O872    1.295   .     A
C812   O871    1.297   .     A
C813   O870    1.219   .     D
C813   H859    1.084   .     S
C814   H835    1.105   .     S
C814   H834    1.090   .     S
C814   C815    1.541   .     S
C815   C816    1.526   .     S
C815   H864    1.109   .     S
C815   H863    1.110   .     S
C816   H860    1.108   .     S
C816   H861    1.111   .     S
C816   H942    1.111   .     S
C817   H842    1.111   .     S
C817   C818    1.538   .     S
C817   H841    1.098   .     S
C818   C819    1.527   .     S
C818   H840    1.103   .     S
C818   H839    1.108   .     S
C819   H836    1.110   .     S
C819   H837    1.111   .     S
C819   H838    1.110   .     S
C820   H850    1.088   .     S
C820   H849    1.105   .     S
C820   C821    1.535   .     S
C821   H848    1.109   .     S
C821   H847    1.110   .     S
C822   H843    1.111   .     S
C822   H846    1.110   .     S
C822   C1541   1.527   .     S
C822   H1565   1.110   .     S
C823   C828    1.362   .     S
C823   O877    1.296   .     A
C823   O874    1.291   .     A
C824   C825    1.540   .     S
C824   H857    1.083   .     S
C824   H858    1.107   .     S
C825   H856    1.110   .     S
C825   H854    1.107   .     S
C825   C1546   1.527   .     S
C826   H852    1.111   .     S
C826   H853    1.111   .     S
C827   C829    1.363   .     S
C827   O875    1.291   .     A
C827   O876    1.295   .     A
C829   C1548   1.163   .     S
C831   C882    1.386   .     S
C832   C910    1.397   .     S
H851   C1546   1.109   .     S
N865   Zn879   2.055   .     S
N866   Zn880   2.055   .     S
O867   Zn879   1.996   .     S
O871   Zn880   1.996   .     S
O872   Zn879   1.971   .     S
O873   Zn880   1.971   .     S
O874   Zn879   1.935   .     S
O875   Zn880   1.935   .     S
O876   Zn879   1.945   .     S
O877   Zn880   1.945   .     S
C881   O947    1.297   .     A
C881   C884    1.413   .     S
C881   O953    1.296   .     A
C882   C893    1.486   .     S
C882   C884    1.406   .     A
C883   C892    1.412   .     S
C883   C911    1.407   .     A
C883   C912    1.408   .     A
C884   C910    1.409   .     A
C885   C894    1.521   .     S
C885   N946    1.384   .     A
C885   C1368   1.445   1_545 S
C886   N945    1.386   .     A
C886   C897    1.521   .     S
C886   C1127   1.433   .     S
C887   N946    1.376   .     A
C887   C900    1.520   .     S
C887   C1366   1.433   1_545 S
C888   N945    1.384   .     A
C888   C904    1.523   .     S
C888   C1125   1.445   .     S
C889   H913    1.081   .     S
C889   C910    1.500   .     S
C889   O958    1.220   .     D
C890   C911    1.493   .     S
C890   H924    1.084   .     S
C890   O948    1.220   .     D
C891   C912    1.490   .     S
C891   H935    1.083   .     S
C891   O949    1.221   .     D
C892   O952    1.295   .     A
C892   O951    1.297   .     A
C893   O950    1.219   .     D
C893   H939    1.084   .     S
C894   H915    1.105   .     S
C894   H914    1.090   .     S
C894   C895    1.541   .     S
C895   C896    1.526   .     S
C895   H944    1.109   .     S
C895   H943    1.110   .     S
C896   H940    1.108   .     S
C896   H941    1.111   .     S
C896   H782    1.111   1_655 S
C897   H922    1.111   .     S
C897   C898    1.538   .     S
C897   H921    1.098   .     S
C898   C899    1.527   .     S
C898   H920    1.103   .     S
C898   H919    1.108   .     S
C899   H916    1.110   .     S
C899   H917    1.111   .     S
C899   H918    1.110   .     S
C900   H930    1.088   .     S
C900   H929    1.105   .     S
C900   C901    1.535   .     S
C901   H928    1.109   .     S
C901   H927    1.110   .     S
C902   H923    1.111   .     S
C902   H926    1.110   .     S
C902   C1621   1.527   .     S
C902   H1645   1.110   .     S
C903   C908    1.362   .     S
C903   O957    1.296   .     A
C903   O954    1.291   .     A
C904   C905    1.540   .     S
C904   H937    1.083   .     S
C904   H938    1.107   .     S
C905   H936    1.110   .     S
C905   H934    1.107   .     S
C905   C1626   1.527   .     S
C906   H932    1.111   .     S
C906   H933    1.111   .     S
C907   C909    1.363   .     S
C907   O955    1.291   .     A
C907   O956    1.295   .     A
C909   C1628   1.163   .     S
C911   C722    1.386   1_655 S
C912   C750    1.397   1_655 S
H931   C1626   1.109   .     S
N945   Zn959   2.055   .     S
N946   Zn960   2.055   .     S
O947   Zn959   1.996   .     S
O951   Zn960   1.996   .     S
O952   Zn959   1.971   .     S
O953   Zn960   1.971   .     S
O954   Zn959   1.935   .     S
O955   Zn960   1.935   .     S
O956   Zn959   1.945   .     S
O957   Zn960   1.945   .     S
C961   O1027   1.297   .     A
C961   C964    1.413   .     S
C961   O1033   1.296   .     A
C962   C973    1.486   .     S
C962   C964    1.406   .     A
C962   C1151   1.386   1_455 S
C963   C972    1.412   .     S
C963   C991    1.407   .     A
C963   C992    1.408   .     A
C964   C990    1.409   .     A
C965   C974    1.521   .     S
C965   N1026   1.384   .     A
C966   N1025   1.386   .     A
C966   C977    1.521   .     S
C966   C1207   1.433   .     S
C967   N1026   1.376   .     A
C967   C980    1.520   .     S
C968   N1025   1.384   .     A
C968   C984    1.523   .     S
C968   C1205   1.445   .     S
C969   H993    1.081   .     S
C969   C990    1.500   .     S
C969   O1038   1.220   .     D
C970   C991    1.493   .     S
C970   H1004   1.084   .     S
C970   O1028   1.220   .     D
C971   C992    1.490   .     S
C971   H1015   1.083   .     S
C971   O1029   1.221   .     D
C972   O1032   1.295   .     A
C972   O1031   1.297   .     A
C973   O1030   1.219   .     D
C973   H1019   1.084   .     S
C974   H995    1.105   .     S
C974   H994    1.090   .     S
C974   C975    1.541   .     S
C975   C976    1.526   .     S
C975   H1024   1.109   .     S
C975   H1023   1.110   .     S
C976   H1020   1.108   .     S
C976   H1021   1.111   .     S
C976   H1102   1.111   .     S
C977   H1002   1.111   .     S
C977   C978    1.538   .     S
C977   H1001   1.098   .     S
C978   C979    1.527   .     S
C978   H1000   1.103   .     S
C978   H999    1.108   .     S
C979   H996    1.110   .     S
C979   H997    1.111   .     S
C979   H998    1.110   .     S
C980   H1010   1.088   .     S
C980   H1009   1.105   .     S
C980   C981    1.535   .     S
C981   H1008   1.109   .     S
C981   H1007   1.110   .     S
C982   H1003   1.111   .     S
C982   H1006   1.110   .     S
C982   C1701   1.527   .     S
C982   H1725   1.110   .     S
C983   C988    1.362   .     S
C983   O1037   1.296   .     A
C983   O1034   1.291   .     A
C984   C985    1.540   .     S
C984   H1017   1.083   .     S
C984   H1018   1.107   .     S
C985   H1016   1.110   .     S
C985   H1014   1.107   .     S
C985   C1706   1.527   .     S
C986   H1012   1.111   .     S
C986   H1013   1.111   .     S
C987   C989    1.363   .     S
C987   O1035   1.291   .     A
C987   O1036   1.295   .     A
C989   C1708   1.163   .     S
C990   C1152   1.397   1_455 S
C991   C1042   1.386   .     S
C992   C1070   1.397   .     S
H1011  C1706   1.109   .     S
H1022  C1136   1.111   1_455 S
N1025  Zn1039  2.055   .     S
N1026  Zn1040  2.055   .     S
O1027  Zn1039  1.996   .     S
O1031  Zn1040  1.996   .     S
O1032  Zn1039  1.971   .     S
O1033  Zn1040  1.971   .     S
O1034  Zn1039  1.935   .     S
O1035  Zn1040  1.935   .     S
O1036  Zn1039  1.945   .     S
O1037  Zn1040  1.945   .     S
C1041  O1107   1.297   .     A
C1041  C1044   1.413   .     S
C1041  O1113   1.296   .     A
C1042  C1053   1.486   .     S
C1042  C1044   1.406   .     A
C1043  C1052   1.412   .     S
C1043  C1071   1.407   .     A
C1043  C1072   1.408   .     A
C1044  C1070   1.409   .     A
C1045  C1054   1.521   .     S
C1045  N1106   1.384   .     A
C1046  N1105   1.386   .     A
C1046  C1057   1.521   .     S
C1046  C1287   1.433   .     S
C1047  N1106   1.376   .     A
C1047  C1060   1.520   .     S
C1048  N1105   1.384   .     A
C1048  C1064   1.523   .     S
C1048  C1285   1.445   .     S
C1049  H1073   1.081   .     S
C1049  C1070   1.500   .     S
C1049  O1118   1.220   .     D
C1050  C1071   1.493   .     S
C1050  H1084   1.084   .     S
C1050  O1108   1.220   .     D
C1051  C1072   1.490   .     S
C1051  H1095   1.083   .     S
C1051  O1109   1.221   .     D
C1052  O1112   1.295   .     A
C1052  O1111   1.297   .     A
C1053  O1110   1.219   .     D
C1053  H1099   1.084   .     S
C1054  H1075   1.105   .     S
C1054  H1074   1.090   .     S
C1054  C1055   1.541   .     S
C1055  C1056   1.526   .     S
C1055  H1104   1.109   .     S
C1055  H1103   1.110   .     S
C1056  H1100   1.108   .     S
C1056  H1101   1.111   .     S
C1056  H1182   1.111   .     S
C1057  H1082   1.111   .     S
C1057  C1058   1.538   .     S
C1057  H1081   1.098   .     S
C1058  C1059   1.527   .     S
C1058  H1080   1.103   .     S
C1058  H1079   1.108   .     S
C1059  H1076   1.110   .     S
C1059  H1077   1.111   .     S
C1059  H1078   1.110   .     S
C1060  H1090   1.088   .     S
C1060  H1089   1.105   .     S
C1060  C1061   1.535   .     S
C1061  H1088   1.109   .     S
C1061  H1087   1.110   .     S
C1062  H1083   1.111   .     S
C1062  H1086   1.110   .     S
C1062  C1781   1.527   .     S
C1062  H1805   1.110   .     S
C1063  C1068   1.362   .     S
C1063  O1117   1.296   .     A
C1063  O1114   1.291   .     A
C1064  C1065   1.540   .     S
C1064  H1097   1.083   .     S
C1064  H1098   1.107   .     S
C1065  H1096   1.110   .     S
C1065  H1094   1.107   .     S
C1065  C1786   1.527   .     S
C1066  H1092   1.111   .     S
C1066  H1093   1.111   .     S
C1067  C1069   1.363   .     S
C1067  O1115   1.291   .     A
C1067  O1116   1.295   .     A
C1069  C1788   1.163   .     S
C1071  C1122   1.386   .     S
C1072  C1150   1.397   .     S
H1091  C1786   1.109   .     S
N1105  Zn1119  2.055   .     S
N1106  Zn1120  2.055   .     S
O1107  Zn1119  1.996   .     S
O1111  Zn1120  1.996   .     S
O1112  Zn1119  1.971   .     S
O1113  Zn1120  1.971   .     S
O1114  Zn1119  1.935   .     S
O1115  Zn1120  1.935   .     S
O1116  Zn1119  1.945   .     S
O1117  Zn1120  1.945   .     S
C1121  O1187   1.297   .     A
C1121  C1124   1.413   .     S
C1121  O1193   1.296   .     A
C1122  C1133   1.486   .     S
C1122  C1124   1.406   .     A
C1123  C1132   1.412   .     S
C1123  C1151   1.407   .     A
C1123  C1152   1.408   .     A
C1124  C1150   1.409   .     A
C1125  C1134   1.521   .     S
C1125  N1186   1.384   .     A
C1126  N1185   1.386   .     A
C1126  C1137   1.521   .     S
C1126  C1367   1.433   .     S
C1127  N1186   1.376   .     A
C1127  C1140   1.520   .     S
C1128  N1185   1.384   .     A
C1128  C1144   1.523   .     S
C1128  C1365   1.445   .     S
C1129  H1153   1.081   .     S
C1129  C1150   1.500   .     S
C1129  O1198   1.220   .     D
C1130  C1151   1.493   .     S
C1130  H1164   1.084   .     S
C1130  O1188   1.220   .     D
C1131  C1152   1.490   .     S
C1131  H1175   1.083   .     S
C1131  O1189   1.221   .     D
C1132  O1192   1.295   .     A
C1132  O1191   1.297   .     A
C1133  O1190   1.219   .     D
C1133  H1179   1.084   .     S
C1134  H1155   1.105   .     S
C1134  H1154   1.090   .     S
C1134  C1135   1.541   .     S
C1135  C1136   1.526   .     S
C1135  H1184   1.109   .     S
C1135  H1183   1.110   .     S
C1136  H1180   1.108   .     S
C1136  H1181   1.111   .     S
C1136  H1022   1.111   1_655 S
C1137  H1162   1.111   .     S
C1137  C1138   1.538   .     S
C1137  H1161   1.098   .     S
C1138  C1139   1.527   .     S
C1138  H1160   1.103   .     S
C1138  H1159   1.108   .     S
C1139  H1156   1.110   .     S
C1139  H1157   1.111   .     S
C1139  H1158   1.110   .     S
C1140  H1170   1.088   .     S
C1140  H1169   1.105   .     S
C1140  C1141   1.535   .     S
C1141  H1168   1.109   .     S
C1141  H1167   1.110   .     S
C1142  H1163   1.111   .     S
C1142  H1166   1.110   .     S
C1142  C1861   1.527   .     S
C1142  H1885   1.110   .     S
C1143  C1148   1.362   .     S
C1143  O1197   1.296   .     A
C1143  O1194   1.291   .     A
C1144  C1145   1.540   .     S
C1144  H1177   1.083   .     S
C1144  H1178   1.107   .     S
C1145  H1176   1.110   .     S
C1145  H1174   1.107   .     S
C1145  C1866   1.527   .     S
C1146  H1172   1.111   .     S
C1146  H1173   1.111   .     S
C1147  C1149   1.363   .     S
C1147  O1195   1.291   .     A
C1147  O1196   1.295   .     A
C1149  C1868   1.163   .     S
C1151  C962    1.386   1_655 S
C1152  C990    1.397   1_655 S
H1171  C1866   1.109   .     S
N1185  Zn1199  2.055   .     S
N1186  Zn1200  2.055   .     S
O1187  Zn1199  1.996   .     S
O1191  Zn1200  1.996   .     S
O1192  Zn1199  1.971   .     S
O1193  Zn1200  1.971   .     S
O1194  Zn1199  1.935   .     S
O1195  Zn1200  1.935   .     S
O1196  Zn1199  1.945   .     S
O1197  Zn1200  1.945   .     S
C1201  O1267   1.297   .     A
C1201  C1204   1.413   .     S
C1201  O1273   1.296   .     A
C1202  C1213   1.486   .     S
C1202  C1204   1.406   .     A
C1202  C1391   1.386   1_455 S
C1203  C1212   1.412   .     S
C1203  C1231   1.407   .     A
C1203  C1232   1.408   .     A
C1204  C1230   1.409   .     A
C1205  C1214   1.521   .     S
C1205  N1266   1.384   .     A
C1206  N1265   1.386   .     A
C1206  C1217   1.521   .     S
C1206  C727    1.433   1_565 S
C1207  N1266   1.376   .     A
C1207  C1220   1.520   .     S
C1208  N1265   1.384   .     A
C1208  C1224   1.523   .     S
C1208  C725    1.445   1_565 S
C1209  H1233   1.081   .     S
C1209  C1230   1.500   .     S
C1209  O1278   1.220   .     D
C1210  C1231   1.493   .     S
C1210  H1244   1.084   .     S
C1210  O1268   1.220   .     D
C1211  C1232   1.490   .     S
C1211  H1255   1.083   .     S
C1211  O1269   1.221   .     D
C1212  O1272   1.295   .     A
C1212  O1271   1.297   .     A
C1213  O1270   1.219   .     D
C1213  H1259   1.084   .     S
C1214  H1235   1.105   .     S
C1214  H1234   1.090   .     S
C1214  C1215   1.541   .     S
C1215  C1216   1.526   .     S
C1215  H1264   1.109   .     S
C1215  H1263   1.110   .     S
C1216  H1260   1.108   .     S
C1216  H1261   1.111   .     S
C1216  H1342   1.111   .     S
C1217  H1242   1.111   .     S
C1217  C1218   1.538   .     S
C1217  H1241   1.098   .     S
C1218  C1219   1.527   .     S
C1218  H1240   1.103   .     S
C1218  H1239   1.108   .     S
C1219  H1236   1.110   .     S
C1219  H1237   1.111   .     S
C1219  H1238   1.110   .     S
C1220  H1250   1.088   .     S
C1220  H1249   1.105   .     S
C1220  C1221   1.535   .     S
C1221  H1248   1.109   .     S
C1221  H1247   1.110   .     S
C1222  H1243   1.111   .     S
C1222  H1246   1.110   .     S
C1222  C1941   1.527   .     S
C1222  H1965   1.110   .     S
C1223  C1228   1.362   .     S
C1223  O1277   1.296   .     A
C1223  O1274   1.291   .     A
C1224  C1225   1.540   .     S
C1224  H1257   1.083   .     S
C1224  H1258   1.107   .     S
C1225  H1256   1.110   .     S
C1225  H1254   1.107   .     S
C1225  C1946   1.527   .     S
C1226  H1252   1.111   .     S
C1226  H1253   1.111   .     S
C1227  C1229   1.363   .     S
C1227  O1275   1.291   .     A
C1227  O1276   1.295   .     A
C1229  C1948   1.163   .     S
C1230  C1392   1.397   1_455 S
C1231  C1282   1.386   .     S
C1232  C1310   1.397   .     S
H1251  C1946   1.109   .     S
H1262  C1376   1.111   1_455 S
N1265  Zn1279  2.055   .     S
N1266  Zn1280  2.055   .     S
O1267  Zn1279  1.996   .     S
O1271  Zn1280  1.996   .     S
O1272  Zn1279  1.971   .     S
O1273  Zn1280  1.971   .     S
O1274  Zn1279  1.935   .     S
O1275  Zn1280  1.935   .     S
O1276  Zn1279  1.945   .     S
O1277  Zn1280  1.945   .     S
C1281  O1347   1.297   .     A
C1281  C1284   1.413   .     S
C1281  O1353   1.296   .     A
C1282  C1293   1.486   .     S
C1282  C1284   1.406   .     A
C1283  C1292   1.412   .     S
C1283  C1311   1.407   .     A
C1283  C1312   1.408   .     A
C1284  C1310   1.409   .     A
C1285  C1294   1.521   .     S
C1285  N1346   1.384   .     A
C1286  N1345   1.386   .     A
C1286  C1297   1.521   .     S
C1286  C807    1.433   1_565 S
C1287  N1346   1.376   .     A
C1287  C1300   1.520   .     S
C1288  N1345   1.384   .     A
C1288  C1304   1.523   .     S
C1288  C805    1.445   1_565 S
C1289  H1313   1.081   .     S
C1289  C1310   1.500   .     S
C1289  O1358   1.220   .     D
C1290  C1311   1.493   .     S
C1290  H1324   1.084   .     S
C1290  O1348   1.220   .     D
C1291  C1312   1.490   .     S
C1291  H1335   1.083   .     S
C1291  O1349   1.221   .     D
C1292  O1352   1.295   .     A
C1292  O1351   1.297   .     A
C1293  O1350   1.219   .     D
C1293  H1339   1.084   .     S
C1294  H1315   1.105   .     S
C1294  H1314   1.090   .     S
C1294  C1295   1.541   .     S
C1295  C1296   1.526   .     S
C1295  H1344   1.109   .     S
C1295  H1343   1.110   .     S
C1296  H1340   1.108   .     S
C1296  H1341   1.111   .     S
C1296  H1422   1.111   .     S
C1297  H1322   1.111   .     S
C1297  C1298   1.538   .     S
C1297  H1321   1.098   .     S
C1298  C1299   1.527   .     S
C1298  H1320   1.103   .     S
C1298  H1319   1.108   .     S
C1299  H1316   1.110   .     S
C1299  H1317   1.111   .     S
C1299  H1318   1.110   .     S
C1300  H1330   1.088   .     S
C1300  H1329   1.105   .     S
C1300  C1301   1.535   .     S
C1301  H1328   1.109   .     S
C1301  H1327   1.110   .     S
C1302  H1323   1.111   .     S
C1302  H1326   1.110   .     S
C1302  C2021   1.527   .     S
C1302  H2045   1.110   .     S
C1303  C1308   1.362   .     S
C1303  O1357   1.296   .     A
C1303  O1354   1.291   .     A
C1304  C1305   1.540   .     S
C1304  H1337   1.083   .     S
C1304  H1338   1.107   .     S
C1305  H1336   1.110   .     S
C1305  H1334   1.107   .     S
C1305  C2026   1.527   .     S
C1306  H1332   1.111   .     S
C1306  H1333   1.111   .     S
C1307  C1309   1.363   .     S
C1307  O1355   1.291   .     A
C1307  O1356   1.295   .     A
C1309  C2028   1.163   .     S
C1311  C1362   1.386   .     S
C1312  C1390   1.397   .     S
H1331  C2026   1.109   .     S
N1345  Zn1359  2.055   .     S
N1346  Zn1360  2.055   .     S
O1347  Zn1359  1.996   .     S
O1351  Zn1360  1.996   .     S
O1352  Zn1359  1.971   .     S
O1353  Zn1360  1.971   .     S
O1354  Zn1359  1.935   .     S
O1355  Zn1360  1.935   .     S
O1356  Zn1359  1.945   .     S
O1357  Zn1360  1.945   .     S
C1361  O1427   1.297   .     A
C1361  C1364   1.413   .     S
C1361  O1433   1.296   .     A
C1362  C1373   1.486   .     S
C1362  C1364   1.406   .     A
C1363  C1372   1.412   .     S
C1363  C1391   1.407   .     A
C1363  C1392   1.408   .     A
C1364  C1390   1.409   .     A
C1365  C1374   1.521   .     S
C1365  N1426   1.384   .     A
C1366  N1425   1.386   .     A
C1366  C1377   1.521   .     S
C1366  C887    1.433   1_565 S
C1367  N1426   1.376   .     A
C1367  C1380   1.520   .     S
C1368  N1425   1.384   .     A
C1368  C1384   1.523   .     S
C1368  C885    1.445   1_565 S
C1369  H1393   1.081   .     S
C1369  C1390   1.500   .     S
C1369  O1438   1.220   .     D
C1370  C1391   1.493   .     S
C1370  H1404   1.084   .     S
C1370  O1428   1.220   .     D
C1371  C1392   1.490   .     S
C1371  H1415   1.083   .     S
C1371  O1429   1.221   .     D
C1372  O1432   1.295   .     A
C1372  O1431   1.297   .     A
C1373  O1430   1.219   .     D
C1373  H1419   1.084   .     S
C1374  H1395   1.105   .     S
C1374  H1394   1.090   .     S
C1374  C1375   1.541   .     S
C1375  C1376   1.526   .     S
C1375  H1424   1.109   .     S
C1375  H1423   1.110   .     S
C1376  H1420   1.108   .     S
C1376  H1421   1.111   .     S
C1376  H1262   1.111   1_655 S
C1377  H1402   1.111   .     S
C1377  C1378   1.538   .     S
C1377  H1401   1.098   .     S
C1378  C1379   1.527   .     S
C1378  H1400   1.103   .     S
C1378  H1399   1.108   .     S
C1379  H1396   1.110   .     S
C1379  H1397   1.111   .     S
C1379  H1398   1.110   .     S
C1380  H1410   1.088   .     S
C1380  H1409   1.105   .     S
C1380  C1381   1.535   .     S
C1381  H1408   1.109   .     S
C1381  H1407   1.110   .     S
C1382  H1403   1.111   .     S
C1382  H1406   1.110   .     S
C1382  C2101   1.527   .     S
C1382  H2125   1.110   .     S
C1383  C1388   1.362   .     S
C1383  O1437   1.296   .     A
C1383  O1434   1.291   .     A
C1384  C1385   1.540   .     S
C1384  H1417   1.083   .     S
C1384  H1418   1.107   .     S
C1385  H1416   1.110   .     S
C1385  H1414   1.107   .     S
C1385  C2106   1.527   .     S
C1386  H1412   1.111   .     S
C1386  H1413   1.111   .     S
C1387  C1389   1.363   .     S
C1387  O1435   1.291   .     A
C1387  O1436   1.295   .     A
C1389  C2108   1.163   .     S
C1391  C1202   1.386   1_655 S
C1392  C1230   1.397   1_655 S
H1411  C2106   1.109   .     S
N1425  Zn1439  2.055   .     S
N1426  Zn1440  2.055   .     S
O1427  Zn1439  1.996   .     S
O1431  Zn1440  1.996   .     S
O1432  Zn1439  1.971   .     S
O1433  Zn1440  1.971   .     S
O1434  Zn1439  1.935   .     S
O1435  Zn1440  1.935   .     S
O1436  Zn1439  1.945   .     S
O1437  Zn1440  1.945   .     S
C1441  O1507   1.297   .     A
C1441  C1444   1.413   .     S
C1441  O1513   1.296   .     A
C1442  C1453   1.486   .     S
C1442  C1444   1.406   .     A
C1442  C1631   1.386   1_455 S
C1443  C1452   1.412   .     S
C1443  C1471   1.407   .     A
C1443  C1472   1.408   .     A
C1444  C1470   1.409   .     A
C1445  C1454   1.521   .     S
C1445  N1506   1.384   .     A
C1445  C1928   1.445   1_545 S
C1446  N1505   1.386   .     A
C1446  C1457   1.521   .     S
C1446  C1687   1.433   .     S
C1447  N1506   1.376   .     A
C1447  C1460   1.520   .     S
C1447  C1926   1.433   1_545 S
C1448  N1505   1.384   .     A
C1448  C1464   1.523   .     S
C1448  C1685   1.445   .     S
C1449  H1473   1.081   .     S
C1449  C1470   1.500   .     S
C1449  O1518   1.220   .     D
C1450  C1471   1.493   .     S
C1450  H1484   1.084   .     S
C1450  O1508   1.220   .     D
C1451  C1472   1.490   .     S
C1451  H1495   1.083   .     S
C1451  O1509   1.221   .     D
C1452  O1512   1.295   .     A
C1452  O1511   1.297   .     A
C1453  O1510   1.219   .     D
C1453  H1499   1.084   .     S
C1454  H1475   1.105   .     S
C1454  H1474   1.090   .     S
C1454  C1455   1.541   .     S
C1455  C1456   1.526   .     S
C1455  H1504   1.109   .     S
C1455  H1503   1.110   .     S
C1456  H1500   1.108   .     S
C1456  H1501   1.111   .     S
C1456  H1582   1.111   .     S
C1457  H1482   1.111   .     S
C1457  C1458   1.538   .     S
C1457  H1481   1.098   .     S
C1458  C1459   1.527   .     S
C1458  H1480   1.103   .     S
C1458  H1479   1.108   .     S
C1459  H1476   1.110   .     S
C1459  H1477   1.111   .     S
C1459  H1478   1.110   .     S
C1460  H1490   1.088   .     S
C1460  H1489   1.105   .     S
C1460  C1461   1.535   .     S
C1461  H1488   1.109   .     S
C1461  H1487   1.110   .     S
C1462  H1483   1.111   .     S
C1462  H1486   1.110   .     S
C1462  C21     1.527   1_556 S
C1462  H45     1.110   1_556 S
C1463  C1468   1.362   .     S
C1463  O1517   1.296   .     A
C1463  O1514   1.291   .     A
C1464  C1465   1.540   .     S
C1464  H1497   1.083   .     S
C1464  H1498   1.107   .     S
C1465  H1496   1.110   .     S
C1465  H1494   1.107   .     S
C1465  C26     1.527   1_556 S
C1466  H1492   1.111   .     S
C1466  H1493   1.111   .     S
C1467  C1469   1.363   .     S
C1467  O1515   1.291   .     A
C1467  O1516   1.295   .     A
C1469  C28     1.163   1_556 S
C1470  C1632   1.397   1_455 S
C1471  C1522   1.386   .     S
C1472  C1550   1.397   .     S
H1491  C26     1.109   1_556 S
H1502  C1616   1.111   1_455 S
N1505  Zn1519  2.055   .     S
N1506  Zn1520  2.055   .     S
O1507  Zn1519  1.996   .     S
O1511  Zn1520  1.996   .     S
O1512  Zn1519  1.971   .     S
O1513  Zn1520  1.971   .     S
O1514  Zn1519  1.935   .     S
O1515  Zn1520  1.935   .     S
O1516  Zn1519  1.945   .     S
O1517  Zn1520  1.945   .     S
C1521  O1587   1.297   .     A
C1521  C1524   1.413   .     S
C1521  O1593   1.296   .     A
C1522  C1533   1.486   .     S
C1522  C1524   1.406   .     A
C1523  C1532   1.412   .     S
C1523  C1551   1.407   .     A
C1523  C1552   1.408   .     A
C1524  C1550   1.409   .     A
C1525  C1534   1.521   .     S
C1525  N1586   1.384   .     A
C1525  C2008   1.445   1_545 S
C1526  N1585   1.386   .     A
C1526  C1537   1.521   .     S
C1526  C1767   1.433   .     S
C1527  N1586   1.376   .     A
C1527  C1540   1.520   .     S
C1527  C2006   1.433   1_545 S
C1528  N1585   1.384   .     A
C1528  C1544   1.523   .     S
C1528  C1765   1.445   .     S
C1529  H1553   1.081   .     S
C1529  C1550   1.500   .     S
C1529  O1598   1.220   .     D
C1530  C1551   1.493   .     S
C1530  H1564   1.084   .     S
C1530  O1588   1.220   .     D
C1531  C1552   1.490   .     S
C1531  H1575   1.083   .     S
C1531  O1589   1.221   .     D
C1532  O1592   1.295   .     A
C1532  O1591   1.297   .     A
C1533  O1590   1.219   .     D
C1533  H1579   1.084   .     S
C1534  H1555   1.105   .     S
C1534  H1554   1.090   .     S
C1534  C1535   1.541   .     S
C1535  C1536   1.526   .     S
C1535  H1584   1.109   .     S
C1535  H1583   1.110   .     S
C1536  H1580   1.108   .     S
C1536  H1581   1.111   .     S
C1536  H1662   1.111   .     S
C1537  H1562   1.111   .     S
C1537  C1538   1.538   .     S
C1537  H1561   1.098   .     S
C1538  C1539   1.527   .     S
C1538  H1560   1.103   .     S
C1538  H1559   1.108   .     S
C1539  H1556   1.110   .     S
C1539  H1557   1.111   .     S
C1539  H1558   1.110   .     S
C1540  H1570   1.088   .     S
C1540  H1569   1.105   .     S
C1540  C1541   1.535   .     S
C1541  H1568   1.109   .     S
C1541  H1567   1.110   .     S
C1542  H1563   1.111   .     S
C1542  H1566   1.110   .     S
C1542  C101    1.527   1_556 S
C1542  H125    1.110   1_556 S
C1543  C1548   1.362   .     S
C1543  O1597   1.296   .     A
C1543  O1594   1.291   .     A
C1544  C1545   1.540   .     S
C1544  H1577   1.083   .     S
C1544  H1578   1.107   .     S
C1545  H1576   1.110   .     S
C1545  H1574   1.107   .     S
C1545  C106    1.527   1_556 S
C1546  H1572   1.111   .     S
C1546  H1573   1.111   .     S
C1547  C1549   1.363   .     S
C1547  O1595   1.291   .     A
C1547  O1596   1.295   .     A
C1549  C108    1.163   1_556 S
C1551  C1602   1.386   .     S
C1552  C1630   1.397   .     S
H1571  C106    1.109   1_556 S
N1585  Zn1599  2.055   .     S
N1586  Zn1600  2.055   .     S
O1587  Zn1599  1.996   .     S
O1591  Zn1600  1.996   .     S
O1592  Zn1599  1.971   .     S
O1593  Zn1600  1.971   .     S
O1594  Zn1599  1.935   .     S
O1595  Zn1600  1.935   .     S
O1596  Zn1599  1.945   .     S
O1597  Zn1600  1.945   .     S
C1601  O1667   1.297   .     A
C1601  C1604   1.413   .     S
C1601  O1673   1.296   .     A
C1602  C1613   1.486   .     S
C1602  C1604   1.406   .     A
C1603  C1612   1.412   .     S
C1603  C1631   1.407   .     A
C1603  C1632   1.408   .     A
C1604  C1630   1.409   .     A
C1605  C1614   1.521   .     S
C1605  N1666   1.384   .     A
C1605  C2088   1.445   1_545 S
C1606  N1665   1.386   .     A
C1606  C1617   1.521   .     S
C1606  C1847   1.433   .     S
C1607  N1666   1.376   .     A
C1607  C1620   1.520   .     S
C1607  C2086   1.433   1_545 S
C1608  N1665   1.384   .     A
C1608  C1624   1.523   .     S
C1608  C1845   1.445   .     S
C1609  H1633   1.081   .     S
C1609  C1630   1.500   .     S
C1609  O1678   1.220   .     D
C1610  C1631   1.493   .     S
C1610  H1644   1.084   .     S
C1610  O1668   1.220   .     D
C1611  C1632   1.490   .     S
C1611  H1655   1.083   .     S
C1611  O1669   1.221   .     D
C1612  O1672   1.295   .     A
C1612  O1671   1.297   .     A
C1613  O1670   1.219   .     D
C1613  H1659   1.084   .     S
C1614  H1635   1.105   .     S
C1614  H1634   1.090   .     S
C1614  C1615   1.541   .     S
C1615  C1616   1.526   .     S
C1615  H1664   1.109   .     S
C1615  H1663   1.110   .     S
C1616  H1660   1.108   .     S
C1616  H1661   1.111   .     S
C1616  H1502   1.111   1_655 S
C1617  H1642   1.111   .     S
C1617  C1618   1.538   .     S
C1617  H1641   1.098   .     S
C1618  C1619   1.527   .     S
C1618  H1640   1.103   .     S
C1618  H1639   1.108   .     S
C1619  H1636   1.110   .     S
C1619  H1637   1.111   .     S
C1619  H1638   1.110   .     S
C1620  H1650   1.088   .     S
C1620  H1649   1.105   .     S
C1620  C1621   1.535   .     S
C1621  H1648   1.109   .     S
C1621  H1647   1.110   .     S
C1622  H1643   1.111   .     S
C1622  H1646   1.110   .     S
C1622  C181    1.527   1_556 S
C1622  H205    1.110   1_556 S
C1623  C1628   1.362   .     S
C1623  O1677   1.296   .     A
C1623  O1674   1.291   .     A
C1624  C1625   1.540   .     S
C1624  H1657   1.083   .     S
C1624  H1658   1.107   .     S
C1625  H1656   1.110   .     S
C1625  H1654   1.107   .     S
C1625  C186    1.527   1_556 S
C1626  H1652   1.111   .     S
C1626  H1653   1.111   .     S
C1627  C1629   1.363   .     S
C1627  O1675   1.291   .     A
C1627  O1676   1.295   .     A
C1629  C188    1.163   1_556 S
C1631  C1442   1.386   1_655 S
C1632  C1470   1.397   1_655 S
H1651  C186    1.109   1_556 S
N1665  Zn1679  2.055   .     S
N1666  Zn1680  2.055   .     S
O1667  Zn1679  1.996   .     S
O1671  Zn1680  1.996   .     S
O1672  Zn1679  1.971   .     S
O1673  Zn1680  1.971   .     S
O1674  Zn1679  1.935   .     S
O1675  Zn1680  1.935   .     S
O1676  Zn1679  1.945   .     S
O1677  Zn1680  1.945   .     S
C1681  O1747   1.297   .     A
C1681  C1684   1.413   .     S
C1681  O1753   1.296   .     A
C1682  C1693   1.486   .     S
C1682  C1684   1.406   .     A
C1682  C1871   1.386   1_455 S
C1683  C1692   1.412   .     S
C1683  C1711   1.407   .     A
C1683  C1712   1.408   .     A
C1684  C1710   1.409   .     A
C1685  C1694   1.521   .     S
C1685  N1746   1.384   .     A
C1686  N1745   1.386   .     A
C1686  C1697   1.521   .     S
C1686  C1927   1.433   .     S
C1687  N1746   1.376   .     A
C1687  C1700   1.520   .     S
C1688  N1745   1.384   .     A
C1688  C1704   1.523   .     S
C1688  C1925   1.445   .     S
C1689  H1713   1.081   .     S
C1689  C1710   1.500   .     S
C1689  O1758   1.220   .     D
C1690  C1711   1.493   .     S
C1690  H1724   1.084   .     S
C1690  O1748   1.220   .     D
C1691  C1712   1.490   .     S
C1691  H1735   1.083   .     S
C1691  O1749   1.221   .     D
C1692  O1752   1.295   .     A
C1692  O1751   1.297   .     A
C1693  O1750   1.219   .     D
C1693  H1739   1.084   .     S
C1694  H1715   1.105   .     S
C1694  H1714   1.090   .     S
C1694  C1695   1.541   .     S
C1695  C1696   1.526   .     S
C1695  H1744   1.109   .     S
C1695  H1743   1.110   .     S
C1696  H1740   1.108   .     S
C1696  H1741   1.111   .     S
C1696  H1822   1.111   .     S
C1697  H1722   1.111   .     S
C1697  C1698   1.538   .     S
C1697  H1721   1.098   .     S
C1698  C1699   1.527   .     S
C1698  H1720   1.103   .     S
C1698  H1719   1.108   .     S
C1699  H1716   1.110   .     S
C1699  H1717   1.111   .     S
C1699  H1718   1.110   .     S
C1700  H1730   1.088   .     S
C1700  H1729   1.105   .     S
C1700  C1701   1.535   .     S
C1701  H1728   1.109   .     S
C1701  H1727   1.110   .     S
C1702  H1723   1.111   .     S
C1702  H1726   1.110   .     S
C1702  C261    1.527   1_556 S
C1702  H285    1.110   1_556 S
C1703  C1708   1.362   .     S
C1703  O1757   1.296   .     A
C1703  O1754   1.291   .     A
C1704  C1705   1.540   .     S
C1704  H1737   1.083   .     S
C1704  H1738   1.107   .     S
C1705  H1736   1.110   .     S
C1705  H1734   1.107   .     S
C1705  C266    1.527   1_556 S
C1706  H1732   1.111   .     S
C1706  H1733   1.111   .     S
C1707  C1709   1.363   .     S
C1707  O1755   1.291   .     A
C1707  O1756   1.295   .     A
C1709  C268    1.163   1_556 S
C1710  C1872   1.397   1_455 S
C1711  C1762   1.386   .     S
C1712  C1790   1.397   .     S
H1731  C266    1.109   1_556 S
H1742  C1856   1.111   1_455 S
N1745  Zn1759  2.055   .     S
N1746  Zn1760  2.055   .     S
O1747  Zn1759  1.996   .     S
O1751  Zn1760  1.996   .     S
O1752  Zn1759  1.971   .     S
O1753  Zn1760  1.971   .     S
O1754  Zn1759  1.935   .     S
O1755  Zn1760  1.935   .     S
O1756  Zn1759  1.945   .     S
O1757  Zn1760  1.945   .     S
C1761  O1827   1.297   .     A
C1761  C1764   1.413   .     S
C1761  O1833   1.296   .     A
C1762  C1773   1.486   .     S
C1762  C1764   1.406   .     A
C1763  C1772   1.412   .     S
C1763  C1791   1.407   .     A
C1763  C1792   1.408   .     A
C1764  C1790   1.409   .     A
C1765  C1774   1.521   .     S
C1765  N1826   1.384   .     A
C1766  N1825   1.386   .     A
C1766  C1777   1.521   .     S
C1766  C2007   1.433   .     S
C1767  N1826   1.376   .     A
C1767  C1780   1.520   .     S
C1768  N1825   1.384   .     A
C1768  C1784   1.523   .     S
C1768  C2005   1.445   .     S
C1769  H1793   1.081   .     S
C1769  C1790   1.500   .     S
C1769  O1838   1.220   .     D
C1770  C1791   1.493   .     S
C1770  H1804   1.084   .     S
C1770  O1828   1.220   .     D
C1771  C1792   1.490   .     S
C1771  H1815   1.083   .     S
C1771  O1829   1.221   .     D
C1772  O1832   1.295   .     A
C1772  O1831   1.297   .     A
C1773  O1830   1.219   .     D
C1773  H1819   1.084   .     S
C1774  H1795   1.105   .     S
C1774  H1794   1.090   .     S
C1774  C1775   1.541   .     S
C1775  C1776   1.526   .     S
C1775  H1824   1.109   .     S
C1775  H1823   1.110   .     S
C1776  H1820   1.108   .     S
C1776  H1821   1.111   .     S
C1776  H1902   1.111   .     S
C1777  H1802   1.111   .     S
C1777  C1778   1.538   .     S
C1777  H1801   1.098   .     S
C1778  C1779   1.527   .     S
C1778  H1800   1.103   .     S
C1778  H1799   1.108   .     S
C1779  H1796   1.110   .     S
C1779  H1797   1.111   .     S
C1779  H1798   1.110   .     S
C1780  H1810   1.088   .     S
C1780  H1809   1.105   .     S
C1780  C1781   1.535   .     S
C1781  H1808   1.109   .     S
C1781  H1807   1.110   .     S
C1782  H1803   1.111   .     S
C1782  H1806   1.110   .     S
C1782  C341    1.527   1_556 S
C1782  H365    1.110   1_556 S
C1783  C1788   1.362   .     S
C1783  O1837   1.296   .     A
C1783  O1834   1.291   .     A
C1784  C1785   1.540   .     S
C1784  H1817   1.083   .     S
C1784  H1818   1.107   .     S
C1785  H1816   1.110   .     S
C1785  H1814   1.107   .     S
C1785  C346    1.527   1_556 S
C1786  H1812   1.111   .     S
C1786  H1813   1.111   .     S
C1787  C1789   1.363   .     S
C1787  O1835   1.291   .     A
C1787  O1836   1.295   .     A
C1789  C348    1.163   1_556 S
C1791  C1842   1.386   .     S
C1792  C1870   1.397   .     S
H1811  C346    1.109   1_556 S
N1825  Zn1839  2.055   .     S
N1826  Zn1840  2.055   .     S
O1827  Zn1839  1.996   .     S
O1831  Zn1840  1.996   .     S
O1832  Zn1839  1.971   .     S
O1833  Zn1840  1.971   .     S
O1834  Zn1839  1.935   .     S
O1835  Zn1840  1.935   .     S
O1836  Zn1839  1.945   .     S
O1837  Zn1840  1.945   .     S
C1841  O1907   1.297   .     A
C1841  C1844   1.413   .     S
C1841  O1913   1.296   .     A
C1842  C1853   1.486   .     S
C1842  C1844   1.406   .     A
C1843  C1852   1.412   .     S
C1843  C1871   1.407   .     A
C1843  C1872   1.408   .     A
C1844  C1870   1.409   .     A
C1845  C1854   1.521   .     S
C1845  N1906   1.384   .     A
C1846  N1905   1.386   .     A
C1846  C1857   1.521   .     S
C1846  C2087   1.433   .     S
C1847  N1906   1.376   .     A
C1847  C1860   1.520   .     S
C1848  N1905   1.384   .     A
C1848  C1864   1.523   .     S
C1848  C2085   1.445   .     S
C1849  H1873   1.081   .     S
C1849  C1870   1.500   .     S
C1849  O1918   1.220   .     D
C1850  C1871   1.493   .     S
C1850  H1884   1.084   .     S
C1850  O1908   1.220   .     D
C1851  C1872   1.490   .     S
C1851  H1895   1.083   .     S
C1851  O1909   1.221   .     D
C1852  O1912   1.295   .     A
C1852  O1911   1.297   .     A
C1853  O1910   1.219   .     D
C1853  H1899   1.084   .     S
C1854  H1875   1.105   .     S
C1854  H1874   1.090   .     S
C1854  C1855   1.541   .     S
C1855  C1856   1.526   .     S
C1855  H1904   1.109   .     S
C1855  H1903   1.110   .     S
C1856  H1900   1.108   .     S
C1856  H1901   1.111   .     S
C1856  H1742   1.111   1_655 S
C1857  H1882   1.111   .     S
C1857  C1858   1.538   .     S
C1857  H1881   1.098   .     S
C1858  C1859   1.527   .     S
C1858  H1880   1.103   .     S
C1858  H1879   1.108   .     S
C1859  H1876   1.110   .     S
C1859  H1877   1.111   .     S
C1859  H1878   1.110   .     S
C1860  H1890   1.088   .     S
C1860  H1889   1.105   .     S
C1860  C1861   1.535   .     S
C1861  H1888   1.109   .     S
C1861  H1887   1.110   .     S
C1862  H1883   1.111   .     S
C1862  H1886   1.110   .     S
C1862  C421    1.527   1_556 S
C1862  H445    1.110   1_556 S
C1863  C1868   1.362   .     S
C1863  O1917   1.296   .     A
C1863  O1914   1.291   .     A
C1864  C1865   1.540   .     S
C1864  H1897   1.083   .     S
C1864  H1898   1.107   .     S
C1865  H1896   1.110   .     S
C1865  H1894   1.107   .     S
C1865  C426    1.527   1_556 S
C1866  H1892   1.111   .     S
C1866  H1893   1.111   .     S
C1867  C1869   1.363   .     S
C1867  O1915   1.291   .     A
C1867  O1916   1.295   .     A
C1869  C428    1.163   1_556 S
C1871  C1682   1.386   1_655 S
C1872  C1710   1.397   1_655 S
H1891  C426    1.109   1_556 S
N1905  Zn1919  2.055   .     S
N1906  Zn1920  2.055   .     S
O1907  Zn1919  1.996   .     S
O1911  Zn1920  1.996   .     S
O1912  Zn1919  1.971   .     S
O1913  Zn1920  1.971   .     S
O1914  Zn1919  1.935   .     S
O1915  Zn1920  1.935   .     S
O1916  Zn1919  1.945   .     S
O1917  Zn1920  1.945   .     S
C1921  O1987   1.297   .     A
C1921  C1924   1.413   .     S
C1921  O1993   1.296   .     A
C1922  C1933   1.486   .     S
C1922  C1924   1.406   .     A
C1922  C2111   1.386   1_455 S
C1923  C1932   1.412   .     S
C1923  C1951   1.407   .     A
C1923  C1952   1.408   .     A
C1924  C1950   1.409   .     A
C1925  C1934   1.521   .     S
C1925  N1986   1.384   .     A
C1926  N1985   1.386   .     A
C1926  C1937   1.521   .     S
C1926  C1447   1.433   1_565 S
C1927  N1986   1.376   .     A
C1927  C1940   1.520   .     S
C1928  N1985   1.384   .     A
C1928  C1944   1.523   .     S
C1928  C1445   1.445   1_565 S
C1929  H1953   1.081   .     S
C1929  C1950   1.500   .     S
C1929  O1998   1.220   .     D
C1930  C1951   1.493   .     S
C1930  H1964   1.084   .     S
C1930  O1988   1.220   .     D
C1931  C1952   1.490   .     S
C1931  H1975   1.083   .     S
C1931  O1989   1.221   .     D
C1932  O1992   1.295   .     A
C1932  O1991   1.297   .     A
C1933  O1990   1.219   .     D
C1933  H1979   1.084   .     S
C1934  H1955   1.105   .     S
C1934  H1954   1.090   .     S
C1934  C1935   1.541   .     S
C1935  C1936   1.526   .     S
C1935  H1984   1.109   .     S
C1935  H1983   1.110   .     S
C1936  H1980   1.108   .     S
C1936  H1981   1.111   .     S
C1936  H2062   1.111   .     S
C1937  H1962   1.111   .     S
C1937  C1938   1.538   .     S
C1937  H1961   1.098   .     S
C1938  C1939   1.527   .     S
C1938  H1960   1.103   .     S
C1938  H1959   1.108   .     S
C1939  H1956   1.110   .     S
C1939  H1957   1.111   .     S
C1939  H1958   1.110   .     S
C1940  H1970   1.088   .     S
C1940  H1969   1.105   .     S
C1940  C1941   1.535   .     S
C1941  H1968   1.109   .     S
C1941  H1967   1.110   .     S
C1942  H1963   1.111   .     S
C1942  H1966   1.110   .     S
C1942  C501    1.527   1_556 S
C1942  H525    1.110   1_556 S
C1943  C1948   1.362   .     S
C1943  O1997   1.296   .     A
C1943  O1994   1.291   .     A
C1944  C1945   1.540   .     S
C1944  H1977   1.083   .     S
C1944  H1978   1.107   .     S
C1945  H1976   1.110   .     S
C1945  H1974   1.107   .     S
C1945  C506    1.527   1_556 S
C1946  H1972   1.111   .     S
C1946  H1973   1.111   .     S
C1947  C1949   1.363   .     S
C1947  O1995   1.291   .     A
C1947  O1996   1.295   .     A
C1949  C508    1.163   1_556 S
C1950  C2112   1.397   1_455 S
C1951  C2002   1.386   .     S
C1952  C2030   1.397   .     S
H1971  C506    1.109   1_556 S
H1982  C2096   1.111   1_455 S
N1985  Zn1999  2.055   .     S
N1986  Zn2000  2.055   .     S
O1987  Zn1999  1.996   .     S
O1991  Zn2000  1.996   .     S
O1992  Zn1999  1.971   .     S
O1993  Zn2000  1.971   .     S
O1994  Zn1999  1.935   .     S
O1995  Zn2000  1.935   .     S
O1996  Zn1999  1.945   .     S
O1997  Zn2000  1.945   .     S
C2001  O2067   1.297   .     A
C2001  C2004   1.413   .     S
C2001  O2073   1.296   .     A
C2002  C2013   1.486   .     S
C2002  C2004   1.406   .     A
C2003  C2012   1.412   .     S
C2003  C2031   1.407   .     A
C2003  C2032   1.408   .     A
C2004  C2030   1.409   .     A
C2005  C2014   1.521   .     S
C2005  N2066   1.384   .     A
C2006  N2065   1.386   .     A
C2006  C2017   1.521   .     S
C2006  C1527   1.433   1_565 S
C2007  N2066   1.376   .     A
C2007  C2020   1.520   .     S
C2008  N2065   1.384   .     A
C2008  C2024   1.523   .     S
C2008  C1525   1.445   1_565 S
C2009  H2033   1.081   .     S
C2009  C2030   1.500   .     S
C2009  O2078   1.220   .     D
C2010  C2031   1.493   .     S
C2010  H2044   1.084   .     S
C2010  O2068   1.220   .     D
C2011  C2032   1.490   .     S
C2011  H2055   1.083   .     S
C2011  O2069   1.221   .     D
C2012  O2072   1.295   .     A
C2012  O2071   1.297   .     A
C2013  O2070   1.219   .     D
C2013  H2059   1.084   .     S
C2014  H2035   1.105   .     S
C2014  H2034   1.090   .     S
C2014  C2015   1.541   .     S
C2015  C2016   1.526   .     S
C2015  H2064   1.109   .     S
C2015  H2063   1.110   .     S
C2016  H2060   1.108   .     S
C2016  H2061   1.111   .     S
C2016  H2142   1.111   .     S
C2017  H2042   1.111   .     S
C2017  C2018   1.538   .     S
C2017  H2041   1.098   .     S
C2018  C2019   1.527   .     S
C2018  H2040   1.103   .     S
C2018  H2039   1.108   .     S
C2019  H2036   1.110   .     S
C2019  H2037   1.111   .     S
C2019  H2038   1.110   .     S
C2020  H2050   1.088   .     S
C2020  H2049   1.105   .     S
C2020  C2021   1.535   .     S
C2021  H2048   1.109   .     S
C2021  H2047   1.110   .     S
C2022  H2043   1.111   .     S
C2022  H2046   1.110   .     S
C2022  C581    1.527   1_556 S
C2022  H605    1.110   1_556 S
C2023  C2028   1.362   .     S
C2023  O2077   1.296   .     A
C2023  O2074   1.291   .     A
C2024  C2025   1.540   .     S
C2024  H2057   1.083   .     S
C2024  H2058   1.107   .     S
C2025  H2056   1.110   .     S
C2025  H2054   1.107   .     S
C2025  C586    1.527   1_556 S
C2026  H2052   1.111   .     S
C2026  H2053   1.111   .     S
C2027  C2029   1.363   .     S
C2027  O2075   1.291   .     A
C2027  O2076   1.295   .     A
C2029  C588    1.163   1_556 S
C2031  C2082   1.386   .     S
C2032  C2110   1.397   .     S
H2051  C586    1.109   1_556 S
N2065  Zn2079  2.055   .     S
N2066  Zn2080  2.055   .     S
O2067  Zn2079  1.996   .     S
O2071  Zn2080  1.996   .     S
O2072  Zn2079  1.971   .     S
O2073  Zn2080  1.971   .     S
O2074  Zn2079  1.935   .     S
O2075  Zn2080  1.935   .     S
O2076  Zn2079  1.945   .     S
O2077  Zn2080  1.945   .     S
C2081  O2147   1.297   .     A
C2081  C2084   1.413   .     S
C2081  O2153   1.296   .     A
C2082  C2093   1.486   .     S
C2082  C2084   1.406   .     A
C2083  C2092   1.412   .     S
C2083  C2111   1.407   .     A
C2083  C2112   1.408   .     A
C2084  C2110   1.409   .     A
C2085  C2094   1.521   .     S
C2085  N2146   1.384   .     A
C2086  N2145   1.386   .     A
C2086  C2097   1.521   .     S
C2086  C1607   1.433   1_565 S
C2087  N2146   1.376   .     A
C2087  C2100   1.520   .     S
C2088  N2145   1.384   .     A
C2088  C2104   1.523   .     S
C2088  C1605   1.445   1_565 S
C2089  H2113   1.081   .     S
C2089  C2110   1.500   .     S
C2089  O2158   1.220   .     D
C2090  C2111   1.493   .     S
C2090  H2124   1.084   .     S
C2090  O2148   1.220   .     D
C2091  C2112   1.490   .     S
C2091  H2135   1.083   .     S
C2091  O2149   1.221   .     D
C2092  O2152   1.295   .     A
C2092  O2151   1.297   .     A
C2093  O2150   1.219   .     D
C2093  H2139   1.084   .     S
C2094  H2115   1.105   .     S
C2094  H2114   1.090   .     S
C2094  C2095   1.541   .     S
C2095  C2096   1.526   .     S
C2095  H2144   1.109   .     S
C2095  H2143   1.110   .     S
C2096  H2140   1.108   .     S
C2096  H2141   1.111   .     S
C2096  H1982   1.111   1_655 S
C2097  H2122   1.111   .     S
C2097  C2098   1.538   .     S
C2097  H2121   1.098   .     S
C2098  C2099   1.527   .     S
C2098  H2120   1.103   .     S
C2098  H2119   1.108   .     S
C2099  H2116   1.110   .     S
C2099  H2117   1.111   .     S
C2099  H2118   1.110   .     S
C2100  H2130   1.088   .     S
C2100  H2129   1.105   .     S
C2100  C2101   1.535   .     S
C2101  H2128   1.109   .     S
C2101  H2127   1.110   .     S
C2102  H2123   1.111   .     S
C2102  H2126   1.110   .     S
C2102  C661    1.527   1_556 S
C2102  H685    1.110   1_556 S
C2103  C2108   1.362   .     S
C2103  O2157   1.296   .     A
C2103  O2154   1.291   .     A
C2104  C2105   1.540   .     S
C2104  H2137   1.083   .     S
C2104  H2138   1.107   .     S
C2105  H2136   1.110   .     S
C2105  H2134   1.107   .     S
C2105  C666    1.527   1_556 S
C2106  H2132   1.111   .     S
C2106  H2133   1.111   .     S
C2107  C2109   1.363   .     S
C2107  O2155   1.291   .     A
C2107  O2156   1.295   .     A
C2109  C668    1.163   1_556 S
C2111  C1922   1.386   1_655 S
C2112  C1950   1.397   1_655 S
H2131  C666    1.109   1_556 S
N2145  Zn2159  2.055   .     S
N2146  Zn2160  2.055   .     S
O2147  Zn2159  1.996   .     S
O2151  Zn2160  1.996   .     S
O2152  Zn2159  1.971   .     S
O2153  Zn2160  1.971   .     S
O2154  Zn2159  1.935   .     S
O2155  Zn2160  1.935   .     S
O2156  Zn2159  1.945   .     S
O2157  Zn2160  1.945   .     S
