data_str_m1_o10_o16_pcu_sym.234
_audit_creation_date              2020-01-03
_audit_creation_method            'Materials Studio'
_symmetry_space_group_name_H-M    'P1'
_symmetry_Int_Tables_number       1
_symmetry_cell_setting            triclinic
loop_
_symmetry_equiv_pos_as_xyz
  x,y,z
_cell_length_a                    32.6682
_cell_length_b                    32.6334
_cell_length_c                    30.8967
_cell_angle_alpha                 96.1357
_cell_angle_beta                  74.9912
_cell_angle_gamma                 98.4884
loop_
_atom_site_label
_atom_site_type_symbol
_atom_site_fract_x
_atom_site_fract_y
_atom_site_fract_z
_atom_site_U_iso_or_equiv
_atom_site_adp_type
_atom_site_occupancy
C1     C     0.05303   0.15929   0.25983   0.00000  Uiso   1.00
C2     C     0.16953   0.15565   0.05800   0.00000  Uiso   1.00
C3     C     0.23614   0.13130   0.05742   0.00000  Uiso   1.00
C4     C     0.28071   0.17408   0.24062   0.00000  Uiso   1.00
C5     C     0.14364   0.19536   0.42060   0.00000  Uiso   1.00
C6     C     0.32599   0.17907   0.24011   0.00000  Uiso   1.00
C7     C     0.00786   0.15432   0.26328   0.00000  Uiso   1.00
C8     C     0.18044   0.32248   0.23687   0.00000  Uiso   1.00
C9     C     0.15162   0.01240   0.26423   0.00000  Uiso   1.00
C10    C     0.15640   0.05609   0.26003   0.00000  Uiso   1.00
C11    C     0.17633   0.27782   0.24007   0.00000  Uiso   1.00
C12    C     0.10263   0.22373   0.49225   0.00000  Uiso   1.00
C13    C     0.18550   0.14825   0.12936   0.00000  Uiso   1.00
C14    C     0.14947   0.18554   0.37114   0.00000  Uiso   1.00
C15    C     0.25023   0.13602   0.01155   0.00000  Uiso   1.00
C16    C     0.19568   0.14150   0.08076   0.00000  Uiso   1.00
C17    C     0.10806   0.21507   0.44623   0.00000  Uiso   1.00
C18    C     0.00044   0.08317   0.28890   0.00000  Uiso   1.00
C19    C     0.21058   0.00445   0.15928   0.00000  Uiso   1.00
C20    C     0.12931   0.21067   0.01495   0.00000  Uiso   1.00
C21    C     0.16180   0.18633   0.49137   0.00000  Uiso   1.00
C22    C     0.17279   0.18445   0.44363   0.00000  Uiso   1.00
C23    C     0.18544   0.16581   0.01317   0.00000  Uiso   1.00
C24    C     0.22556   0.15366   0.48901   0.00000  Uiso   1.00
C25    C     0.24036   0.16011   0.44317   0.00000  Uiso   1.00
C26    C     0.21390   0.17439   0.42080   0.00000  Uiso   1.00
H27    H     0.28109   0.12683   0.49441   0.00000  Uiso   1.00
H28    H     0.18512   0.02299   0.15776   0.00000  Uiso   1.00
H29    H     0.20199   0.30488   0.14803   0.00000  Uiso   1.00
H30    H     0.24087   0.01663   0.13595   0.00000  Uiso   1.00
H31    H     0.13729   0.15994   0.07620   0.00000  Uiso   1.00
H32    H     0.07775   0.24206   0.01066   0.00000  Uiso   1.00
H33    H     0.22743   0.17990   0.38589   0.00000  Uiso   1.00
H34    H     0.29358   0.12837   0.31505   0.00000  Uiso   1.00
H35    H     0.30841   0.05899   0.30495   0.00000  Uiso   1.00
H36    H     0.02399   0.09069   0.30975   0.00000  Uiso   1.00
H37    H     0.01599   0.07028   0.25486   0.00000  Uiso   1.00
H38    H     0.22956   0.03672   0.21397   0.00000  Uiso   1.00
I39    I     0.27756   0.10918   0.08998   0.00000  Uiso   1.00
I40    I     0.09420   0.32604   0.31291   0.00000  Uiso   1.00
I41    I     0.30244   0.14891   0.40529   0.00000  Uiso   1.00
I42    I     0.06132   0.23754   0.42089   0.00000  Uiso   1.00
I43    I     0.12627   0.24231   0.07980   0.00000  Uiso   1.00
I44    I     0.03303   0.22699   0.20171   0.00000  Uiso   1.00
N45    N     0.31477   0.11980   0.28571   0.00000  Uiso   1.00
N46    N     0.21628   0.00758   0.20446   0.00000  Uiso   1.00
O47    O     0.16667   0.16667   0.25000   0.00000  Uiso   1.00
O48    O     0.15451   0.12637   0.15459   0.00000  Uiso   1.00
O49    O     0.12940   0.20391   0.34968   0.00000  Uiso   1.00
O50    O     0.20824   0.17759   0.14606   0.00000  Uiso   1.00
O51    O     0.17451   0.15880   0.34968   0.00000  Uiso   1.00
O52    O     0.17930   0.08019   0.28214   0.00000  Uiso   1.00
O53    O     0.14632   0.26085   0.27014   0.00000  Uiso   1.00
O54    O     0.07412   0.13291   0.23413   0.00000  Uiso   1.00
O55    O     0.26693   0.19272   0.21361   0.00000  Uiso   1.00
O56    O     0.07071   0.18878   0.28213   0.00000  Uiso   1.00
O57    O     0.25491   0.15226   0.27014   0.00000  Uiso   1.00
O58    O     0.13760   0.06944   0.23413   0.00000  Uiso   1.00
O59    O     0.20345   0.25620   0.21361   0.00000  Uiso   1.00
Zn60   Zn    0.19338   0.13994   0.28734   0.00000  Uiso   1.00
Zn61   Zn    0.13379   0.12458   0.21876   0.00000  Uiso   1.00
Zn62   Zn    0.21056   0.19775   0.20657   0.00000  Uiso   1.00
Zn63   Zn    0.12893   0.20439   0.28734   0.00000  Uiso   1.00
C64    C     0.38636   0.15929   0.25983   0.00000  Uiso   1.00
C65    C     0.50287   0.15565   0.05800   0.00000  Uiso   1.00
C66    C     0.56947   0.13130   0.05742   0.00000  Uiso   1.00
C67    C     0.61404   0.17408   0.24062   0.00000  Uiso   1.00
C68    C     0.47697   0.19536   0.42060   0.00000  Uiso   1.00
C69    C     0.65932   0.17907   0.24011   0.00000  Uiso   1.00
C70    C     0.34119   0.15432   0.26328   0.00000  Uiso   1.00
C71    C     0.51378   0.32248   0.23687   0.00000  Uiso   1.00
C72    C     0.48496   0.01240   0.26423   0.00000  Uiso   1.00
C73    C     0.48974   0.05609   0.26003   0.00000  Uiso   1.00
C74    C     0.50967   0.27782   0.24007   0.00000  Uiso   1.00
C75    C     0.43596   0.22373   0.49225   0.00000  Uiso   1.00
C76    C     0.51883   0.14825   0.12936   0.00000  Uiso   1.00
C77    C     0.48281   0.18554   0.37114   0.00000  Uiso   1.00
C78    C     0.58356   0.13602   0.01155   0.00000  Uiso   1.00
C79    C     0.52901   0.14150   0.08076   0.00000  Uiso   1.00
C80    C     0.44139   0.21507   0.44623   0.00000  Uiso   1.00
C81    C     0.33377   0.08317   0.28890   0.00000  Uiso   1.00
C82    C     0.54392   0.00445   0.15928   0.00000  Uiso   1.00
C83    C     0.46265   0.21067   0.01495   0.00000  Uiso   1.00
C84    C     0.49514   0.18633   0.49137   0.00000  Uiso   1.00
C85    C     0.50612   0.18445   0.44363   0.00000  Uiso   1.00
C86    C     0.51878   0.16581   0.01317   0.00000  Uiso   1.00
C87    C     0.55889   0.15366   0.48901   0.00000  Uiso   1.00
C88    C     0.57369   0.16011   0.44317   0.00000  Uiso   1.00
C89    C     0.54723   0.17439   0.42080   0.00000  Uiso   1.00
H90    H     0.61442   0.12683   0.49441   0.00000  Uiso   1.00
H91    H     0.51845   0.02299   0.15776   0.00000  Uiso   1.00
H92    H     0.53532   0.30488   0.14803   0.00000  Uiso   1.00
H93    H     0.57421   0.01663   0.13595   0.00000  Uiso   1.00
H94    H     0.47063   0.15994   0.07620   0.00000  Uiso   1.00
H95    H     0.41109   0.24206   0.01066   0.00000  Uiso   1.00
H96    H     0.56076   0.17990   0.38589   0.00000  Uiso   1.00
H97    H     0.62691   0.12837   0.31505   0.00000  Uiso   1.00
H98    H     0.64174   0.05899   0.30495   0.00000  Uiso   1.00
H99    H     0.35732   0.09069   0.30975   0.00000  Uiso   1.00
H100   H     0.34933   0.07028   0.25486   0.00000  Uiso   1.00
H101   H     0.56289   0.03672   0.21397   0.00000  Uiso   1.00
I102   I     0.61089   0.10918   0.08998   0.00000  Uiso   1.00
I103   I     0.42753   0.32604   0.31291   0.00000  Uiso   1.00
I104   I     0.63577   0.14891   0.40529   0.00000  Uiso   1.00
I105   I     0.39465   0.23754   0.42089   0.00000  Uiso   1.00
I106   I     0.45960   0.24231   0.07980   0.00000  Uiso   1.00
I107   I     0.36637   0.22699   0.20171   0.00000  Uiso   1.00
N108   N     0.64810   0.11980   0.28571   0.00000  Uiso   1.00
N109   N     0.54962   0.00758   0.20446   0.00000  Uiso   1.00
O110   O     0.50000   0.16667   0.25000   0.00000  Uiso   1.00
O111   O     0.48784   0.12637   0.15459   0.00000  Uiso   1.00
O112   O     0.46274   0.20391   0.34968   0.00000  Uiso   1.00
O113   O     0.54157   0.17759   0.14606   0.00000  Uiso   1.00
O114   O     0.50785   0.15880   0.34968   0.00000  Uiso   1.00
O115   O     0.51264   0.08019   0.28214   0.00000  Uiso   1.00
O116   O     0.47965   0.26085   0.27014   0.00000  Uiso   1.00
O117   O     0.40745   0.13291   0.23413   0.00000  Uiso   1.00
O118   O     0.60026   0.19272   0.21361   0.00000  Uiso   1.00
O119   O     0.40405   0.18878   0.28213   0.00000  Uiso   1.00
O120   O     0.58824   0.15226   0.27014   0.00000  Uiso   1.00
O121   O     0.47093   0.06944   0.23413   0.00000  Uiso   1.00
O122   O     0.53678   0.25620   0.21361   0.00000  Uiso   1.00
Zn123  Zn    0.52672   0.13994   0.28734   0.00000  Uiso   1.00
Zn124  Zn    0.46713   0.12458   0.21876   0.00000  Uiso   1.00
Zn125  Zn    0.54389   0.19775   0.20657   0.00000  Uiso   1.00
Zn126  Zn    0.46226   0.20439   0.28734   0.00000  Uiso   1.00
C127   C     0.71970   0.15929   0.25983   0.00000  Uiso   1.00
C128   C     0.83620   0.15565   0.05800   0.00000  Uiso   1.00
C129   C     0.90280   0.13130   0.05742   0.00000  Uiso   1.00
C130   C     0.94738   0.17408   0.24062   0.00000  Uiso   1.00
C131   C     0.81030   0.19536   0.42060   0.00000  Uiso   1.00
C132   C     0.99266   0.17907   0.24011   0.00000  Uiso   1.00
C133   C     0.67452   0.15432   0.26328   0.00000  Uiso   1.00
C134   C     0.84711   0.32248   0.23687   0.00000  Uiso   1.00
C135   C     0.81829   0.01240   0.26423   0.00000  Uiso   1.00
C136   C     0.82307   0.05609   0.26003   0.00000  Uiso   1.00
C137   C     0.84300   0.27782   0.24007   0.00000  Uiso   1.00
C138   C     0.76929   0.22373   0.49225   0.00000  Uiso   1.00
C139   C     0.85216   0.14825   0.12936   0.00000  Uiso   1.00
C140   C     0.81614   0.18554   0.37114   0.00000  Uiso   1.00
C141   C     0.91690   0.13602   0.01155   0.00000  Uiso   1.00
C142   C     0.86235   0.14150   0.08076   0.00000  Uiso   1.00
C143   C     0.77473   0.21507   0.44623   0.00000  Uiso   1.00
C144   C     0.66710   0.08317   0.28890   0.00000  Uiso   1.00
C145   C     0.87725   0.00445   0.15928   0.00000  Uiso   1.00
C146   C     0.79598   0.21067   0.01495   0.00000  Uiso   1.00
C147   C     0.82847   0.18633   0.49137   0.00000  Uiso   1.00
C148   C     0.83946   0.18445   0.44363   0.00000  Uiso   1.00
C149   C     0.85211   0.16581   0.01317   0.00000  Uiso   1.00
C150   C     0.89223   0.15366   0.48901   0.00000  Uiso   1.00
C151   C     0.90703   0.16011   0.44317   0.00000  Uiso   1.00
C152   C     0.88056   0.17439   0.42080   0.00000  Uiso   1.00
H153   H     0.94776   0.12683   0.49441   0.00000  Uiso   1.00
H154   H     0.85179   0.02299   0.15776   0.00000  Uiso   1.00
H155   H     0.86865   0.30488   0.14803   0.00000  Uiso   1.00
H156   H     0.90754   0.01663   0.13595   0.00000  Uiso   1.00
H157   H     0.80396   0.15994   0.07620   0.00000  Uiso   1.00
H158   H     0.74442   0.24206   0.01066   0.00000  Uiso   1.00
H159   H     0.89409   0.17990   0.38589   0.00000  Uiso   1.00
H160   H     0.96024   0.12837   0.31505   0.00000  Uiso   1.00
H161   H     0.97508   0.05899   0.30495   0.00000  Uiso   1.00
H162   H     0.69066   0.09069   0.30975   0.00000  Uiso   1.00
H163   H     0.68266   0.07028   0.25486   0.00000  Uiso   1.00
H164   H     0.89622   0.03672   0.21397   0.00000  Uiso   1.00
I165   I     0.94423   0.10918   0.08998   0.00000  Uiso   1.00
I166   I     0.76086   0.32604   0.31291   0.00000  Uiso   1.00
I167   I     0.96910   0.14891   0.40529   0.00000  Uiso   1.00
I168   I     0.72798   0.23754   0.42089   0.00000  Uiso   1.00
I169   I     0.79294   0.24231   0.07980   0.00000  Uiso   1.00
I170   I     0.69970   0.22699   0.20171   0.00000  Uiso   1.00
N171   N     0.98144   0.11980   0.28571   0.00000  Uiso   1.00
N172   N     0.88295   0.00758   0.20446   0.00000  Uiso   1.00
O173   O     0.83333   0.16667   0.25000   0.00000  Uiso   1.00
O174   O     0.82118   0.12637   0.15459   0.00000  Uiso   1.00
O175   O     0.79607   0.20391   0.34968   0.00000  Uiso   1.00
O176   O     0.87491   0.17759   0.14606   0.00000  Uiso   1.00
O177   O     0.84118   0.15880   0.34968   0.00000  Uiso   1.00
O178   O     0.84597   0.08019   0.28214   0.00000  Uiso   1.00
O179   O     0.81298   0.26085   0.27014   0.00000  Uiso   1.00
O180   O     0.74078   0.13291   0.23413   0.00000  Uiso   1.00
O181   O     0.93360   0.19272   0.21361   0.00000  Uiso   1.00
O182   O     0.73738   0.18878   0.28213   0.00000  Uiso   1.00
O183   O     0.92158   0.15226   0.27014   0.00000  Uiso   1.00
O184   O     0.80426   0.06944   0.23413   0.00000  Uiso   1.00
O185   O     0.87012   0.25620   0.21361   0.00000  Uiso   1.00
Zn186  Zn    0.86005   0.13994   0.28734   0.00000  Uiso   1.00
Zn187  Zn    0.80046   0.12458   0.21876   0.00000  Uiso   1.00
Zn188  Zn    0.87723   0.19775   0.20657   0.00000  Uiso   1.00
Zn189  Zn    0.79560   0.20439   0.28734   0.00000  Uiso   1.00
C190   C     0.05303   0.49262   0.25983   0.00000  Uiso   1.00
C191   C     0.16953   0.48898   0.05800   0.00000  Uiso   1.00
C192   C     0.23614   0.46463   0.05742   0.00000  Uiso   1.00
C193   C     0.28071   0.50741   0.24062   0.00000  Uiso   1.00
C194   C     0.14364   0.52870   0.42060   0.00000  Uiso   1.00
C195   C     0.32599   0.51241   0.24011   0.00000  Uiso   1.00
C196   C     0.00786   0.48765   0.26328   0.00000  Uiso   1.00
C197   C     0.18044   0.65582   0.23687   0.00000  Uiso   1.00
C198   C     0.15162   0.34574   0.26423   0.00000  Uiso   1.00
C199   C     0.15640   0.38942   0.26003   0.00000  Uiso   1.00
C200   C     0.17633   0.61116   0.24007   0.00000  Uiso   1.00
C201   C     0.10263   0.55707   0.49225   0.00000  Uiso   1.00
C202   C     0.18550   0.48159   0.12936   0.00000  Uiso   1.00
C203   C     0.14947   0.51887   0.37114   0.00000  Uiso   1.00
C204   C     0.25023   0.46935   0.01155   0.00000  Uiso   1.00
C205   C     0.19568   0.47483   0.08076   0.00000  Uiso   1.00
C206   C     0.10806   0.54841   0.44623   0.00000  Uiso   1.00
C207   C     0.00044   0.41651   0.28890   0.00000  Uiso   1.00
C208   C     0.21058   0.33779   0.15928   0.00000  Uiso   1.00
C209   C     0.12931   0.54400   0.01495   0.00000  Uiso   1.00
C210   C     0.16180   0.51966   0.49137   0.00000  Uiso   1.00
C211   C     0.17279   0.51779   0.44363   0.00000  Uiso   1.00
C212   C     0.18544   0.49914   0.01317   0.00000  Uiso   1.00
C213   C     0.22556   0.48700   0.48901   0.00000  Uiso   1.00
C214   C     0.24036   0.49344   0.44317   0.00000  Uiso   1.00
C215   C     0.21390   0.50773   0.42080   0.00000  Uiso   1.00
H216   H     0.28109   0.46016   0.49441   0.00000  Uiso   1.00
H217   H     0.18512   0.35632   0.15776   0.00000  Uiso   1.00
H218   H     0.20199   0.63822   0.14803   0.00000  Uiso   1.00
H219   H     0.24087   0.34996   0.13595   0.00000  Uiso   1.00
H220   H     0.13729   0.49328   0.07620   0.00000  Uiso   1.00
H221   H     0.07775   0.57539   0.01066   0.00000  Uiso   1.00
H222   H     0.22743   0.51323   0.38589   0.00000  Uiso   1.00
H223   H     0.29358   0.46170   0.31505   0.00000  Uiso   1.00
H224   H     0.30841   0.39232   0.30495   0.00000  Uiso   1.00
H225   H     0.02399   0.42403   0.30975   0.00000  Uiso   1.00
H226   H     0.01599   0.40361   0.25486   0.00000  Uiso   1.00
H227   H     0.22956   0.37005   0.21397   0.00000  Uiso   1.00
I228   I     0.27756   0.44252   0.08998   0.00000  Uiso   1.00
I229   I     0.09420   0.65937   0.31291   0.00000  Uiso   1.00
I230   I     0.30244   0.48224   0.40529   0.00000  Uiso   1.00
I231   I     0.06132   0.57087   0.42089   0.00000  Uiso   1.00
I232   I     0.12627   0.57564   0.07980   0.00000  Uiso   1.00
I233   I     0.03303   0.56032   0.20171   0.00000  Uiso   1.00
N234   N     0.31477   0.45313   0.28571   0.00000  Uiso   1.00
N235   N     0.21628   0.34091   0.20446   0.00000  Uiso   1.00
O236   O     0.16667   0.50000   0.25000   0.00000  Uiso   1.00
O237   O     0.15451   0.45970   0.15459   0.00000  Uiso   1.00
O238   O     0.12940   0.53724   0.34968   0.00000  Uiso   1.00
O239   O     0.20824   0.51092   0.14606   0.00000  Uiso   1.00
O240   O     0.17451   0.49213   0.34968   0.00000  Uiso   1.00
O241   O     0.17930   0.41352   0.28214   0.00000  Uiso   1.00
O242   O     0.14632   0.59418   0.27014   0.00000  Uiso   1.00
O243   O     0.07412   0.46625   0.23413   0.00000  Uiso   1.00
O244   O     0.26693   0.52605   0.21361   0.00000  Uiso   1.00
O245   O     0.07071   0.52211   0.28213   0.00000  Uiso   1.00
O246   O     0.25491   0.48559   0.27014   0.00000  Uiso   1.00
O247   O     0.13760   0.40277   0.23413   0.00000  Uiso   1.00
O248   O     0.20345   0.58953   0.21361   0.00000  Uiso   1.00
Zn249  Zn    0.19338   0.47327   0.28734   0.00000  Uiso   1.00
Zn250  Zn    0.13379   0.45791   0.21876   0.00000  Uiso   1.00
Zn251  Zn    0.21056   0.53109   0.20657   0.00000  Uiso   1.00
Zn252  Zn    0.12893   0.53773   0.28734   0.00000  Uiso   1.00
C253   C     0.38636   0.49262   0.25983   0.00000  Uiso   1.00
C254   C     0.50287   0.48898   0.05800   0.00000  Uiso   1.00
C255   C     0.56947   0.46463   0.05742   0.00000  Uiso   1.00
C256   C     0.61404   0.50741   0.24062   0.00000  Uiso   1.00
C257   C     0.47697   0.52870   0.42060   0.00000  Uiso   1.00
C258   C     0.65932   0.51241   0.24011   0.00000  Uiso   1.00
C259   C     0.34119   0.48765   0.26328   0.00000  Uiso   1.00
C260   C     0.51378   0.65582   0.23687   0.00000  Uiso   1.00
C261   C     0.48496   0.34574   0.26423   0.00000  Uiso   1.00
C262   C     0.48974   0.38942   0.26003   0.00000  Uiso   1.00
C263   C     0.50967   0.61116   0.24007   0.00000  Uiso   1.00
C264   C     0.43596   0.55707   0.49225   0.00000  Uiso   1.00
C265   C     0.51883   0.48159   0.12936   0.00000  Uiso   1.00
C266   C     0.48281   0.51887   0.37114   0.00000  Uiso   1.00
C267   C     0.58356   0.46935   0.01155   0.00000  Uiso   1.00
C268   C     0.52901   0.47483   0.08076   0.00000  Uiso   1.00
C269   C     0.44139   0.54841   0.44623   0.00000  Uiso   1.00
C270   C     0.33377   0.41651   0.28890   0.00000  Uiso   1.00
C271   C     0.54392   0.33779   0.15928   0.00000  Uiso   1.00
C272   C     0.46265   0.54400   0.01495   0.00000  Uiso   1.00
C273   C     0.49514   0.51966   0.49137   0.00000  Uiso   1.00
C274   C     0.50612   0.51779   0.44363   0.00000  Uiso   1.00
C275   C     0.51878   0.49914   0.01317   0.00000  Uiso   1.00
C276   C     0.55889   0.48700   0.48901   0.00000  Uiso   1.00
C277   C     0.57369   0.49344   0.44317   0.00000  Uiso   1.00
C278   C     0.54723   0.50773   0.42080   0.00000  Uiso   1.00
H279   H     0.61442   0.46016   0.49441   0.00000  Uiso   1.00
H280   H     0.51845   0.35632   0.15776   0.00000  Uiso   1.00
H281   H     0.53532   0.63822   0.14803   0.00000  Uiso   1.00
H282   H     0.57421   0.34996   0.13595   0.00000  Uiso   1.00
H283   H     0.47063   0.49328   0.07620   0.00000  Uiso   1.00
H284   H     0.41109   0.57539   0.01066   0.00000  Uiso   1.00
H285   H     0.56076   0.51323   0.38589   0.00000  Uiso   1.00
H286   H     0.62691   0.46170   0.31505   0.00000  Uiso   1.00
H287   H     0.64174   0.39232   0.30495   0.00000  Uiso   1.00
H288   H     0.35732   0.42403   0.30975   0.00000  Uiso   1.00
H289   H     0.34933   0.40361   0.25486   0.00000  Uiso   1.00
H290   H     0.56289   0.37005   0.21397   0.00000  Uiso   1.00
I291   I     0.61089   0.44252   0.08998   0.00000  Uiso   1.00
I292   I     0.42753   0.65937   0.31291   0.00000  Uiso   1.00
I293   I     0.63577   0.48224   0.40529   0.00000  Uiso   1.00
I294   I     0.39465   0.57087   0.42089   0.00000  Uiso   1.00
I295   I     0.45960   0.57564   0.07980   0.00000  Uiso   1.00
I296   I     0.36637   0.56032   0.20171   0.00000  Uiso   1.00
N297   N     0.64810   0.45313   0.28571   0.00000  Uiso   1.00
N298   N     0.54962   0.34091   0.20446   0.00000  Uiso   1.00
O299   O     0.50000   0.50000   0.25000   0.00000  Uiso   1.00
O300   O     0.48784   0.45970   0.15459   0.00000  Uiso   1.00
O301   O     0.46274   0.53724   0.34968   0.00000  Uiso   1.00
O302   O     0.54157   0.51092   0.14606   0.00000  Uiso   1.00
O303   O     0.50785   0.49213   0.34968   0.00000  Uiso   1.00
O304   O     0.51264   0.41352   0.28214   0.00000  Uiso   1.00
O305   O     0.47965   0.59418   0.27014   0.00000  Uiso   1.00
O306   O     0.40745   0.46625   0.23413   0.00000  Uiso   1.00
O307   O     0.60026   0.52605   0.21361   0.00000  Uiso   1.00
O308   O     0.40405   0.52211   0.28213   0.00000  Uiso   1.00
O309   O     0.58824   0.48559   0.27014   0.00000  Uiso   1.00
O310   O     0.47093   0.40277   0.23413   0.00000  Uiso   1.00
O311   O     0.53678   0.58953   0.21361   0.00000  Uiso   1.00
Zn312  Zn    0.52672   0.47327   0.28734   0.00000  Uiso   1.00
Zn313  Zn    0.46713   0.45791   0.21876   0.00000  Uiso   1.00
Zn314  Zn    0.54389   0.53109   0.20657   0.00000  Uiso   1.00
Zn315  Zn    0.46226   0.53773   0.28734   0.00000  Uiso   1.00
C316   C     0.71970   0.49262   0.25983   0.00000  Uiso   1.00
C317   C     0.83620   0.48898   0.05800   0.00000  Uiso   1.00
C318   C     0.90280   0.46463   0.05742   0.00000  Uiso   1.00
C319   C     0.94738   0.50741   0.24062   0.00000  Uiso   1.00
C320   C     0.81030   0.52870   0.42060   0.00000  Uiso   1.00
C321   C     0.99266   0.51241   0.24011   0.00000  Uiso   1.00
C322   C     0.67452   0.48765   0.26328   0.00000  Uiso   1.00
C323   C     0.84711   0.65582   0.23687   0.00000  Uiso   1.00
C324   C     0.81829   0.34574   0.26423   0.00000  Uiso   1.00
C325   C     0.82307   0.38942   0.26003   0.00000  Uiso   1.00
C326   C     0.84300   0.61116   0.24007   0.00000  Uiso   1.00
C327   C     0.76929   0.55707   0.49225   0.00000  Uiso   1.00
C328   C     0.85216   0.48159   0.12936   0.00000  Uiso   1.00
C329   C     0.81614   0.51887   0.37114   0.00000  Uiso   1.00
C330   C     0.91690   0.46935   0.01155   0.00000  Uiso   1.00
C331   C     0.86235   0.47483   0.08076   0.00000  Uiso   1.00
C332   C     0.77473   0.54841   0.44623   0.00000  Uiso   1.00
C333   C     0.66710   0.41651   0.28890   0.00000  Uiso   1.00
C334   C     0.87725   0.33779   0.15928   0.00000  Uiso   1.00
C335   C     0.79598   0.54400   0.01495   0.00000  Uiso   1.00
C336   C     0.82847   0.51966   0.49137   0.00000  Uiso   1.00
C337   C     0.83946   0.51779   0.44363   0.00000  Uiso   1.00
C338   C     0.85211   0.49914   0.01317   0.00000  Uiso   1.00
C339   C     0.89223   0.48700   0.48901   0.00000  Uiso   1.00
C340   C     0.90703   0.49344   0.44317   0.00000  Uiso   1.00
C341   C     0.88056   0.50773   0.42080   0.00000  Uiso   1.00
H342   H     0.94776   0.46016   0.49441   0.00000  Uiso   1.00
H343   H     0.85179   0.35632   0.15776   0.00000  Uiso   1.00
H344   H     0.86865   0.63822   0.14803   0.00000  Uiso   1.00
H345   H     0.90754   0.34996   0.13595   0.00000  Uiso   1.00
H346   H     0.80396   0.49328   0.07620   0.00000  Uiso   1.00
H347   H     0.74442   0.57539   0.01066   0.00000  Uiso   1.00
H348   H     0.89409   0.51323   0.38589   0.00000  Uiso   1.00
H349   H     0.96024   0.46170   0.31505   0.00000  Uiso   1.00
H350   H     0.97508   0.39232   0.30495   0.00000  Uiso   1.00
H351   H     0.69066   0.42403   0.30975   0.00000  Uiso   1.00
H352   H     0.68266   0.40361   0.25486   0.00000  Uiso   1.00
H353   H     0.89622   0.37005   0.21397   0.00000  Uiso   1.00
I354   I     0.94423   0.44252   0.08998   0.00000  Uiso   1.00
I355   I     0.76086   0.65937   0.31291   0.00000  Uiso   1.00
I356   I     0.96910   0.48224   0.40529   0.00000  Uiso   1.00
I357   I     0.72798   0.57087   0.42089   0.00000  Uiso   1.00
I358   I     0.79294   0.57564   0.07980   0.00000  Uiso   1.00
I359   I     0.69970   0.56032   0.20171   0.00000  Uiso   1.00
N360   N     0.98144   0.45313   0.28571   0.00000  Uiso   1.00
N361   N     0.88295   0.34091   0.20446   0.00000  Uiso   1.00
O362   O     0.83333   0.50000   0.25000   0.00000  Uiso   1.00
O363   O     0.82118   0.45970   0.15459   0.00000  Uiso   1.00
O364   O     0.79607   0.53724   0.34968   0.00000  Uiso   1.00
O365   O     0.87491   0.51092   0.14606   0.00000  Uiso   1.00
O366   O     0.84118   0.49213   0.34968   0.00000  Uiso   1.00
O367   O     0.84597   0.41352   0.28214   0.00000  Uiso   1.00
O368   O     0.81298   0.59418   0.27014   0.00000  Uiso   1.00
O369   O     0.74078   0.46625   0.23413   0.00000  Uiso   1.00
O370   O     0.93360   0.52605   0.21361   0.00000  Uiso   1.00
O371   O     0.73738   0.52211   0.28213   0.00000  Uiso   1.00
O372   O     0.92158   0.48559   0.27014   0.00000  Uiso   1.00
O373   O     0.80426   0.40277   0.23413   0.00000  Uiso   1.00
O374   O     0.87012   0.58953   0.21361   0.00000  Uiso   1.00
Zn375  Zn    0.86005   0.47327   0.28734   0.00000  Uiso   1.00
Zn376  Zn    0.80046   0.45791   0.21876   0.00000  Uiso   1.00
Zn377  Zn    0.87723   0.53109   0.20657   0.00000  Uiso   1.00
Zn378  Zn    0.79560   0.53773   0.28734   0.00000  Uiso   1.00
C379   C     0.05303   0.82596   0.25983   0.00000  Uiso   1.00
C380   C     0.16953   0.82232   0.05800   0.00000  Uiso   1.00
C381   C     0.23614   0.79796   0.05742   0.00000  Uiso   1.00
C382   C     0.28071   0.84074   0.24062   0.00000  Uiso   1.00
C383   C     0.14364   0.86203   0.42060   0.00000  Uiso   1.00
C384   C     0.32599   0.84574   0.24011   0.00000  Uiso   1.00
C385   C     0.00786   0.82099   0.26328   0.00000  Uiso   1.00
C386   C     0.18044   0.98915   0.23687   0.00000  Uiso   1.00
C387   C     0.15162   0.67907   0.26423   0.00000  Uiso   1.00
C388   C     0.15640   0.72275   0.26003   0.00000  Uiso   1.00
C389   C     0.17633   0.94449   0.24007   0.00000  Uiso   1.00
C390   C     0.10263   0.89040   0.49225   0.00000  Uiso   1.00
C391   C     0.18550   0.81492   0.12936   0.00000  Uiso   1.00
C392   C     0.14947   0.85220   0.37114   0.00000  Uiso   1.00
C393   C     0.25023   0.80269   0.01155   0.00000  Uiso   1.00
C394   C     0.19568   0.80816   0.08076   0.00000  Uiso   1.00
C395   C     0.10806   0.88174   0.44623   0.00000  Uiso   1.00
C396   C     0.00044   0.74984   0.28890   0.00000  Uiso   1.00
C397   C     0.21058   0.67112   0.15928   0.00000  Uiso   1.00
C398   C     0.12931   0.87734   0.01495   0.00000  Uiso   1.00
C399   C     0.16180   0.85300   0.49137   0.00000  Uiso   1.00
C400   C     0.17279   0.85112   0.44363   0.00000  Uiso   1.00
C401   C     0.18544   0.83248   0.01317   0.00000  Uiso   1.00
C402   C     0.22556   0.82033   0.48901   0.00000  Uiso   1.00
C403   C     0.24036   0.82677   0.44317   0.00000  Uiso   1.00
C404   C     0.21390   0.84106   0.42080   0.00000  Uiso   1.00
H405   H     0.28109   0.79349   0.49441   0.00000  Uiso   1.00
H406   H     0.18512   0.68966   0.15776   0.00000  Uiso   1.00
H407   H     0.20199   0.97155   0.14803   0.00000  Uiso   1.00
H408   H     0.24087   0.68329   0.13595   0.00000  Uiso   1.00
H409   H     0.13729   0.82661   0.07620   0.00000  Uiso   1.00
H410   H     0.07775   0.90872   0.01066   0.00000  Uiso   1.00
H411   H     0.22743   0.84657   0.38589   0.00000  Uiso   1.00
H412   H     0.29358   0.79503   0.31505   0.00000  Uiso   1.00
H413   H     0.30841   0.72566   0.30495   0.00000  Uiso   1.00
H414   H     0.02399   0.75736   0.30975   0.00000  Uiso   1.00
H415   H     0.01599   0.73695   0.25486   0.00000  Uiso   1.00
H416   H     0.22956   0.70339   0.21397   0.00000  Uiso   1.00
I417   I     0.27756   0.77585   0.08998   0.00000  Uiso   1.00
I418   I     0.09420   0.99271   0.31291   0.00000  Uiso   1.00
I419   I     0.30244   0.81558   0.40529   0.00000  Uiso   1.00
I420   I     0.06132   0.90420   0.42089   0.00000  Uiso   1.00
I421   I     0.12627   0.90898   0.07980   0.00000  Uiso   1.00
I422   I     0.03303   0.89366   0.20171   0.00000  Uiso   1.00
N423   N     0.31477   0.78646   0.28571   0.00000  Uiso   1.00
N424   N     0.21628   0.67424   0.20446   0.00000  Uiso   1.00
O425   O     0.16667   0.83333   0.25000   0.00000  Uiso   1.00
O426   O     0.15451   0.79304   0.15459   0.00000  Uiso   1.00
O427   O     0.12940   0.87058   0.34968   0.00000  Uiso   1.00
O428   O     0.20824   0.84425   0.14606   0.00000  Uiso   1.00
O429   O     0.17451   0.82546   0.34968   0.00000  Uiso   1.00
O430   O     0.17930   0.74686   0.28214   0.00000  Uiso   1.00
O431   O     0.14632   0.92751   0.27014   0.00000  Uiso   1.00
O432   O     0.07412   0.79958   0.23413   0.00000  Uiso   1.00
O433   O     0.26693   0.85939   0.21361   0.00000  Uiso   1.00
O434   O     0.07071   0.85544   0.28213   0.00000  Uiso   1.00
O435   O     0.25491   0.81892   0.27014   0.00000  Uiso   1.00
O436   O     0.13760   0.73610   0.23413   0.00000  Uiso   1.00
O437   O     0.20345   0.92286   0.21361   0.00000  Uiso   1.00
Zn438  Zn    0.19338   0.80661   0.28734   0.00000  Uiso   1.00
Zn439  Zn    0.13379   0.79124   0.21876   0.00000  Uiso   1.00
Zn440  Zn    0.21056   0.86442   0.20657   0.00000  Uiso   1.00
Zn441  Zn    0.12893   0.87106   0.28734   0.00000  Uiso   1.00
C442   C     0.38636   0.82596   0.25983   0.00000  Uiso   1.00
C443   C     0.50287   0.82232   0.05800   0.00000  Uiso   1.00
C444   C     0.56947   0.79796   0.05742   0.00000  Uiso   1.00
C445   C     0.61404   0.84074   0.24062   0.00000  Uiso   1.00
C446   C     0.47697   0.86203   0.42060   0.00000  Uiso   1.00
C447   C     0.65932   0.84574   0.24011   0.00000  Uiso   1.00
C448   C     0.34119   0.82099   0.26328   0.00000  Uiso   1.00
C449   C     0.51378   0.98915   0.23687   0.00000  Uiso   1.00
C450   C     0.48496   0.67907   0.26423   0.00000  Uiso   1.00
C451   C     0.48974   0.72275   0.26003   0.00000  Uiso   1.00
C452   C     0.50967   0.94449   0.24007   0.00000  Uiso   1.00
C453   C     0.43596   0.89040   0.49225   0.00000  Uiso   1.00
C454   C     0.51883   0.81492   0.12936   0.00000  Uiso   1.00
C455   C     0.48281   0.85220   0.37114   0.00000  Uiso   1.00
C456   C     0.58356   0.80269   0.01155   0.00000  Uiso   1.00
C457   C     0.52901   0.80816   0.08076   0.00000  Uiso   1.00
C458   C     0.44139   0.88174   0.44623   0.00000  Uiso   1.00
C459   C     0.33377   0.74984   0.28890   0.00000  Uiso   1.00
C460   C     0.54392   0.67112   0.15928   0.00000  Uiso   1.00
C461   C     0.46265   0.87734   0.01495   0.00000  Uiso   1.00
C462   C     0.49514   0.85300   0.49137   0.00000  Uiso   1.00
C463   C     0.50612   0.85112   0.44363   0.00000  Uiso   1.00
C464   C     0.51878   0.83248   0.01317   0.00000  Uiso   1.00
C465   C     0.55889   0.82033   0.48901   0.00000  Uiso   1.00
C466   C     0.57369   0.82677   0.44317   0.00000  Uiso   1.00
C467   C     0.54723   0.84106   0.42080   0.00000  Uiso   1.00
H468   H     0.61442   0.79349   0.49441   0.00000  Uiso   1.00
H469   H     0.51845   0.68966   0.15776   0.00000  Uiso   1.00
H470   H     0.53532   0.97155   0.14803   0.00000  Uiso   1.00
H471   H     0.57421   0.68329   0.13595   0.00000  Uiso   1.00
H472   H     0.47063   0.82661   0.07620   0.00000  Uiso   1.00
H473   H     0.41109   0.90872   0.01066   0.00000  Uiso   1.00
H474   H     0.56076   0.84657   0.38589   0.00000  Uiso   1.00
H475   H     0.62691   0.79503   0.31505   0.00000  Uiso   1.00
H476   H     0.64174   0.72566   0.30495   0.00000  Uiso   1.00
H477   H     0.35732   0.75736   0.30975   0.00000  Uiso   1.00
H478   H     0.34933   0.73695   0.25486   0.00000  Uiso   1.00
H479   H     0.56289   0.70339   0.21397   0.00000  Uiso   1.00
I480   I     0.61089   0.77585   0.08998   0.00000  Uiso   1.00
I481   I     0.42753   0.99271   0.31291   0.00000  Uiso   1.00
I482   I     0.63577   0.81558   0.40529   0.00000  Uiso   1.00
I483   I     0.39465   0.90420   0.42089   0.00000  Uiso   1.00
I484   I     0.45960   0.90898   0.07980   0.00000  Uiso   1.00
I485   I     0.36637   0.89366   0.20171   0.00000  Uiso   1.00
N486   N     0.64810   0.78646   0.28571   0.00000  Uiso   1.00
N487   N     0.54962   0.67424   0.20446   0.00000  Uiso   1.00
O488   O     0.50000   0.83333   0.25000   0.00000  Uiso   1.00
O489   O     0.48784   0.79304   0.15459   0.00000  Uiso   1.00
O490   O     0.46274   0.87058   0.34968   0.00000  Uiso   1.00
O491   O     0.54157   0.84425   0.14606   0.00000  Uiso   1.00
O492   O     0.50785   0.82546   0.34968   0.00000  Uiso   1.00
O493   O     0.51264   0.74686   0.28214   0.00000  Uiso   1.00
O494   O     0.47965   0.92751   0.27014   0.00000  Uiso   1.00
O495   O     0.40745   0.79958   0.23413   0.00000  Uiso   1.00
O496   O     0.60026   0.85939   0.21361   0.00000  Uiso   1.00
O497   O     0.40405   0.85544   0.28213   0.00000  Uiso   1.00
O498   O     0.58824   0.81892   0.27014   0.00000  Uiso   1.00
O499   O     0.47093   0.73610   0.23413   0.00000  Uiso   1.00
O500   O     0.53678   0.92286   0.21361   0.00000  Uiso   1.00
Zn501  Zn    0.52672   0.80661   0.28734   0.00000  Uiso   1.00
Zn502  Zn    0.46713   0.79124   0.21876   0.00000  Uiso   1.00
Zn503  Zn    0.54389   0.86442   0.20657   0.00000  Uiso   1.00
Zn504  Zn    0.46226   0.87106   0.28734   0.00000  Uiso   1.00
C505   C     0.71970   0.82596   0.25983   0.00000  Uiso   1.00
C506   C     0.83620   0.82232   0.05800   0.00000  Uiso   1.00
C507   C     0.90280   0.79796   0.05742   0.00000  Uiso   1.00
C508   C     0.94738   0.84074   0.24062   0.00000  Uiso   1.00
C509   C     0.81030   0.86203   0.42060   0.00000  Uiso   1.00
C510   C     0.99266   0.84574   0.24011   0.00000  Uiso   1.00
C511   C     0.67452   0.82099   0.26328   0.00000  Uiso   1.00
C512   C     0.84711   0.98915   0.23687   0.00000  Uiso   1.00
C513   C     0.81829   0.67907   0.26423   0.00000  Uiso   1.00
C514   C     0.82307   0.72275   0.26003   0.00000  Uiso   1.00
C515   C     0.84300   0.94449   0.24007   0.00000  Uiso   1.00
C516   C     0.76929   0.89040   0.49225   0.00000  Uiso   1.00
C517   C     0.85216   0.81492   0.12936   0.00000  Uiso   1.00
C518   C     0.81614   0.85220   0.37114   0.00000  Uiso   1.00
C519   C     0.91690   0.80269   0.01155   0.00000  Uiso   1.00
C520   C     0.86235   0.80816   0.08076   0.00000  Uiso   1.00
C521   C     0.77473   0.88174   0.44623   0.00000  Uiso   1.00
C522   C     0.66710   0.74984   0.28890   0.00000  Uiso   1.00
C523   C     0.87725   0.67112   0.15928   0.00000  Uiso   1.00
C524   C     0.79598   0.87734   0.01495   0.00000  Uiso   1.00
C525   C     0.82847   0.85300   0.49137   0.00000  Uiso   1.00
C526   C     0.83946   0.85112   0.44363   0.00000  Uiso   1.00
C527   C     0.85211   0.83248   0.01317   0.00000  Uiso   1.00
C528   C     0.89223   0.82033   0.48901   0.00000  Uiso   1.00
C529   C     0.90703   0.82677   0.44317   0.00000  Uiso   1.00
C530   C     0.88056   0.84106   0.42080   0.00000  Uiso   1.00
H531   H     0.94776   0.79349   0.49441   0.00000  Uiso   1.00
H532   H     0.85179   0.68966   0.15776   0.00000  Uiso   1.00
H533   H     0.86865   0.97155   0.14803   0.00000  Uiso   1.00
H534   H     0.90754   0.68329   0.13595   0.00000  Uiso   1.00
H535   H     0.80396   0.82661   0.07620   0.00000  Uiso   1.00
H536   H     0.74442   0.90872   0.01066   0.00000  Uiso   1.00
H537   H     0.89409   0.84657   0.38589   0.00000  Uiso   1.00
H538   H     0.96024   0.79503   0.31505   0.00000  Uiso   1.00
H539   H     0.97508   0.72566   0.30495   0.00000  Uiso   1.00
H540   H     0.69066   0.75736   0.30975   0.00000  Uiso   1.00
H541   H     0.68266   0.73695   0.25486   0.00000  Uiso   1.00
H542   H     0.89622   0.70339   0.21397   0.00000  Uiso   1.00
I543   I     0.94423   0.77585   0.08998   0.00000  Uiso   1.00
I544   I     0.76086   0.99271   0.31291   0.00000  Uiso   1.00
I545   I     0.96910   0.81558   0.40529   0.00000  Uiso   1.00
I546   I     0.72798   0.90420   0.42089   0.00000  Uiso   1.00
I547   I     0.79294   0.90898   0.07980   0.00000  Uiso   1.00
I548   I     0.69970   0.89366   0.20171   0.00000  Uiso   1.00
N549   N     0.98144   0.78646   0.28571   0.00000  Uiso   1.00
N550   N     0.88295   0.67424   0.20446   0.00000  Uiso   1.00
O551   O     0.83333   0.83333   0.25000   0.00000  Uiso   1.00
O552   O     0.82118   0.79304   0.15459   0.00000  Uiso   1.00
O553   O     0.79607   0.87058   0.34968   0.00000  Uiso   1.00
O554   O     0.87491   0.84425   0.14606   0.00000  Uiso   1.00
O555   O     0.84118   0.82546   0.34968   0.00000  Uiso   1.00
O556   O     0.84597   0.74686   0.28214   0.00000  Uiso   1.00
O557   O     0.81298   0.92751   0.27014   0.00000  Uiso   1.00
O558   O     0.74078   0.79958   0.23413   0.00000  Uiso   1.00
O559   O     0.93360   0.85939   0.21361   0.00000  Uiso   1.00
O560   O     0.73738   0.85544   0.28213   0.00000  Uiso   1.00
O561   O     0.92158   0.81892   0.27014   0.00000  Uiso   1.00
O562   O     0.80426   0.73610   0.23413   0.00000  Uiso   1.00
O563   O     0.87012   0.92286   0.21361   0.00000  Uiso   1.00
Zn564  Zn    0.86005   0.80661   0.28734   0.00000  Uiso   1.00
Zn565  Zn    0.80046   0.79124   0.21876   0.00000  Uiso   1.00
Zn566  Zn    0.87723   0.86442   0.20657   0.00000  Uiso   1.00
Zn567  Zn    0.79560   0.87106   0.28734   0.00000  Uiso   1.00
C568   C     0.05303   0.15929   0.75983   0.00000  Uiso   1.00
C569   C     0.16953   0.15565   0.55800   0.00000  Uiso   1.00
C570   C     0.23614   0.13130   0.55742   0.00000  Uiso   1.00
C571   C     0.28071   0.17408   0.74062   0.00000  Uiso   1.00
C572   C     0.14364   0.19536   0.92060   0.00000  Uiso   1.00
C573   C     0.32599   0.17907   0.74011   0.00000  Uiso   1.00
C574   C     0.00786   0.15432   0.76328   0.00000  Uiso   1.00
C575   C     0.18044   0.32248   0.73687   0.00000  Uiso   1.00
C576   C     0.15162   0.01240   0.76423   0.00000  Uiso   1.00
C577   C     0.15640   0.05609   0.76003   0.00000  Uiso   1.00
C578   C     0.17633   0.27782   0.74007   0.00000  Uiso   1.00
C579   C     0.10263   0.22373   0.99225   0.00000  Uiso   1.00
C580   C     0.18550   0.14825   0.62936   0.00000  Uiso   1.00
C581   C     0.14947   0.18554   0.87114   0.00000  Uiso   1.00
C582   C     0.25023   0.13602   0.51155   0.00000  Uiso   1.00
C583   C     0.19568   0.14150   0.58076   0.00000  Uiso   1.00
C584   C     0.10806   0.21507   0.94623   0.00000  Uiso   1.00
C585   C     0.00044   0.08317   0.78890   0.00000  Uiso   1.00
C586   C     0.21058   0.00445   0.65928   0.00000  Uiso   1.00
C587   C     0.12931   0.21067   0.51495   0.00000  Uiso   1.00
C588   C     0.16180   0.18633   0.99137   0.00000  Uiso   1.00
C589   C     0.17279   0.18445   0.94363   0.00000  Uiso   1.00
C590   C     0.18544   0.16581   0.51317   0.00000  Uiso   1.00
C591   C     0.22556   0.15366   0.98901   0.00000  Uiso   1.00
C592   C     0.24036   0.16011   0.94317   0.00000  Uiso   1.00
C593   C     0.21390   0.17439   0.92080   0.00000  Uiso   1.00
H594   H     0.28109   0.12683   0.99441   0.00000  Uiso   1.00
H595   H     0.18512   0.02299   0.65776   0.00000  Uiso   1.00
H596   H     0.20199   0.30488   0.64803   0.00000  Uiso   1.00
H597   H     0.24087   0.01663   0.63595   0.00000  Uiso   1.00
H598   H     0.13729   0.15994   0.57620   0.00000  Uiso   1.00
H599   H     0.07775   0.24206   0.51066   0.00000  Uiso   1.00
H600   H     0.22743   0.17990   0.88589   0.00000  Uiso   1.00
H601   H     0.29358   0.12837   0.81505   0.00000  Uiso   1.00
H602   H     0.30841   0.05899   0.80495   0.00000  Uiso   1.00
H603   H     0.02399   0.09069   0.80975   0.00000  Uiso   1.00
H604   H     0.01599   0.07028   0.75486   0.00000  Uiso   1.00
H605   H     0.22956   0.03672   0.71397   0.00000  Uiso   1.00
I606   I     0.27756   0.10918   0.58998   0.00000  Uiso   1.00
I607   I     0.09420   0.32604   0.81291   0.00000  Uiso   1.00
I608   I     0.30244   0.14891   0.90529   0.00000  Uiso   1.00
I609   I     0.06132   0.23754   0.92089   0.00000  Uiso   1.00
I610   I     0.12627   0.24231   0.57980   0.00000  Uiso   1.00
I611   I     0.03303   0.22699   0.70171   0.00000  Uiso   1.00
N612   N     0.31477   0.11980   0.78571   0.00000  Uiso   1.00
N613   N     0.21628   0.00758   0.70446   0.00000  Uiso   1.00
O614   O     0.16667   0.16667   0.75000   0.00000  Uiso   1.00
O615   O     0.15451   0.12637   0.65459   0.00000  Uiso   1.00
O616   O     0.12940   0.20391   0.84968   0.00000  Uiso   1.00
O617   O     0.20824   0.17759   0.64606   0.00000  Uiso   1.00
O618   O     0.17451   0.15880   0.84968   0.00000  Uiso   1.00
O619   O     0.17930   0.08019   0.78214   0.00000  Uiso   1.00
O620   O     0.14632   0.26085   0.77014   0.00000  Uiso   1.00
O621   O     0.07412   0.13291   0.73413   0.00000  Uiso   1.00
O622   O     0.26693   0.19272   0.71361   0.00000  Uiso   1.00
O623   O     0.07071   0.18878   0.78213   0.00000  Uiso   1.00
O624   O     0.25491   0.15226   0.77014   0.00000  Uiso   1.00
O625   O     0.13760   0.06944   0.73413   0.00000  Uiso   1.00
O626   O     0.20345   0.25620   0.71361   0.00000  Uiso   1.00
Zn627  Zn    0.19338   0.13994   0.78734   0.00000  Uiso   1.00
Zn628  Zn    0.13379   0.12458   0.71876   0.00000  Uiso   1.00
Zn629  Zn    0.21056   0.19775   0.70657   0.00000  Uiso   1.00
Zn630  Zn    0.12893   0.20439   0.78734   0.00000  Uiso   1.00
C631   C     0.38636   0.15929   0.75983   0.00000  Uiso   1.00
C632   C     0.50287   0.15565   0.55800   0.00000  Uiso   1.00
C633   C     0.56947   0.13130   0.55742   0.00000  Uiso   1.00
C634   C     0.61404   0.17408   0.74062   0.00000  Uiso   1.00
C635   C     0.47697   0.19536   0.92060   0.00000  Uiso   1.00
C636   C     0.65932   0.17907   0.74011   0.00000  Uiso   1.00
C637   C     0.34119   0.15432   0.76328   0.00000  Uiso   1.00
C638   C     0.51378   0.32248   0.73687   0.00000  Uiso   1.00
C639   C     0.48496   0.01240   0.76423   0.00000  Uiso   1.00
C640   C     0.48974   0.05609   0.76003   0.00000  Uiso   1.00
C641   C     0.50967   0.27782   0.74007   0.00000  Uiso   1.00
C642   C     0.43596   0.22373   0.99225   0.00000  Uiso   1.00
C643   C     0.51883   0.14825   0.62936   0.00000  Uiso   1.00
C644   C     0.48281   0.18554   0.87114   0.00000  Uiso   1.00
C645   C     0.58356   0.13602   0.51155   0.00000  Uiso   1.00
C646   C     0.52901   0.14150   0.58076   0.00000  Uiso   1.00
C647   C     0.44139   0.21507   0.94623   0.00000  Uiso   1.00
C648   C     0.33377   0.08317   0.78890   0.00000  Uiso   1.00
C649   C     0.54392   0.00445   0.65928   0.00000  Uiso   1.00
C650   C     0.46265   0.21067   0.51495   0.00000  Uiso   1.00
C651   C     0.49514   0.18633   0.99137   0.00000  Uiso   1.00
C652   C     0.50612   0.18445   0.94363   0.00000  Uiso   1.00
C653   C     0.51878   0.16581   0.51317   0.00000  Uiso   1.00
C654   C     0.55889   0.15366   0.98901   0.00000  Uiso   1.00
C655   C     0.57369   0.16011   0.94317   0.00000  Uiso   1.00
C656   C     0.54723   0.17439   0.92080   0.00000  Uiso   1.00
H657   H     0.61442   0.12683   0.99441   0.00000  Uiso   1.00
H658   H     0.51845   0.02299   0.65776   0.00000  Uiso   1.00
H659   H     0.53532   0.30488   0.64803   0.00000  Uiso   1.00
H660   H     0.57421   0.01663   0.63595   0.00000  Uiso   1.00
H661   H     0.47063   0.15994   0.57620   0.00000  Uiso   1.00
H662   H     0.41109   0.24206   0.51066   0.00000  Uiso   1.00
H663   H     0.56076   0.17990   0.88589   0.00000  Uiso   1.00
H664   H     0.62691   0.12837   0.81505   0.00000  Uiso   1.00
H665   H     0.64174   0.05899   0.80495   0.00000  Uiso   1.00
H666   H     0.35732   0.09069   0.80975   0.00000  Uiso   1.00
H667   H     0.34933   0.07028   0.75486   0.00000  Uiso   1.00
H668   H     0.56289   0.03672   0.71397   0.00000  Uiso   1.00
I669   I     0.61089   0.10918   0.58998   0.00000  Uiso   1.00
I670   I     0.42753   0.32604   0.81291   0.00000  Uiso   1.00
I671   I     0.63577   0.14891   0.90529   0.00000  Uiso   1.00
I672   I     0.39465   0.23754   0.92089   0.00000  Uiso   1.00
I673   I     0.45960   0.24231   0.57980   0.00000  Uiso   1.00
I674   I     0.36637   0.22699   0.70171   0.00000  Uiso   1.00
N675   N     0.64810   0.11980   0.78571   0.00000  Uiso   1.00
N676   N     0.54962   0.00758   0.70446   0.00000  Uiso   1.00
O677   O     0.50000   0.16667   0.75000   0.00000  Uiso   1.00
O678   O     0.48784   0.12637   0.65459   0.00000  Uiso   1.00
O679   O     0.46274   0.20391   0.84968   0.00000  Uiso   1.00
O680   O     0.54157   0.17759   0.64606   0.00000  Uiso   1.00
O681   O     0.50785   0.15880   0.84968   0.00000  Uiso   1.00
O682   O     0.51264   0.08019   0.78214   0.00000  Uiso   1.00
O683   O     0.47965   0.26085   0.77014   0.00000  Uiso   1.00
O684   O     0.40745   0.13291   0.73413   0.00000  Uiso   1.00
O685   O     0.60026   0.19272   0.71361   0.00000  Uiso   1.00
O686   O     0.40405   0.18878   0.78213   0.00000  Uiso   1.00
O687   O     0.58824   0.15226   0.77014   0.00000  Uiso   1.00
O688   O     0.47093   0.06944   0.73413   0.00000  Uiso   1.00
O689   O     0.53678   0.25620   0.71361   0.00000  Uiso   1.00
Zn690  Zn    0.52672   0.13994   0.78734   0.00000  Uiso   1.00
Zn691  Zn    0.46713   0.12458   0.71876   0.00000  Uiso   1.00
Zn692  Zn    0.54389   0.19775   0.70657   0.00000  Uiso   1.00
Zn693  Zn    0.46226   0.20439   0.78734   0.00000  Uiso   1.00
C694   C     0.71970   0.15929   0.75983   0.00000  Uiso   1.00
C695   C     0.83620   0.15565   0.55800   0.00000  Uiso   1.00
C696   C     0.90280   0.13130   0.55742   0.00000  Uiso   1.00
C697   C     0.94738   0.17408   0.74062   0.00000  Uiso   1.00
C698   C     0.81030   0.19536   0.92060   0.00000  Uiso   1.00
C699   C     0.99266   0.17907   0.74011   0.00000  Uiso   1.00
C700   C     0.67452   0.15432   0.76328   0.00000  Uiso   1.00
C701   C     0.84711   0.32248   0.73687   0.00000  Uiso   1.00
C702   C     0.81829   0.01240   0.76423   0.00000  Uiso   1.00
C703   C     0.82307   0.05609   0.76003   0.00000  Uiso   1.00
C704   C     0.84300   0.27782   0.74007   0.00000  Uiso   1.00
C705   C     0.76929   0.22373   0.99225   0.00000  Uiso   1.00
C706   C     0.85216   0.14825   0.62936   0.00000  Uiso   1.00
C707   C     0.81614   0.18554   0.87114   0.00000  Uiso   1.00
C708   C     0.91690   0.13602   0.51155   0.00000  Uiso   1.00
C709   C     0.86235   0.14150   0.58076   0.00000  Uiso   1.00
C710   C     0.77473   0.21507   0.94623   0.00000  Uiso   1.00
C711   C     0.66710   0.08317   0.78890   0.00000  Uiso   1.00
C712   C     0.87725   0.00445   0.65928   0.00000  Uiso   1.00
C713   C     0.79598   0.21067   0.51495   0.00000  Uiso   1.00
C714   C     0.82847   0.18633   0.99137   0.00000  Uiso   1.00
C715   C     0.83946   0.18445   0.94363   0.00000  Uiso   1.00
C716   C     0.85211   0.16581   0.51317   0.00000  Uiso   1.00
C717   C     0.89223   0.15366   0.98901   0.00000  Uiso   1.00
C718   C     0.90703   0.16011   0.94317   0.00000  Uiso   1.00
C719   C     0.88056   0.17439   0.92080   0.00000  Uiso   1.00
H720   H     0.94776   0.12683   0.99441   0.00000  Uiso   1.00
H721   H     0.85179   0.02299   0.65776   0.00000  Uiso   1.00
H722   H     0.86865   0.30488   0.64803   0.00000  Uiso   1.00
H723   H     0.90754   0.01663   0.63595   0.00000  Uiso   1.00
H724   H     0.80396   0.15994   0.57620   0.00000  Uiso   1.00
H725   H     0.74442   0.24206   0.51066   0.00000  Uiso   1.00
H726   H     0.89409   0.17990   0.88589   0.00000  Uiso   1.00
H727   H     0.96024   0.12837   0.81505   0.00000  Uiso   1.00
H728   H     0.97508   0.05899   0.80495   0.00000  Uiso   1.00
H729   H     0.69066   0.09069   0.80975   0.00000  Uiso   1.00
H730   H     0.68266   0.07028   0.75486   0.00000  Uiso   1.00
H731   H     0.89622   0.03672   0.71397   0.00000  Uiso   1.00
I732   I     0.94423   0.10918   0.58998   0.00000  Uiso   1.00
I733   I     0.76086   0.32604   0.81291   0.00000  Uiso   1.00
I734   I     0.96910   0.14891   0.90529   0.00000  Uiso   1.00
I735   I     0.72798   0.23754   0.92089   0.00000  Uiso   1.00
I736   I     0.79294   0.24231   0.57980   0.00000  Uiso   1.00
I737   I     0.69970   0.22699   0.70171   0.00000  Uiso   1.00
N738   N     0.98144   0.11980   0.78571   0.00000  Uiso   1.00
N739   N     0.88295   0.00758   0.70446   0.00000  Uiso   1.00
O740   O     0.83333   0.16667   0.75000   0.00000  Uiso   1.00
O741   O     0.82118   0.12637   0.65459   0.00000  Uiso   1.00
O742   O     0.79607   0.20391   0.84968   0.00000  Uiso   1.00
O743   O     0.87491   0.17759   0.64606   0.00000  Uiso   1.00
O744   O     0.84118   0.15880   0.84968   0.00000  Uiso   1.00
O745   O     0.84597   0.08019   0.78214   0.00000  Uiso   1.00
O746   O     0.81298   0.26085   0.77014   0.00000  Uiso   1.00
O747   O     0.74078   0.13291   0.73413   0.00000  Uiso   1.00
O748   O     0.93360   0.19272   0.71361   0.00000  Uiso   1.00
O749   O     0.73738   0.18878   0.78213   0.00000  Uiso   1.00
O750   O     0.92158   0.15226   0.77014   0.00000  Uiso   1.00
O751   O     0.80426   0.06944   0.73413   0.00000  Uiso   1.00
O752   O     0.87012   0.25620   0.71361   0.00000  Uiso   1.00
Zn753  Zn    0.86005   0.13994   0.78734   0.00000  Uiso   1.00
Zn754  Zn    0.80046   0.12458   0.71876   0.00000  Uiso   1.00
Zn755  Zn    0.87723   0.19775   0.70657   0.00000  Uiso   1.00
Zn756  Zn    0.79560   0.20439   0.78734   0.00000  Uiso   1.00
C757   C     0.05303   0.49262   0.75983   0.00000  Uiso   1.00
C758   C     0.16953   0.48898   0.55800   0.00000  Uiso   1.00
C759   C     0.23614   0.46463   0.55742   0.00000  Uiso   1.00
C760   C     0.28071   0.50741   0.74062   0.00000  Uiso   1.00
C761   C     0.14364   0.52870   0.92060   0.00000  Uiso   1.00
C762   C     0.32599   0.51241   0.74011   0.00000  Uiso   1.00
C763   C     0.00786   0.48765   0.76328   0.00000  Uiso   1.00
C764   C     0.18044   0.65582   0.73687   0.00000  Uiso   1.00
C765   C     0.15162   0.34574   0.76423   0.00000  Uiso   1.00
C766   C     0.15640   0.38942   0.76003   0.00000  Uiso   1.00
C767   C     0.17633   0.61116   0.74007   0.00000  Uiso   1.00
C768   C     0.10263   0.55707   0.99225   0.00000  Uiso   1.00
C769   C     0.18550   0.48159   0.62936   0.00000  Uiso   1.00
C770   C     0.14947   0.51887   0.87114   0.00000  Uiso   1.00
C771   C     0.25023   0.46935   0.51155   0.00000  Uiso   1.00
C772   C     0.19568   0.47483   0.58076   0.00000  Uiso   1.00
C773   C     0.10806   0.54841   0.94623   0.00000  Uiso   1.00
C774   C     0.00044   0.41651   0.78890   0.00000  Uiso   1.00
C775   C     0.21058   0.33779   0.65928   0.00000  Uiso   1.00
C776   C     0.12931   0.54400   0.51495   0.00000  Uiso   1.00
C777   C     0.16180   0.51966   0.99137   0.00000  Uiso   1.00
C778   C     0.17279   0.51779   0.94363   0.00000  Uiso   1.00
C779   C     0.18544   0.49914   0.51317   0.00000  Uiso   1.00
C780   C     0.22556   0.48700   0.98901   0.00000  Uiso   1.00
C781   C     0.24036   0.49344   0.94317   0.00000  Uiso   1.00
C782   C     0.21390   0.50773   0.92080   0.00000  Uiso   1.00
H783   H     0.28109   0.46016   0.99441   0.00000  Uiso   1.00
H784   H     0.18512   0.35632   0.65776   0.00000  Uiso   1.00
H785   H     0.20199   0.63822   0.64803   0.00000  Uiso   1.00
H786   H     0.24087   0.34996   0.63595   0.00000  Uiso   1.00
H787   H     0.13729   0.49328   0.57620   0.00000  Uiso   1.00
H788   H     0.07775   0.57539   0.51066   0.00000  Uiso   1.00
H789   H     0.22743   0.51323   0.88589   0.00000  Uiso   1.00
H790   H     0.29358   0.46170   0.81505   0.00000  Uiso   1.00
H791   H     0.30841   0.39232   0.80495   0.00000  Uiso   1.00
H792   H     0.02399   0.42403   0.80975   0.00000  Uiso   1.00
H793   H     0.01599   0.40361   0.75486   0.00000  Uiso   1.00
H794   H     0.22956   0.37005   0.71397   0.00000  Uiso   1.00
I795   I     0.27756   0.44252   0.58998   0.00000  Uiso   1.00
I796   I     0.09420   0.65937   0.81291   0.00000  Uiso   1.00
I797   I     0.30244   0.48224   0.90529   0.00000  Uiso   1.00
I798   I     0.06132   0.57087   0.92089   0.00000  Uiso   1.00
I799   I     0.12627   0.57564   0.57980   0.00000  Uiso   1.00
I800   I     0.03303   0.56032   0.70171   0.00000  Uiso   1.00
N801   N     0.31477   0.45313   0.78571   0.00000  Uiso   1.00
N802   N     0.21628   0.34091   0.70446   0.00000  Uiso   1.00
O803   O     0.16667   0.50000   0.75000   0.00000  Uiso   1.00
O804   O     0.15451   0.45970   0.65459   0.00000  Uiso   1.00
O805   O     0.12940   0.53724   0.84968   0.00000  Uiso   1.00
O806   O     0.20824   0.51092   0.64606   0.00000  Uiso   1.00
O807   O     0.17451   0.49213   0.84968   0.00000  Uiso   1.00
O808   O     0.17930   0.41352   0.78214   0.00000  Uiso   1.00
O809   O     0.14632   0.59418   0.77014   0.00000  Uiso   1.00
O810   O     0.07412   0.46625   0.73413   0.00000  Uiso   1.00
O811   O     0.26693   0.52605   0.71361   0.00000  Uiso   1.00
O812   O     0.07071   0.52211   0.78213   0.00000  Uiso   1.00
O813   O     0.25491   0.48559   0.77014   0.00000  Uiso   1.00
O814   O     0.13760   0.40277   0.73413   0.00000  Uiso   1.00
O815   O     0.20345   0.58953   0.71361   0.00000  Uiso   1.00
Zn816  Zn    0.19338   0.47327   0.78734   0.00000  Uiso   1.00
Zn817  Zn    0.13379   0.45791   0.71876   0.00000  Uiso   1.00
Zn818  Zn    0.21056   0.53109   0.70657   0.00000  Uiso   1.00
Zn819  Zn    0.12893   0.53773   0.78734   0.00000  Uiso   1.00
C820   C     0.38636   0.49262   0.75983   0.00000  Uiso   1.00
C821   C     0.50287   0.48898   0.55800   0.00000  Uiso   1.00
C822   C     0.56947   0.46463   0.55742   0.00000  Uiso   1.00
C823   C     0.61404   0.50741   0.74062   0.00000  Uiso   1.00
C824   C     0.47697   0.52870   0.92060   0.00000  Uiso   1.00
C825   C     0.65932   0.51241   0.74011   0.00000  Uiso   1.00
C826   C     0.34119   0.48765   0.76328   0.00000  Uiso   1.00
C827   C     0.51378   0.65582   0.73687   0.00000  Uiso   1.00
C828   C     0.48496   0.34574   0.76423   0.00000  Uiso   1.00
C829   C     0.48974   0.38942   0.76003   0.00000  Uiso   1.00
C830   C     0.50967   0.61116   0.74007   0.00000  Uiso   1.00
C831   C     0.43596   0.55707   0.99225   0.00000  Uiso   1.00
C832   C     0.51883   0.48159   0.62936   0.00000  Uiso   1.00
C833   C     0.48281   0.51887   0.87114   0.00000  Uiso   1.00
C834   C     0.58356   0.46935   0.51155   0.00000  Uiso   1.00
C835   C     0.52901   0.47483   0.58076   0.00000  Uiso   1.00
C836   C     0.44139   0.54841   0.94623   0.00000  Uiso   1.00
C837   C     0.33377   0.41651   0.78890   0.00000  Uiso   1.00
C838   C     0.54392   0.33779   0.65928   0.00000  Uiso   1.00
C839   C     0.46265   0.54400   0.51495   0.00000  Uiso   1.00
C840   C     0.49514   0.51966   0.99137   0.00000  Uiso   1.00
C841   C     0.50612   0.51779   0.94363   0.00000  Uiso   1.00
C842   C     0.51878   0.49914   0.51317   0.00000  Uiso   1.00
C843   C     0.55889   0.48700   0.98901   0.00000  Uiso   1.00
C844   C     0.57369   0.49344   0.94317   0.00000  Uiso   1.00
C845   C     0.54723   0.50773   0.92080   0.00000  Uiso   1.00
H846   H     0.61442   0.46016   0.99441   0.00000  Uiso   1.00
H847   H     0.51845   0.35632   0.65776   0.00000  Uiso   1.00
H848   H     0.53532   0.63822   0.64803   0.00000  Uiso   1.00
H849   H     0.57421   0.34996   0.63595   0.00000  Uiso   1.00
H850   H     0.47063   0.49328   0.57620   0.00000  Uiso   1.00
H851   H     0.41109   0.57539   0.51066   0.00000  Uiso   1.00
H852   H     0.56076   0.51323   0.88589   0.00000  Uiso   1.00
H853   H     0.62691   0.46170   0.81505   0.00000  Uiso   1.00
H854   H     0.64174   0.39232   0.80495   0.00000  Uiso   1.00
H855   H     0.35732   0.42403   0.80975   0.00000  Uiso   1.00
H856   H     0.34933   0.40361   0.75486   0.00000  Uiso   1.00
H857   H     0.56289   0.37005   0.71397   0.00000  Uiso   1.00
I858   I     0.61089   0.44252   0.58998   0.00000  Uiso   1.00
I859   I     0.42753   0.65937   0.81291   0.00000  Uiso   1.00
I860   I     0.63577   0.48224   0.90529   0.00000  Uiso   1.00
I861   I     0.39465   0.57087   0.92089   0.00000  Uiso   1.00
I862   I     0.45960   0.57564   0.57980   0.00000  Uiso   1.00
I863   I     0.36637   0.56032   0.70171   0.00000  Uiso   1.00
N864   N     0.64810   0.45313   0.78571   0.00000  Uiso   1.00
N865   N     0.54962   0.34091   0.70446   0.00000  Uiso   1.00
O866   O     0.50000   0.50000   0.75000   0.00000  Uiso   1.00
O867   O     0.48784   0.45970   0.65459   0.00000  Uiso   1.00
O868   O     0.46274   0.53724   0.84968   0.00000  Uiso   1.00
O869   O     0.54157   0.51092   0.64606   0.00000  Uiso   1.00
O870   O     0.50785   0.49213   0.84968   0.00000  Uiso   1.00
O871   O     0.51264   0.41352   0.78214   0.00000  Uiso   1.00
O872   O     0.47965   0.59418   0.77014   0.00000  Uiso   1.00
O873   O     0.40745   0.46625   0.73413   0.00000  Uiso   1.00
O874   O     0.60026   0.52605   0.71361   0.00000  Uiso   1.00
O875   O     0.40405   0.52211   0.78213   0.00000  Uiso   1.00
O876   O     0.58824   0.48559   0.77014   0.00000  Uiso   1.00
O877   O     0.47093   0.40277   0.73413   0.00000  Uiso   1.00
O878   O     0.53678   0.58953   0.71361   0.00000  Uiso   1.00
Zn879  Zn    0.52672   0.47327   0.78734   0.00000  Uiso   1.00
Zn880  Zn    0.46713   0.45791   0.71876   0.00000  Uiso   1.00
Zn881  Zn    0.54389   0.53109   0.70657   0.00000  Uiso   1.00
Zn882  Zn    0.46226   0.53773   0.78734   0.00000  Uiso   1.00
C883   C     0.71970   0.49262   0.75983   0.00000  Uiso   1.00
C884   C     0.83620   0.48898   0.55800   0.00000  Uiso   1.00
C885   C     0.90280   0.46463   0.55742   0.00000  Uiso   1.00
C886   C     0.94738   0.50741   0.74062   0.00000  Uiso   1.00
C887   C     0.81030   0.52870   0.92060   0.00000  Uiso   1.00
C888   C     0.99266   0.51241   0.74011   0.00000  Uiso   1.00
C889   C     0.67452   0.48765   0.76328   0.00000  Uiso   1.00
C890   C     0.84711   0.65582   0.73687   0.00000  Uiso   1.00
C891   C     0.81829   0.34574   0.76423   0.00000  Uiso   1.00
C892   C     0.82307   0.38942   0.76003   0.00000  Uiso   1.00
C893   C     0.84300   0.61116   0.74007   0.00000  Uiso   1.00
C894   C     0.76929   0.55707   0.99225   0.00000  Uiso   1.00
C895   C     0.85216   0.48159   0.62936   0.00000  Uiso   1.00
C896   C     0.81614   0.51887   0.87114   0.00000  Uiso   1.00
C897   C     0.91690   0.46935   0.51155   0.00000  Uiso   1.00
C898   C     0.86235   0.47483   0.58076   0.00000  Uiso   1.00
C899   C     0.77473   0.54841   0.94623   0.00000  Uiso   1.00
C900   C     0.66710   0.41651   0.78890   0.00000  Uiso   1.00
C901   C     0.87725   0.33779   0.65928   0.00000  Uiso   1.00
C902   C     0.79598   0.54400   0.51495   0.00000  Uiso   1.00
C903   C     0.82847   0.51966   0.99137   0.00000  Uiso   1.00
C904   C     0.83946   0.51779   0.94363   0.00000  Uiso   1.00
C905   C     0.85211   0.49914   0.51317   0.00000  Uiso   1.00
C906   C     0.89223   0.48700   0.98901   0.00000  Uiso   1.00
C907   C     0.90703   0.49344   0.94317   0.00000  Uiso   1.00
C908   C     0.88056   0.50773   0.92080   0.00000  Uiso   1.00
H909   H     0.94776   0.46016   0.99441   0.00000  Uiso   1.00
H910   H     0.85179   0.35632   0.65776   0.00000  Uiso   1.00
H911   H     0.86865   0.63822   0.64803   0.00000  Uiso   1.00
H912   H     0.90754   0.34996   0.63595   0.00000  Uiso   1.00
H913   H     0.80396   0.49328   0.57620   0.00000  Uiso   1.00
H914   H     0.74442   0.57539   0.51066   0.00000  Uiso   1.00
H915   H     0.89409   0.51323   0.88589   0.00000  Uiso   1.00
H916   H     0.96024   0.46170   0.81505   0.00000  Uiso   1.00
H917   H     0.97508   0.39232   0.80495   0.00000  Uiso   1.00
H918   H     0.69066   0.42403   0.80975   0.00000  Uiso   1.00
H919   H     0.68266   0.40361   0.75486   0.00000  Uiso   1.00
H920   H     0.89622   0.37005   0.71397   0.00000  Uiso   1.00
I921   I     0.94423   0.44252   0.58998   0.00000  Uiso   1.00
I922   I     0.76086   0.65937   0.81291   0.00000  Uiso   1.00
I923   I     0.96910   0.48224   0.90529   0.00000  Uiso   1.00
I924   I     0.72798   0.57087   0.92089   0.00000  Uiso   1.00
I925   I     0.79294   0.57564   0.57980   0.00000  Uiso   1.00
I926   I     0.69970   0.56032   0.70171   0.00000  Uiso   1.00
N927   N     0.98144   0.45313   0.78571   0.00000  Uiso   1.00
N928   N     0.88295   0.34091   0.70446   0.00000  Uiso   1.00
O929   O     0.83333   0.50000   0.75000   0.00000  Uiso   1.00
O930   O     0.82118   0.45970   0.65459   0.00000  Uiso   1.00
O931   O     0.79607   0.53724   0.84968   0.00000  Uiso   1.00
O932   O     0.87491   0.51092   0.64606   0.00000  Uiso   1.00
O933   O     0.84118   0.49213   0.84968   0.00000  Uiso   1.00
O934   O     0.84597   0.41352   0.78214   0.00000  Uiso   1.00
O935   O     0.81298   0.59418   0.77014   0.00000  Uiso   1.00
O936   O     0.74078   0.46625   0.73413   0.00000  Uiso   1.00
O937   O     0.93360   0.52605   0.71361   0.00000  Uiso   1.00
O938   O     0.73738   0.52211   0.78213   0.00000  Uiso   1.00
O939   O     0.92158   0.48559   0.77014   0.00000  Uiso   1.00
O940   O     0.80426   0.40277   0.73413   0.00000  Uiso   1.00
O941   O     0.87012   0.58953   0.71361   0.00000  Uiso   1.00
Zn942  Zn    0.86005   0.47327   0.78734   0.00000  Uiso   1.00
Zn943  Zn    0.80046   0.45791   0.71876   0.00000  Uiso   1.00
Zn944  Zn    0.87723   0.53109   0.70657   0.00000  Uiso   1.00
Zn945  Zn    0.79560   0.53773   0.78734   0.00000  Uiso   1.00
C946   C     0.05303   0.82596   0.75983   0.00000  Uiso   1.00
C947   C     0.16953   0.82232   0.55800   0.00000  Uiso   1.00
C948   C     0.23614   0.79796   0.55742   0.00000  Uiso   1.00
C949   C     0.28071   0.84074   0.74062   0.00000  Uiso   1.00
C950   C     0.14364   0.86203   0.92060   0.00000  Uiso   1.00
C951   C     0.32599   0.84574   0.74011   0.00000  Uiso   1.00
C952   C     0.00786   0.82099   0.76328   0.00000  Uiso   1.00
C953   C     0.18044   0.98915   0.73687   0.00000  Uiso   1.00
C954   C     0.15162   0.67907   0.76423   0.00000  Uiso   1.00
C955   C     0.15640   0.72275   0.76003   0.00000  Uiso   1.00
C956   C     0.17633   0.94449   0.74007   0.00000  Uiso   1.00
C957   C     0.10263   0.89040   0.99225   0.00000  Uiso   1.00
C958   C     0.18550   0.81492   0.62936   0.00000  Uiso   1.00
C959   C     0.14947   0.85220   0.87114   0.00000  Uiso   1.00
C960   C     0.25023   0.80269   0.51155   0.00000  Uiso   1.00
C961   C     0.19568   0.80816   0.58076   0.00000  Uiso   1.00
C962   C     0.10806   0.88174   0.94623   0.00000  Uiso   1.00
C963   C     0.00044   0.74984   0.78890   0.00000  Uiso   1.00
C964   C     0.21058   0.67112   0.65928   0.00000  Uiso   1.00
C965   C     0.12931   0.87734   0.51495   0.00000  Uiso   1.00
C966   C     0.16180   0.85300   0.99137   0.00000  Uiso   1.00
C967   C     0.17279   0.85112   0.94363   0.00000  Uiso   1.00
C968   C     0.18544   0.83248   0.51317   0.00000  Uiso   1.00
C969   C     0.22556   0.82033   0.98901   0.00000  Uiso   1.00
C970   C     0.24036   0.82677   0.94317   0.00000  Uiso   1.00
C971   C     0.21390   0.84106   0.92080   0.00000  Uiso   1.00
H972   H     0.28109   0.79349   0.99441   0.00000  Uiso   1.00
H973   H     0.18512   0.68966   0.65776   0.00000  Uiso   1.00
H974   H     0.20199   0.97155   0.64803   0.00000  Uiso   1.00
H975   H     0.24087   0.68329   0.63595   0.00000  Uiso   1.00
H976   H     0.13729   0.82661   0.57620   0.00000  Uiso   1.00
H977   H     0.07775   0.90872   0.51066   0.00000  Uiso   1.00
H978   H     0.22743   0.84657   0.88589   0.00000  Uiso   1.00
H979   H     0.29358   0.79503   0.81505   0.00000  Uiso   1.00
H980   H     0.30841   0.72566   0.80495   0.00000  Uiso   1.00
H981   H     0.02399   0.75736   0.80975   0.00000  Uiso   1.00
H982   H     0.01599   0.73695   0.75486   0.00000  Uiso   1.00
H983   H     0.22956   0.70339   0.71397   0.00000  Uiso   1.00
I984   I     0.27756   0.77585   0.58998   0.00000  Uiso   1.00
I985   I     0.09420   0.99271   0.81291   0.00000  Uiso   1.00
I986   I     0.30244   0.81558   0.90529   0.00000  Uiso   1.00
I987   I     0.06132   0.90420   0.92089   0.00000  Uiso   1.00
I988   I     0.12627   0.90898   0.57980   0.00000  Uiso   1.00
I989   I     0.03303   0.89366   0.70171   0.00000  Uiso   1.00
N990   N     0.31477   0.78646   0.78571   0.00000  Uiso   1.00
N991   N     0.21628   0.67424   0.70446   0.00000  Uiso   1.00
O992   O     0.16667   0.83333   0.75000   0.00000  Uiso   1.00
O993   O     0.15451   0.79304   0.65459   0.00000  Uiso   1.00
O994   O     0.12940   0.87058   0.84968   0.00000  Uiso   1.00
O995   O     0.20824   0.84425   0.64606   0.00000  Uiso   1.00
O996   O     0.17451   0.82546   0.84968   0.00000  Uiso   1.00
O997   O     0.17930   0.74686   0.78214   0.00000  Uiso   1.00
O998   O     0.14632   0.92751   0.77014   0.00000  Uiso   1.00
O999   O     0.07412   0.79958   0.73413   0.00000  Uiso   1.00
O1000  O     0.26693   0.85939   0.71361   0.00000  Uiso   1.00
O1001  O     0.07071   0.85544   0.78213   0.00000  Uiso   1.00
O1002  O     0.25491   0.81892   0.77014   0.00000  Uiso   1.00
O1003  O     0.13760   0.73610   0.73413   0.00000  Uiso   1.00
O1004  O     0.20345   0.92286   0.71361   0.00000  Uiso   1.00
Zn1005 Zn    0.19338   0.80661   0.78734   0.00000  Uiso   1.00
Zn1006 Zn    0.13379   0.79124   0.71876   0.00000  Uiso   1.00
Zn1007 Zn    0.21056   0.86442   0.70657   0.00000  Uiso   1.00
Zn1008 Zn    0.12893   0.87106   0.78734   0.00000  Uiso   1.00
C1009  C     0.38636   0.82596   0.75983   0.00000  Uiso   1.00
C1010  C     0.50287   0.82232   0.55800   0.00000  Uiso   1.00
C1011  C     0.56947   0.79796   0.55742   0.00000  Uiso   1.00
C1012  C     0.61404   0.84074   0.74062   0.00000  Uiso   1.00
C1013  C     0.47697   0.86203   0.92060   0.00000  Uiso   1.00
C1014  C     0.65932   0.84574   0.74011   0.00000  Uiso   1.00
C1015  C     0.34119   0.82099   0.76328   0.00000  Uiso   1.00
C1016  C     0.51378   0.98915   0.73687   0.00000  Uiso   1.00
C1017  C     0.48496   0.67907   0.76423   0.00000  Uiso   1.00
C1018  C     0.48974   0.72275   0.76003   0.00000  Uiso   1.00
C1019  C     0.50967   0.94449   0.74007   0.00000  Uiso   1.00
C1020  C     0.43596   0.89040   0.99225   0.00000  Uiso   1.00
C1021  C     0.51883   0.81492   0.62936   0.00000  Uiso   1.00
C1022  C     0.48281   0.85220   0.87114   0.00000  Uiso   1.00
C1023  C     0.58356   0.80269   0.51155   0.00000  Uiso   1.00
C1024  C     0.52901   0.80816   0.58076   0.00000  Uiso   1.00
C1025  C     0.44139   0.88174   0.94623   0.00000  Uiso   1.00
C1026  C     0.33377   0.74984   0.78890   0.00000  Uiso   1.00
C1027  C     0.54392   0.67112   0.65928   0.00000  Uiso   1.00
C1028  C     0.46265   0.87734   0.51495   0.00000  Uiso   1.00
C1029  C     0.49514   0.85300   0.99137   0.00000  Uiso   1.00
C1030  C     0.50612   0.85112   0.94363   0.00000  Uiso   1.00
C1031  C     0.51878   0.83248   0.51317   0.00000  Uiso   1.00
C1032  C     0.55889   0.82033   0.98901   0.00000  Uiso   1.00
C1033  C     0.57369   0.82677   0.94317   0.00000  Uiso   1.00
C1034  C     0.54723   0.84106   0.92080   0.00000  Uiso   1.00
H1035  H     0.61442   0.79349   0.99441   0.00000  Uiso   1.00
H1036  H     0.51845   0.68966   0.65776   0.00000  Uiso   1.00
H1037  H     0.53532   0.97155   0.64803   0.00000  Uiso   1.00
H1038  H     0.57421   0.68329   0.63595   0.00000  Uiso   1.00
H1039  H     0.47063   0.82661   0.57620   0.00000  Uiso   1.00
H1040  H     0.41109   0.90872   0.51066   0.00000  Uiso   1.00
H1041  H     0.56076   0.84657   0.88589   0.00000  Uiso   1.00
H1042  H     0.62691   0.79503   0.81505   0.00000  Uiso   1.00
H1043  H     0.64174   0.72566   0.80495   0.00000  Uiso   1.00
H1044  H     0.35732   0.75736   0.80975   0.00000  Uiso   1.00
H1045  H     0.34933   0.73695   0.75486   0.00000  Uiso   1.00
H1046  H     0.56289   0.70339   0.71397   0.00000  Uiso   1.00
I1047  I     0.61089   0.77585   0.58998   0.00000  Uiso   1.00
I1048  I     0.42753   0.99271   0.81291   0.00000  Uiso   1.00
I1049  I     0.63577   0.81558   0.90529   0.00000  Uiso   1.00
I1050  I     0.39465   0.90420   0.92089   0.00000  Uiso   1.00
I1051  I     0.45960   0.90898   0.57980   0.00000  Uiso   1.00
I1052  I     0.36637   0.89366   0.70171   0.00000  Uiso   1.00
N1053  N     0.64810   0.78646   0.78571   0.00000  Uiso   1.00
N1054  N     0.54962   0.67424   0.70446   0.00000  Uiso   1.00
O1055  O     0.50000   0.83333   0.75000   0.00000  Uiso   1.00
O1056  O     0.48784   0.79304   0.65459   0.00000  Uiso   1.00
O1057  O     0.46274   0.87058   0.84968   0.00000  Uiso   1.00
O1058  O     0.54157   0.84425   0.64606   0.00000  Uiso   1.00
O1059  O     0.50785   0.82546   0.84968   0.00000  Uiso   1.00
O1060  O     0.51264   0.74686   0.78214   0.00000  Uiso   1.00
O1061  O     0.47965   0.92751   0.77014   0.00000  Uiso   1.00
O1062  O     0.40745   0.79958   0.73413   0.00000  Uiso   1.00
O1063  O     0.60026   0.85939   0.71361   0.00000  Uiso   1.00
O1064  O     0.40405   0.85544   0.78213   0.00000  Uiso   1.00
O1065  O     0.58824   0.81892   0.77014   0.00000  Uiso   1.00
O1066  O     0.47093   0.73610   0.73413   0.00000  Uiso   1.00
O1067  O     0.53678   0.92286   0.71361   0.00000  Uiso   1.00
Zn1068 Zn    0.52672   0.80661   0.78734   0.00000  Uiso   1.00
Zn1069 Zn    0.46713   0.79124   0.71876   0.00000  Uiso   1.00
Zn1070 Zn    0.54389   0.86442   0.70657   0.00000  Uiso   1.00
Zn1071 Zn    0.46226   0.87106   0.78734   0.00000  Uiso   1.00
C1072  C     0.71970   0.82596   0.75983   0.00000  Uiso   1.00
C1073  C     0.83620   0.82232   0.55800   0.00000  Uiso   1.00
C1074  C     0.90280   0.79796   0.55742   0.00000  Uiso   1.00
C1075  C     0.94738   0.84074   0.74062   0.00000  Uiso   1.00
C1076  C     0.81030   0.86203   0.92060   0.00000  Uiso   1.00
C1077  C     0.99266   0.84574   0.74011   0.00000  Uiso   1.00
C1078  C     0.67452   0.82099   0.76328   0.00000  Uiso   1.00
C1079  C     0.84711   0.98915   0.73687   0.00000  Uiso   1.00
C1080  C     0.81829   0.67907   0.76423   0.00000  Uiso   1.00
C1081  C     0.82307   0.72275   0.76003   0.00000  Uiso   1.00
C1082  C     0.84300   0.94449   0.74007   0.00000  Uiso   1.00
C1083  C     0.76929   0.89040   0.99225   0.00000  Uiso   1.00
C1084  C     0.85216   0.81492   0.62936   0.00000  Uiso   1.00
C1085  C     0.81614   0.85220   0.87114   0.00000  Uiso   1.00
C1086  C     0.91690   0.80269   0.51155   0.00000  Uiso   1.00
C1087  C     0.86235   0.80816   0.58076   0.00000  Uiso   1.00
C1088  C     0.77473   0.88174   0.94623   0.00000  Uiso   1.00
C1089  C     0.66710   0.74984   0.78890   0.00000  Uiso   1.00
C1090  C     0.87725   0.67112   0.65928   0.00000  Uiso   1.00
C1091  C     0.79598   0.87734   0.51495   0.00000  Uiso   1.00
C1092  C     0.82847   0.85300   0.99137   0.00000  Uiso   1.00
C1093  C     0.83946   0.85112   0.94363   0.00000  Uiso   1.00
C1094  C     0.85211   0.83248   0.51317   0.00000  Uiso   1.00
C1095  C     0.89223   0.82033   0.98901   0.00000  Uiso   1.00
C1096  C     0.90703   0.82677   0.94317   0.00000  Uiso   1.00
C1097  C     0.88056   0.84106   0.92080   0.00000  Uiso   1.00
H1098  H     0.94776   0.79349   0.99441   0.00000  Uiso   1.00
H1099  H     0.85179   0.68966   0.65776   0.00000  Uiso   1.00
H1100  H     0.86865   0.97155   0.64803   0.00000  Uiso   1.00
H1101  H     0.90754   0.68329   0.63595   0.00000  Uiso   1.00
H1102  H     0.80396   0.82661   0.57620   0.00000  Uiso   1.00
H1103  H     0.74442   0.90872   0.51066   0.00000  Uiso   1.00
H1104  H     0.89409   0.84657   0.88589   0.00000  Uiso   1.00
H1105  H     0.96024   0.79503   0.81505   0.00000  Uiso   1.00
H1106  H     0.97508   0.72566   0.80495   0.00000  Uiso   1.00
H1107  H     0.69066   0.75736   0.80975   0.00000  Uiso   1.00
H1108  H     0.68266   0.73695   0.75486   0.00000  Uiso   1.00
H1109  H     0.89622   0.70339   0.71397   0.00000  Uiso   1.00
I1110  I     0.94423   0.77585   0.58998   0.00000  Uiso   1.00
I1111  I     0.76086   0.99271   0.81291   0.00000  Uiso   1.00
I1112  I     0.96910   0.81558   0.90529   0.00000  Uiso   1.00
I1113  I     0.72798   0.90420   0.92089   0.00000  Uiso   1.00
I1114  I     0.79294   0.90898   0.57980   0.00000  Uiso   1.00
I1115  I     0.69970   0.89366   0.70171   0.00000  Uiso   1.00
N1116  N     0.98144   0.78646   0.78571   0.00000  Uiso   1.00
N1117  N     0.88295   0.67424   0.70446   0.00000  Uiso   1.00
O1118  O     0.83333   0.83333   0.75000   0.00000  Uiso   1.00
O1119  O     0.82118   0.79304   0.65459   0.00000  Uiso   1.00
O1120  O     0.79607   0.87058   0.84968   0.00000  Uiso   1.00
O1121  O     0.87491   0.84425   0.64606   0.00000  Uiso   1.00
O1122  O     0.84118   0.82546   0.84968   0.00000  Uiso   1.00
O1123  O     0.84597   0.74686   0.78214   0.00000  Uiso   1.00
O1124  O     0.81298   0.92751   0.77014   0.00000  Uiso   1.00
O1125  O     0.74078   0.79958   0.73413   0.00000  Uiso   1.00
O1126  O     0.93360   0.85939   0.71361   0.00000  Uiso   1.00
O1127  O     0.73738   0.85544   0.78213   0.00000  Uiso   1.00
O1128  O     0.92158   0.81892   0.77014   0.00000  Uiso   1.00
O1129  O     0.80426   0.73610   0.73413   0.00000  Uiso   1.00
O1130  O     0.87012   0.92286   0.71361   0.00000  Uiso   1.00
Zn1131 Zn    0.86005   0.80661   0.78734   0.00000  Uiso   1.00
Zn1132 Zn    0.80046   0.79124   0.71876   0.00000  Uiso   1.00
Zn1133 Zn    0.87723   0.86442   0.70657   0.00000  Uiso   1.00
Zn1134 Zn    0.79560   0.87106   0.78734   0.00000  Uiso   1.00
loop_
_geom_bond_atom_site_label_1
_geom_bond_atom_site_label_2
_geom_bond_distance
_geom_bond_site_symmetry_2
_ccdc_geom_bond_type
C1     O54     1.262   .     A
C1     O56     1.279   .     A
C1     C7      1.438   .     S
C2     C16     1.391   .     A
C2     C23     1.405   .     A
C2     H31     1.079   .     S
C3     I39     2.124   .     S
C3     C16     1.401   .     A
C3     C15     1.390   .     A
C4     O57     1.270   .     A
C4     O55     1.286   .     A
C4     C6      1.460   .     S
C5     C14     1.496   .     S
C5     C17     1.424   .     A
C5     C22     1.430   .     A
C6     C70     1.356   .     S
C6     I107    2.138   .     S
C7     C132    1.356   1_455 S
C7     N171    1.437   1_455 S
C8     C11     1.455   .     S
C8     C198    1.356   .     S
C8     N235    1.431   .     S
C9     C10     1.427   .     S
C9     C386    1.356   1_545 S
C9     I418    2.141   1_545 S
C10    O52     1.273   .     A
C10    O58     1.271   .     A
C11    O53     1.269   .     A
C11    O59     1.280   .     A
C12    C17     1.390   .     A
C12    C587    1.387   .     S
C12    H599    1.083   .     S
C13    O48     1.280   .     A
C13    O50     1.272   .     A
C13    C16     1.451   .     S
C14    O51     1.295   .     A
C14    O49     1.286   .     A
C15    C591    1.407   1_554 S
C15    H594    1.080   1_554 S
C17    I42     2.134   .     S
C18    H36     1.111   .     S
C18    H37     1.110   .     S
C18    H161    1.110   1_455 S
C18    N171    1.449   1_455 S
C19    N46     1.447   .     S
C19    H28     1.111   .     S
C19    H30     1.110   .     S
C19    H407    1.111   1_545 S
C20    I43     2.139   .     S
C20    C579    1.387   1_554 S
C20    C588    1.419   1_554 S
C21    C22     1.421   .     A
C21    C587    1.419   .     S
C21    C590    1.420   .     S
C22    C26     1.414   .     A
C23    C588    1.420   1_554 S
C23    C591    1.420   1_554 S
C24    C25     1.401   .     A
C24    C582    1.407   .     S
C24    C590    1.420   .     S
C25    I41     2.125   .     S
C25    C26     1.393   .     A
C26    H33     1.078   .     S
H27    C582    1.080   .     S
H29    C208    1.111   .     S
H32    C579    1.083   1_554 S
H34    N45     1.028   .     S
H35    C81     1.110   .     S
H38    N46     1.031   .     S
I40    C198    2.141   .     S
I44    C132    2.138   1_455 S
N45    C81     1.449   .     S
N45    C70     1.437   .     S
N46    C386    1.431   1_545 S
O47    Zn61    1.947   .     S
O47    Zn62    1.937   .     S
O47    Zn60    1.953   .     S
O47    Zn63    1.943   .     S
O48    Zn61    1.926   .     S
O49    Zn63    1.932   .     S
O50    Zn62    1.931   .     S
O51    Zn60    1.927   .     S
O52    Zn60    1.935   .     S
O53    Zn63    1.935   .     S
O54    Zn61    1.936   .     S
O55    Zn62    1.942   .     S
O56    Zn63    1.938   .     S
O57    Zn60    1.933   .     S
O58    Zn61    1.939   .     S
O59    Zn62    1.938   .     S
C64    O117    1.262   .     A
C64    O119    1.279   .     A
C64    C70     1.438   .     S
C65    C79     1.391   .     A
C65    C86     1.405   .     A
C65    H94     1.079   .     S
C66    I102    2.124   .     S
C66    C79     1.401   .     A
C66    C78     1.390   .     A
C67    O120    1.270   .     A
C67    O118    1.286   .     A
C67    C69     1.460   .     S
C68    C77     1.496   .     S
C68    C80     1.424   .     A
C68    C85     1.430   .     A
C69    C133    1.356   .     S
C69    I170    2.138   .     S
C71    C74     1.455   .     S
C71    C261    1.356   .     S
C71    N298    1.431   .     S
C72    C73     1.427   .     S
C72    C449    1.356   1_545 S
C72    I481    2.141   1_545 S
C73    O115    1.273   .     A
C73    O121    1.271   .     A
C74    O116    1.269   .     A
C74    O122    1.280   .     A
C75    C80     1.390   .     A
C75    C650    1.387   .     S
C75    H662    1.083   .     S
C76    O111    1.280   .     A
C76    O113    1.272   .     A
C76    C79     1.451   .     S
C77    O114    1.295   .     A
C77    O112    1.286   .     A
C78    C654    1.407   1_554 S
C78    H657    1.080   1_554 S
C80    I105    2.134   .     S
C81    H99     1.111   .     S
C81    H100    1.110   .     S
C82    N109    1.447   .     S
C82    H91     1.111   .     S
C82    H93     1.110   .     S
C82    H470    1.111   1_545 S
C83    I106    2.139   .     S
C83    C642    1.387   1_554 S
C83    C651    1.419   1_554 S
C84    C85     1.421   .     A
C84    C650    1.419   .     S
C84    C653    1.420   .     S
C85    C89     1.414   .     A
C86    C651    1.420   1_554 S
C86    C654    1.420   1_554 S
C87    C88     1.401   .     A
C87    C645    1.407   .     S
C87    C653    1.420   .     S
C88    I104    2.125   .     S
C88    C89     1.393   .     A
C89    H96     1.078   .     S
H90    C645    1.080   .     S
H92    C271    1.111   .     S
H95    C642    1.083   1_554 S
H97    N108    1.028   .     S
H98    C144    1.110   .     S
H101   N109    1.031   .     S
I103   C261    2.141   .     S
N108   C144    1.449   .     S
N108   C133    1.437   .     S
N109   C449    1.431   1_545 S
O110   Zn124   1.947   .     S
O110   Zn125   1.937   .     S
O110   Zn123   1.953   .     S
O110   Zn126   1.943   .     S
O111   Zn124   1.926   .     S
O112   Zn126   1.932   .     S
O113   Zn125   1.931   .     S
O114   Zn123   1.927   .     S
O115   Zn123   1.935   .     S
O116   Zn126   1.935   .     S
O117   Zn124   1.936   .     S
O118   Zn125   1.942   .     S
O119   Zn126   1.938   .     S
O120   Zn123   1.933   .     S
O121   Zn124   1.939   .     S
O122   Zn125   1.938   .     S
C127   O180    1.262   .     A
C127   O182    1.279   .     A
C127   C133    1.438   .     S
C128   C142    1.391   .     A
C128   C149    1.405   .     A
C128   H157    1.079   .     S
C129   I165    2.124   .     S
C129   C142    1.401   .     A
C129   C141    1.390   .     A
C130   O183    1.270   .     A
C130   O181    1.286   .     A
C130   C132    1.460   .     S
C131   C140    1.496   .     S
C131   C143    1.424   .     A
C131   C148    1.430   .     A
C132   C7      1.356   1_655 S
C132   I44     2.138   1_655 S
C134   C137    1.455   .     S
C134   C324    1.356   .     S
C134   N361    1.431   .     S
C135   C136    1.427   .     S
C135   C512    1.356   1_545 S
C135   I544    2.141   1_545 S
C136   O178    1.273   .     A
C136   O184    1.271   .     A
C137   O179    1.269   .     A
C137   O185    1.280   .     A
C138   C143    1.390   .     A
C138   C713    1.387   .     S
C138   H725    1.083   .     S
C139   O174    1.280   .     A
C139   O176    1.272   .     A
C139   C142    1.451   .     S
C140   O177    1.295   .     A
C140   O175    1.286   .     A
C141   C717    1.407   1_554 S
C141   H720    1.080   1_554 S
C143   I168    2.134   .     S
C144   H162    1.111   .     S
C144   H163    1.110   .     S
C145   N172    1.447   .     S
C145   H154    1.111   .     S
C145   H156    1.110   .     S
C145   H533    1.111   1_545 S
C146   I169    2.139   .     S
C146   C705    1.387   1_554 S
C146   C714    1.419   1_554 S
C147   C148    1.421   .     A
C147   C713    1.419   .     S
C147   C716    1.420   .     S
C148   C152    1.414   .     A
C149   C714    1.420   1_554 S
C149   C717    1.420   1_554 S
C150   C151    1.401   .     A
C150   C708    1.407   .     S
C150   C716    1.420   .     S
C151   I167    2.125   .     S
C151   C152    1.393   .     A
C152   H159    1.078   .     S
H153   C708    1.080   .     S
H155   C334    1.111   .     S
H158   C705    1.083   1_554 S
H160   N171    1.028   .     S
H161   C18     1.110   1_655 S
H164   N172    1.031   .     S
I166   C324    2.141   .     S
N171   C18     1.449   1_655 S
N171   C7      1.437   1_655 S
N172   C512    1.431   1_545 S
O173   Zn187   1.947   .     S
O173   Zn188   1.937   .     S
O173   Zn186   1.953   .     S
O173   Zn189   1.943   .     S
O174   Zn187   1.926   .     S
O175   Zn189   1.932   .     S
O176   Zn188   1.931   .     S
O177   Zn186   1.927   .     S
O178   Zn186   1.935   .     S
O179   Zn189   1.935   .     S
O180   Zn187   1.936   .     S
O181   Zn188   1.942   .     S
O182   Zn189   1.938   .     S
O183   Zn186   1.933   .     S
O184   Zn187   1.939   .     S
O185   Zn188   1.938   .     S
C190   O243    1.262   .     A
C190   O245    1.279   .     A
C190   C196    1.438   .     S
C191   C205    1.391   .     A
C191   C212    1.405   .     A
C191   H220    1.079   .     S
C192   I228    2.124   .     S
C192   C205    1.401   .     A
C192   C204    1.390   .     A
C193   O246    1.270   .     A
C193   O244    1.286   .     A
C193   C195    1.460   .     S
C194   C203    1.496   .     S
C194   C206    1.424   .     A
C194   C211    1.430   .     A
C195   C259    1.356   .     S
C195   I296    2.138   .     S
C196   C321    1.356   1_455 S
C196   N360    1.437   1_455 S
C197   C200    1.455   .     S
C197   C387    1.356   .     S
C197   N424    1.431   .     S
C198   C199    1.427   .     S
C199   O241    1.273   .     A
C199   O247    1.271   .     A
C200   O242    1.269   .     A
C200   O248    1.280   .     A
C201   C206    1.390   .     A
C201   C776    1.387   .     S
C201   H788    1.083   .     S
C202   O237    1.280   .     A
C202   O239    1.272   .     A
C202   C205    1.451   .     S
C203   O240    1.295   .     A
C203   O238    1.286   .     A
C204   C780    1.407   1_554 S
C204   H783    1.080   1_554 S
C206   I231    2.134   .     S
C207   H225    1.111   .     S
C207   H226    1.110   .     S
C207   H350    1.110   1_455 S
C207   N360    1.449   1_455 S
C208   N235    1.447   .     S
C208   H217    1.111   .     S
C208   H219    1.110   .     S
C209   I232    2.139   .     S
C209   C768    1.387   1_554 S
C209   C777    1.419   1_554 S
C210   C211    1.421   .     A
C210   C776    1.419   .     S
C210   C779    1.420   .     S
C211   C215    1.414   .     A
C212   C777    1.420   1_554 S
C212   C780    1.420   1_554 S
C213   C214    1.401   .     A
C213   C771    1.407   .     S
C213   C779    1.420   .     S
C214   I230    2.125   .     S
C214   C215    1.393   .     A
C215   H222    1.078   .     S
H216   C771    1.080   .     S
H218   C397    1.111   .     S
H221   C768    1.083   1_554 S
H223   N234    1.028   .     S
H224   C270    1.110   .     S
H227   N235    1.031   .     S
I229   C387    2.141   .     S
I233   C321    2.138   1_455 S
N234   C270    1.449   .     S
N234   C259    1.437   .     S
O236   Zn250   1.947   .     S
O236   Zn251   1.937   .     S
O236   Zn249   1.953   .     S
O236   Zn252   1.943   .     S
O237   Zn250   1.926   .     S
O238   Zn252   1.932   .     S
O239   Zn251   1.931   .     S
O240   Zn249   1.927   .     S
O241   Zn249   1.935   .     S
O242   Zn252   1.935   .     S
O243   Zn250   1.936   .     S
O244   Zn251   1.942   .     S
O245   Zn252   1.938   .     S
O246   Zn249   1.933   .     S
O247   Zn250   1.939   .     S
O248   Zn251   1.938   .     S
C253   O306    1.262   .     A
C253   O308    1.279   .     A
C253   C259    1.438   .     S
C254   C268    1.391   .     A
C254   C275    1.405   .     A
C254   H283    1.079   .     S
C255   I291    2.124   .     S
C255   C268    1.401   .     A
C255   C267    1.390   .     A
C256   O309    1.270   .     A
C256   O307    1.286   .     A
C256   C258    1.460   .     S
C257   C266    1.496   .     S
C257   C269    1.424   .     A
C257   C274    1.430   .     A
C258   C322    1.356   .     S
C258   I359    2.138   .     S
C260   C263    1.455   .     S
C260   C450    1.356   .     S
C260   N487    1.431   .     S
C261   C262    1.427   .     S
C262   O304    1.273   .     A
C262   O310    1.271   .     A
C263   O305    1.269   .     A
C263   O311    1.280   .     A
C264   C269    1.390   .     A
C264   C839    1.387   .     S
C264   H851    1.083   .     S
C265   O300    1.280   .     A
C265   O302    1.272   .     A
C265   C268    1.451   .     S
C266   O303    1.295   .     A
C266   O301    1.286   .     A
C267   C843    1.407   1_554 S
C267   H846    1.080   1_554 S
C269   I294    2.134   .     S
C270   H288    1.111   .     S
C270   H289    1.110   .     S
C271   N298    1.447   .     S
C271   H280    1.111   .     S
C271   H282    1.110   .     S
C272   I295    2.139   .     S
C272   C831    1.387   1_554 S
C272   C840    1.419   1_554 S
C273   C274    1.421   .     A
C273   C839    1.419   .     S
C273   C842    1.420   .     S
C274   C278    1.414   .     A
C275   C840    1.420   1_554 S
C275   C843    1.420   1_554 S
C276   C277    1.401   .     A
C276   C834    1.407   .     S
C276   C842    1.420   .     S
C277   I293    2.125   .     S
C277   C278    1.393   .     A
C278   H285    1.078   .     S
H279   C834    1.080   .     S
H281   C460    1.111   .     S
H284   C831    1.083   1_554 S
H286   N297    1.028   .     S
H287   C333    1.110   .     S
H290   N298    1.031   .     S
I292   C450    2.141   .     S
N297   C333    1.449   .     S
N297   C322    1.437   .     S
O299   Zn313   1.947   .     S
O299   Zn314   1.937   .     S
O299   Zn312   1.953   .     S
O299   Zn315   1.943   .     S
O300   Zn313   1.926   .     S
O301   Zn315   1.932   .     S
O302   Zn314   1.931   .     S
O303   Zn312   1.927   .     S
O304   Zn312   1.935   .     S
O305   Zn315   1.935   .     S
O306   Zn313   1.936   .     S
O307   Zn314   1.942   .     S
O308   Zn315   1.938   .     S
O309   Zn312   1.933   .     S
O310   Zn313   1.939   .     S
O311   Zn314   1.938   .     S
C316   O369    1.262   .     A
C316   O371    1.279   .     A
C316   C322    1.438   .     S
C317   C331    1.391   .     A
C317   C338    1.405   .     A
C317   H346    1.079   .     S
C318   I354    2.124   .     S
C318   C331    1.401   .     A
C318   C330    1.390   .     A
C319   O372    1.270   .     A
C319   O370    1.286   .     A
C319   C321    1.460   .     S
C320   C329    1.496   .     S
C320   C332    1.424   .     A
C320   C337    1.430   .     A
C321   C196    1.356   1_655 S
C321   I233    2.138   1_655 S
C323   C326    1.455   .     S
C323   C513    1.356   .     S
C323   N550    1.431   .     S
C324   C325    1.427   .     S
C325   O367    1.273   .     A
C325   O373    1.271   .     A
C326   O368    1.269   .     A
C326   O374    1.280   .     A
C327   C332    1.390   .     A
C327   C902    1.387   .     S
C327   H914    1.083   .     S
C328   O363    1.280   .     A
C328   O365    1.272   .     A
C328   C331    1.451   .     S
C329   O366    1.295   .     A
C329   O364    1.286   .     A
C330   C906    1.407   1_554 S
C330   H909    1.080   1_554 S
C332   I357    2.134   .     S
C333   H351    1.111   .     S
C333   H352    1.110   .     S
C334   N361    1.447   .     S
C334   H343    1.111   .     S
C334   H345    1.110   .     S
C335   I358    2.139   .     S
C335   C894    1.387   1_554 S
C335   C903    1.419   1_554 S
C336   C337    1.421   .     A
C336   C902    1.419   .     S
C336   C905    1.420   .     S
C337   C341    1.414   .     A
C338   C903    1.420   1_554 S
C338   C906    1.420   1_554 S
C339   C340    1.401   .     A
C339   C897    1.407   .     S
C339   C905    1.420   .     S
C340   I356    2.125   .     S
C340   C341    1.393   .     A
C341   H348    1.078   .     S
H342   C897    1.080   .     S
H344   C523    1.111   .     S
H347   C894    1.083   1_554 S
H349   N360    1.028   .     S
H350   C207    1.110   1_655 S
H353   N361    1.031   .     S
I355   C513    2.141   .     S
N360   C207    1.449   1_655 S
N360   C196    1.437   1_655 S
O362   Zn376   1.947   .     S
O362   Zn377   1.937   .     S
O362   Zn375   1.953   .     S
O362   Zn378   1.943   .     S
O363   Zn376   1.926   .     S
O364   Zn378   1.932   .     S
O365   Zn377   1.931   .     S
O366   Zn375   1.927   .     S
O367   Zn375   1.935   .     S
O368   Zn378   1.935   .     S
O369   Zn376   1.936   .     S
O370   Zn377   1.942   .     S
O371   Zn378   1.938   .     S
O372   Zn375   1.933   .     S
O373   Zn376   1.939   .     S
O374   Zn377   1.938   .     S
C379   O432    1.262   .     A
C379   O434    1.279   .     A
C379   C385    1.438   .     S
C380   C394    1.391   .     A
C380   C401    1.405   .     A
C380   H409    1.079   .     S
C381   I417    2.124   .     S
C381   C394    1.401   .     A
C381   C393    1.390   .     A
C382   O435    1.270   .     A
C382   O433    1.286   .     A
C382   C384    1.460   .     S
C383   C392    1.496   .     S
C383   C395    1.424   .     A
C383   C400    1.430   .     A
C384   C448    1.356   .     S
C384   I485    2.138   .     S
C385   C510    1.356   1_455 S
C385   N549    1.437   1_455 S
C386   C389    1.455   .     S
C386   C9      1.356   1_565 S
C386   N46     1.431   1_565 S
C387   C388    1.427   .     S
C388   O430    1.273   .     A
C388   O436    1.271   .     A
C389   O431    1.269   .     A
C389   O437    1.280   .     A
C390   C395    1.390   .     A
C390   C965    1.387   .     S
C390   H977    1.083   .     S
C391   O426    1.280   .     A
C391   O428    1.272   .     A
C391   C394    1.451   .     S
C392   O429    1.295   .     A
C392   O427    1.286   .     A
C393   C969    1.407   1_554 S
C393   H972    1.080   1_554 S
C395   I420    2.134   .     S
C396   H414    1.111   .     S
C396   H415    1.110   .     S
C396   H539    1.110   1_455 S
C396   N549    1.449   1_455 S
C397   N424    1.447   .     S
C397   H406    1.111   .     S
C397   H408    1.110   .     S
C398   I421    2.139   .     S
C398   C957    1.387   1_554 S
C398   C966    1.419   1_554 S
C399   C400    1.421   .     A
C399   C965    1.419   .     S
C399   C968    1.420   .     S
C400   C404    1.414   .     A
C401   C966    1.420   1_554 S
C401   C969    1.420   1_554 S
C402   C403    1.401   .     A
C402   C960    1.407   .     S
C402   C968    1.420   .     S
C403   I419    2.125   .     S
C403   C404    1.393   .     A
C404   H411    1.078   .     S
H405   C960    1.080   .     S
H407   C19     1.111   1_565 S
H410   C957    1.083   1_554 S
H412   N423    1.028   .     S
H413   C459    1.110   .     S
H416   N424    1.031   .     S
I418   C9      2.141   1_565 S
I422   C510    2.138   1_455 S
N423   C459    1.449   .     S
N423   C448    1.437   .     S
O425   Zn439   1.947   .     S
O425   Zn440   1.937   .     S
O425   Zn438   1.953   .     S
O425   Zn441   1.943   .     S
O426   Zn439   1.926   .     S
O427   Zn441   1.932   .     S
O428   Zn440   1.931   .     S
O429   Zn438   1.927   .     S
O430   Zn438   1.935   .     S
O431   Zn441   1.935   .     S
O432   Zn439   1.936   .     S
O433   Zn440   1.942   .     S
O434   Zn441   1.938   .     S
O435   Zn438   1.933   .     S
O436   Zn439   1.939   .     S
O437   Zn440   1.938   .     S
C442   O495    1.262   .     A
C442   O497    1.279   .     A
C442   C448    1.438   .     S
C443   C457    1.391   .     A
C443   C464    1.405   .     A
C443   H472    1.079   .     S
C444   I480    2.124   .     S
C444   C457    1.401   .     A
C444   C456    1.390   .     A
C445   O498    1.270   .     A
C445   O496    1.286   .     A
C445   C447    1.460   .     S
C446   C455    1.496   .     S
C446   C458    1.424   .     A
C446   C463    1.430   .     A
C447   C511    1.356   .     S
C447   I548    2.138   .     S
C449   C452    1.455   .     S
C449   C72     1.356   1_565 S
C449   N109    1.431   1_565 S
C450   C451    1.427   .     S
C451   O493    1.273   .     A
C451   O499    1.271   .     A
C452   O494    1.269   .     A
C452   O500    1.280   .     A
C453   C458    1.390   .     A
C453   C1028   1.387   .     S
C453   H1040   1.083   .     S
C454   O489    1.280   .     A
C454   O491    1.272   .     A
C454   C457    1.451   .     S
C455   O492    1.295   .     A
C455   O490    1.286   .     A
C456   C1032   1.407   1_554 S
C456   H1035   1.080   1_554 S
C458   I483    2.134   .     S
C459   H477    1.111   .     S
C459   H478    1.110   .     S
C460   N487    1.447   .     S
C460   H469    1.111   .     S
C460   H471    1.110   .     S
C461   I484    2.139   .     S
C461   C1020   1.387   1_554 S
C461   C1029   1.419   1_554 S
C462   C463    1.421   .     A
C462   C1028   1.419   .     S
C462   C1031   1.420   .     S
C463   C467    1.414   .     A
C464   C1029   1.420   1_554 S
C464   C1032   1.420   1_554 S
C465   C466    1.401   .     A
C465   C1023   1.407   .     S
C465   C1031   1.420   .     S
C466   I482    2.125   .     S
C466   C467    1.393   .     A
C467   H474    1.078   .     S
H468   C1023   1.080   .     S
H470   C82     1.111   1_565 S
H473   C1020   1.083   1_554 S
H475   N486    1.028   .     S
H476   C522    1.110   .     S
H479   N487    1.031   .     S
I481   C72     2.141   1_565 S
N486   C522    1.449   .     S
N486   C511    1.437   .     S
O488   Zn502   1.947   .     S
O488   Zn503   1.937   .     S
O488   Zn501   1.953   .     S
O488   Zn504   1.943   .     S
O489   Zn502   1.926   .     S
O490   Zn504   1.932   .     S
O491   Zn503   1.931   .     S
O492   Zn501   1.927   .     S
O493   Zn501   1.935   .     S
O494   Zn504   1.935   .     S
O495   Zn502   1.936   .     S
O496   Zn503   1.942   .     S
O497   Zn504   1.938   .     S
O498   Zn501   1.933   .     S
O499   Zn502   1.939   .     S
O500   Zn503   1.938   .     S
C505   O558    1.262   .     A
C505   O560    1.279   .     A
C505   C511    1.438   .     S
C506   C520    1.391   .     A
C506   C527    1.405   .     A
C506   H535    1.079   .     S
C507   I543    2.124   .     S
C507   C520    1.401   .     A
C507   C519    1.390   .     A
C508   O561    1.270   .     A
C508   O559    1.286   .     A
C508   C510    1.460   .     S
C509   C518    1.496   .     S
C509   C521    1.424   .     A
C509   C526    1.430   .     A
C510   C385    1.356   1_655 S
C510   I422    2.138   1_655 S
C512   C515    1.455   .     S
C512   C135    1.356   1_565 S
C512   N172    1.431   1_565 S
C513   C514    1.427   .     S
C514   O556    1.273   .     A
C514   O562    1.271   .     A
C515   O557    1.269   .     A
C515   O563    1.280   .     A
C516   C521    1.390   .     A
C516   C1091   1.387   .     S
C516   H1103   1.083   .     S
C517   O552    1.280   .     A
C517   O554    1.272   .     A
C517   C520    1.451   .     S
C518   O555    1.295   .     A
C518   O553    1.286   .     A
C519   C1095   1.407   1_554 S
C519   H1098   1.080   1_554 S
C521   I546    2.134   .     S
C522   H540    1.111   .     S
C522   H541    1.110   .     S
C523   N550    1.447   .     S
C523   H532    1.111   .     S
C523   H534    1.110   .     S
C524   I547    2.139   .     S
C524   C1083   1.387   1_554 S
C524   C1092   1.419   1_554 S
C525   C526    1.421   .     A
C525   C1091   1.419   .     S
C525   C1094   1.420   .     S
C526   C530    1.414   .     A
C527   C1092   1.420   1_554 S
C527   C1095   1.420   1_554 S
C528   C529    1.401   .     A
C528   C1086   1.407   .     S
C528   C1094   1.420   .     S
C529   I545    2.125   .     S
C529   C530    1.393   .     A
C530   H537    1.078   .     S
H531   C1086   1.080   .     S
H533   C145    1.111   1_565 S
H536   C1083   1.083   1_554 S
H538   N549    1.028   .     S
H539   C396    1.110   1_655 S
H542   N550    1.031   .     S
I544   C135    2.141   1_565 S
N549   C396    1.449   1_655 S
N549   C385    1.437   1_655 S
O551   Zn565   1.947   .     S
O551   Zn566   1.937   .     S
O551   Zn564   1.953   .     S
O551   Zn567   1.943   .     S
O552   Zn565   1.926   .     S
O553   Zn567   1.932   .     S
O554   Zn566   1.931   .     S
O555   Zn564   1.927   .     S
O556   Zn564   1.935   .     S
O557   Zn567   1.935   .     S
O558   Zn565   1.936   .     S
O559   Zn566   1.942   .     S
O560   Zn567   1.938   .     S
O561   Zn564   1.933   .     S
O562   Zn565   1.939   .     S
O563   Zn566   1.938   .     S
C568   O621    1.262   .     A
C568   O623    1.279   .     A
C568   C574    1.438   .     S
C569   C583    1.391   .     A
C569   C590    1.405   .     A
C569   H598    1.079   .     S
C570   I606    2.124   .     S
C570   C583    1.401   .     A
C570   C582    1.390   .     A
C571   O624    1.270   .     A
C571   O622    1.286   .     A
C571   C573    1.460   .     S
C572   C581    1.496   .     S
C572   C584    1.424   .     A
C572   C589    1.430   .     A
C573   C637    1.356   .     S
C573   I674    2.138   .     S
C574   C699    1.356   1_455 S
C574   N738    1.437   1_455 S
C575   C578    1.455   .     S
C575   C765    1.356   .     S
C575   N802    1.431   .     S
C576   C577    1.427   .     S
C576   C953    1.356   1_545 S
C576   I985    2.141   1_545 S
C577   O619    1.273   .     A
C577   O625    1.271   .     A
C578   O620    1.269   .     A
C578   O626    1.280   .     A
C579   C584    1.390   .     A
C579   C20     1.387   1_556 S
C579   H32     1.083   1_556 S
C580   O615    1.280   .     A
C580   O617    1.272   .     A
C580   C583    1.451   .     S
C581   O618    1.295   .     A
C581   O616    1.286   .     A
C584   I609    2.134   .     S
C585   H603    1.111   .     S
C585   H604    1.110   .     S
C585   H728    1.110   1_455 S
C585   N738    1.449   1_455 S
C586   N613    1.447   .     S
C586   H595    1.111   .     S
C586   H597    1.110   .     S
C586   H974    1.111   1_545 S
C587   I610    2.139   .     S
C588   C589    1.421   .     A
C588   C20     1.419   1_556 S
C588   C23     1.420   1_556 S
C589   C593    1.414   .     A
C591   C592    1.401   .     A
C591   C15     1.407   1_556 S
C591   C23     1.420   1_556 S
C592   I608    2.125   .     S
C592   C593    1.393   .     A
C593   H600    1.078   .     S
H594   C15     1.080   1_556 S
H596   C775    1.111   .     S
H601   N612    1.028   .     S
H602   C648    1.110   .     S
H605   N613    1.031   .     S
I607   C765    2.141   .     S
I611   C699    2.138   1_455 S
N612   C648    1.449   .     S
N612   C637    1.437   .     S
N613   C953    1.431   1_545 S
O614   Zn628   1.947   .     S
O614   Zn629   1.937   .     S
O614   Zn627   1.953   .     S
O614   Zn630   1.943   .     S
O615   Zn628   1.926   .     S
O616   Zn630   1.932   .     S
O617   Zn629   1.931   .     S
O618   Zn627   1.927   .     S
O619   Zn627   1.935   .     S
O620   Zn630   1.935   .     S
O621   Zn628   1.936   .     S
O622   Zn629   1.942   .     S
O623   Zn630   1.938   .     S
O624   Zn627   1.933   .     S
O625   Zn628   1.939   .     S
O626   Zn629   1.938   .     S
C631   O684    1.262   .     A
C631   O686    1.279   .     A
C631   C637    1.438   .     S
C632   C646    1.391   .     A
C632   C653    1.405   .     A
C632   H661    1.079   .     S
C633   I669    2.124   .     S
C633   C646    1.401   .     A
C633   C645    1.390   .     A
C634   O687    1.270   .     A
C634   O685    1.286   .     A
C634   C636    1.460   .     S
C635   C644    1.496   .     S
C635   C647    1.424   .     A
C635   C652    1.430   .     A
C636   C700    1.356   .     S
C636   I737    2.138   .     S
C638   C641    1.455   .     S
C638   C828    1.356   .     S
C638   N865    1.431   .     S
C639   C640    1.427   .     S
C639   C1016   1.356   1_545 S
C639   I1048   2.141   1_545 S
C640   O682    1.273   .     A
C640   O688    1.271   .     A
C641   O683    1.269   .     A
C641   O689    1.280   .     A
C642   C647    1.390   .     A
C642   C83     1.387   1_556 S
C642   H95     1.083   1_556 S
C643   O678    1.280   .     A
C643   O680    1.272   .     A
C643   C646    1.451   .     S
C644   O681    1.295   .     A
C644   O679    1.286   .     A
C647   I672    2.134   .     S
C648   H666    1.111   .     S
C648   H667    1.110   .     S
C649   N676    1.447   .     S
C649   H658    1.111   .     S
C649   H660    1.110   .     S
C649   H1037   1.111   1_545 S
C650   I673    2.139   .     S
C651   C652    1.421   .     A
C651   C83     1.419   1_556 S
C651   C86     1.420   1_556 S
C652   C656    1.414   .     A
C654   C655    1.401   .     A
C654   C78     1.407   1_556 S
C654   C86     1.420   1_556 S
C655   I671    2.125   .     S
C655   C656    1.393   .     A
C656   H663    1.078   .     S
H657   C78     1.080   1_556 S
H659   C838    1.111   .     S
H664   N675    1.028   .     S
H665   C711    1.110   .     S
H668   N676    1.031   .     S
I670   C828    2.141   .     S
N675   C711    1.449   .     S
N675   C700    1.437   .     S
N676   C1016   1.431   1_545 S
O677   Zn691   1.947   .     S
O677   Zn692   1.937   .     S
O677   Zn690   1.953   .     S
O677   Zn693   1.943   .     S
O678   Zn691   1.926   .     S
O679   Zn693   1.932   .     S
O680   Zn692   1.931   .     S
O681   Zn690   1.927   .     S
O682   Zn690   1.935   .     S
O683   Zn693   1.935   .     S
O684   Zn691   1.936   .     S
O685   Zn692   1.942   .     S
O686   Zn693   1.938   .     S
O687   Zn690   1.933   .     S
O688   Zn691   1.939   .     S
O689   Zn692   1.938   .     S
C694   O747    1.262   .     A
C694   O749    1.279   .     A
C694   C700    1.438   .     S
C695   C709    1.391   .     A
C695   C716    1.405   .     A
C695   H724    1.079   .     S
C696   I732    2.124   .     S
C696   C709    1.401   .     A
C696   C708    1.390   .     A
C697   O750    1.270   .     A
C697   O748    1.286   .     A
C697   C699    1.460   .     S
C698   C707    1.496   .     S
C698   C710    1.424   .     A
C698   C715    1.430   .     A
C699   C574    1.356   1_655 S
C699   I611    2.138   1_655 S
C701   C704    1.455   .     S
C701   C891    1.356   .     S
C701   N928    1.431   .     S
C702   C703    1.427   .     S
C702   C1079   1.356   1_545 S
C702   I1111   2.141   1_545 S
C703   O745    1.273   .     A
C703   O751    1.271   .     A
C704   O746    1.269   .     A
C704   O752    1.280   .     A
C705   C710    1.390   .     A
C705   C146    1.387   1_556 S
C705   H158    1.083   1_556 S
C706   O741    1.280   .     A
C706   O743    1.272   .     A
C706   C709    1.451   .     S
C707   O744    1.295   .     A
C707   O742    1.286   .     A
C710   I735    2.134   .     S
C711   H729    1.111   .     S
C711   H730    1.110   .     S
C712   N739    1.447   .     S
C712   H721    1.111   .     S
C712   H723    1.110   .     S
C712   H1100   1.111   1_545 S
C713   I736    2.139   .     S
C714   C715    1.421   .     A
C714   C146    1.419   1_556 S
C714   C149    1.420   1_556 S
C715   C719    1.414   .     A
C717   C718    1.401   .     A
C717   C141    1.407   1_556 S
C717   C149    1.420   1_556 S
C718   I734    2.125   .     S
C718   C719    1.393   .     A
C719   H726    1.078   .     S
H720   C141    1.080   1_556 S
H722   C901    1.111   .     S
H727   N738    1.028   .     S
H728   C585    1.110   1_655 S
H731   N739    1.031   .     S
I733   C891    2.141   .     S
N738   C585    1.449   1_655 S
N738   C574    1.437   1_655 S
N739   C1079   1.431   1_545 S
O740   Zn754   1.947   .     S
O740   Zn755   1.937   .     S
O740   Zn753   1.953   .     S
O740   Zn756   1.943   .     S
O741   Zn754   1.926   .     S
O742   Zn756   1.932   .     S
O743   Zn755   1.931   .     S
O744   Zn753   1.927   .     S
O745   Zn753   1.935   .     S
O746   Zn756   1.935   .     S
O747   Zn754   1.936   .     S
O748   Zn755   1.942   .     S
O749   Zn756   1.938   .     S
O750   Zn753   1.933   .     S
O751   Zn754   1.939   .     S
O752   Zn755   1.938   .     S
C757   O810    1.262   .     A
C757   O812    1.279   .     A
C757   C763    1.438   .     S
C758   C772    1.391   .     A
C758   C779    1.405   .     A
C758   H787    1.079   .     S
C759   I795    2.124   .     S
C759   C772    1.401   .     A
C759   C771    1.390   .     A
C760   O813    1.270   .     A
C760   O811    1.286   .     A
C760   C762    1.460   .     S
C761   C770    1.496   .     S
C761   C773    1.424   .     A
C761   C778    1.430   .     A
C762   C826    1.356   .     S
C762   I863    2.138   .     S
C763   C888    1.356   1_455 S
C763   N927    1.437   1_455 S
C764   C767    1.455   .     S
C764   C954    1.356   .     S
C764   N991    1.431   .     S
C765   C766    1.427   .     S
C766   O808    1.273   .     A
C766   O814    1.271   .     A
C767   O809    1.269   .     A
C767   O815    1.280   .     A
C768   C773    1.390   .     A
C768   C209    1.387   1_556 S
C768   H221    1.083   1_556 S
C769   O804    1.280   .     A
C769   O806    1.272   .     A
C769   C772    1.451   .     S
C770   O807    1.295   .     A
C770   O805    1.286   .     A
C773   I798    2.134   .     S
C774   H792    1.111   .     S
C774   H793    1.110   .     S
C774   H917    1.110   1_455 S
C774   N927    1.449   1_455 S
C775   N802    1.447   .     S
C775   H784    1.111   .     S
C775   H786    1.110   .     S
C776   I799    2.139   .     S
C777   C778    1.421   .     A
C777   C209    1.419   1_556 S
C777   C212    1.420   1_556 S
C778   C782    1.414   .     A
C780   C781    1.401   .     A
C780   C204    1.407   1_556 S
C780   C212    1.420   1_556 S
C781   I797    2.125   .     S
C781   C782    1.393   .     A
C782   H789    1.078   .     S
H783   C204    1.080   1_556 S
H785   C964    1.111   .     S
H790   N801    1.028   .     S
H791   C837    1.110   .     S
H794   N802    1.031   .     S
I796   C954    2.141   .     S
I800   C888    2.138   1_455 S
N801   C837    1.449   .     S
N801   C826    1.437   .     S
O803   Zn817   1.947   .     S
O803   Zn818   1.937   .     S
O803   Zn816   1.953   .     S
O803   Zn819   1.943   .     S
O804   Zn817   1.926   .     S
O805   Zn819   1.932   .     S
O806   Zn818   1.931   .     S
O807   Zn816   1.927   .     S
O808   Zn816   1.935   .     S
O809   Zn819   1.935   .     S
O810   Zn817   1.936   .     S
O811   Zn818   1.942   .     S
O812   Zn819   1.938   .     S
O813   Zn816   1.933   .     S
O814   Zn817   1.939   .     S
O815   Zn818   1.938   .     S
C820   O873    1.262   .     A
C820   O875    1.279   .     A
C820   C826    1.438   .     S
C821   C835    1.391   .     A
C821   C842    1.405   .     A
C821   H850    1.079   .     S
C822   I858    2.124   .     S
C822   C835    1.401   .     A
C822   C834    1.390   .     A
C823   O876    1.270   .     A
C823   O874    1.286   .     A
C823   C825    1.460   .     S
C824   C833    1.496   .     S
C824   C836    1.424   .     A
C824   C841    1.430   .     A
C825   C889    1.356   .     S
C825   I926    2.138   .     S
C827   C830    1.455   .     S
C827   C1017   1.356   .     S
C827   N1054   1.431   .     S
C828   C829    1.427   .     S
C829   O871    1.273   .     A
C829   O877    1.271   .     A
C830   O872    1.269   .     A
C830   O878    1.280   .     A
C831   C836    1.390   .     A
C831   C272    1.387   1_556 S
C831   H284    1.083   1_556 S
C832   O867    1.280   .     A
C832   O869    1.272   .     A
C832   C835    1.451   .     S
C833   O870    1.295   .     A
C833   O868    1.286   .     A
C836   I861    2.134   .     S
C837   H855    1.111   .     S
C837   H856    1.110   .     S
C838   N865    1.447   .     S
C838   H847    1.111   .     S
C838   H849    1.110   .     S
C839   I862    2.139   .     S
C840   C841    1.421   .     A
C840   C272    1.419   1_556 S
C840   C275    1.420   1_556 S
C841   C845    1.414   .     A
C843   C844    1.401   .     A
C843   C267    1.407   1_556 S
C843   C275    1.420   1_556 S
C844   I860    2.125   .     S
C844   C845    1.393   .     A
C845   H852    1.078   .     S
H846   C267    1.080   1_556 S
H848   C1027   1.111   .     S
H853   N864    1.028   .     S
H854   C900    1.110   .     S
H857   N865    1.031   .     S
I859   C1017   2.141   .     S
N864   C900    1.449   .     S
N864   C889    1.437   .     S
O866   Zn880   1.947   .     S
O866   Zn881   1.937   .     S
O866   Zn879   1.953   .     S
O866   Zn882   1.943   .     S
O867   Zn880   1.926   .     S
O868   Zn882   1.932   .     S
O869   Zn881   1.931   .     S
O870   Zn879   1.927   .     S
O871   Zn879   1.935   .     S
O872   Zn882   1.935   .     S
O873   Zn880   1.936   .     S
O874   Zn881   1.942   .     S
O875   Zn882   1.938   .     S
O876   Zn879   1.933   .     S
O877   Zn880   1.939   .     S
O878   Zn881   1.938   .     S
C883   O936    1.262   .     A
C883   O938    1.279   .     A
C883   C889    1.438   .     S
C884   C898    1.391   .     A
C884   C905    1.405   .     A
C884   H913    1.079   .     S
C885   I921    2.124   .     S
C885   C898    1.401   .     A
C885   C897    1.390   .     A
C886   O939    1.270   .     A
C886   O937    1.286   .     A
C886   C888    1.460   .     S
C887   C896    1.496   .     S
C887   C899    1.424   .     A
C887   C904    1.430   .     A
C888   C763    1.356   1_655 S
C888   I800    2.138   1_655 S
C890   C893    1.455   .     S
C890   C1080   1.356   .     S
C890   N1117   1.431   .     S
C891   C892    1.427   .     S
C892   O934    1.273   .     A
C892   O940    1.271   .     A
C893   O935    1.269   .     A
C893   O941    1.280   .     A
C894   C899    1.390   .     A
C894   C335    1.387   1_556 S
C894   H347    1.083   1_556 S
C895   O930    1.280   .     A
C895   O932    1.272   .     A
C895   C898    1.451   .     S
C896   O933    1.295   .     A
C896   O931    1.286   .     A
C899   I924    2.134   .     S
C900   H918    1.111   .     S
C900   H919    1.110   .     S
C901   N928    1.447   .     S
C901   H910    1.111   .     S
C901   H912    1.110   .     S
C902   I925    2.139   .     S
C903   C904    1.421   .     A
C903   C335    1.419   1_556 S
C903   C338    1.420   1_556 S
C904   C908    1.414   .     A
C906   C907    1.401   .     A
C906   C330    1.407   1_556 S
C906   C338    1.420   1_556 S
C907   I923    2.125   .     S
C907   C908    1.393   .     A
C908   H915    1.078   .     S
H909   C330    1.080   1_556 S
H911   C1090   1.111   .     S
H916   N927    1.028   .     S
H917   C774    1.110   1_655 S
H920   N928    1.031   .     S
I922   C1080   2.141   .     S
N927   C774    1.449   1_655 S
N927   C763    1.437   1_655 S
O929   Zn943   1.947   .     S
O929   Zn944   1.937   .     S
O929   Zn942   1.953   .     S
O929   Zn945   1.943   .     S
O930   Zn943   1.926   .     S
O931   Zn945   1.932   .     S
O932   Zn944   1.931   .     S
O933   Zn942   1.927   .     S
O934   Zn942   1.935   .     S
O935   Zn945   1.935   .     S
O936   Zn943   1.936   .     S
O937   Zn944   1.942   .     S
O938   Zn945   1.938   .     S
O939   Zn942   1.933   .     S
O940   Zn943   1.939   .     S
O941   Zn944   1.938   .     S
C946   O999    1.262   .     A
C946   O1001   1.279   .     A
C946   C952    1.438   .     S
C947   C961    1.391   .     A
C947   C968    1.405   .     A
C947   H976    1.079   .     S
C948   I984    2.124   .     S
C948   C961    1.401   .     A
C948   C960    1.390   .     A
C949   O1002   1.270   .     A
C949   O1000   1.286   .     A
C949   C951    1.460   .     S
C950   C959    1.496   .     S
C950   C962    1.424   .     A
C950   C967    1.430   .     A
C951   C1015   1.356   .     S
C951   I1052   2.138   .     S
C952   C1077   1.356   1_455 S
C952   N1116   1.437   1_455 S
C953   C956    1.455   .     S
C953   C576    1.356   1_565 S
C953   N613    1.431   1_565 S
C954   C955    1.427   .     S
C955   O997    1.273   .     A
C955   O1003   1.271   .     A
C956   O998    1.269   .     A
C956   O1004   1.280   .     A
C957   C962    1.390   .     A
C957   C398    1.387   1_556 S
C957   H410    1.083   1_556 S
C958   O993    1.280   .     A
C958   O995    1.272   .     A
C958   C961    1.451   .     S
C959   O996    1.295   .     A
C959   O994    1.286   .     A
C962   I987    2.134   .     S
C963   H981    1.111   .     S
C963   H982    1.110   .     S
C963   H1106   1.110   1_455 S
C963   N1116   1.449   1_455 S
C964   N991    1.447   .     S
C964   H973    1.111   .     S
C964   H975    1.110   .     S
C965   I988    2.139   .     S
C966   C967    1.421   .     A
C966   C398    1.419   1_556 S
C966   C401    1.420   1_556 S
C967   C971    1.414   .     A
C969   C970    1.401   .     A
C969   C393    1.407   1_556 S
C969   C401    1.420   1_556 S
C970   I986    2.125   .     S
C970   C971    1.393   .     A
C971   H978    1.078   .     S
H972   C393    1.080   1_556 S
H974   C586    1.111   1_565 S
H979   N990    1.028   .     S
H980   C1026   1.110   .     S
H983   N991    1.031   .     S
I985   C576    2.141   1_565 S
I989   C1077   2.138   1_455 S
N990   C1026   1.449   .     S
N990   C1015   1.437   .     S
O992   Zn1006  1.947   .     S
O992   Zn1007  1.937   .     S
O992   Zn1005  1.953   .     S
O992   Zn1008  1.943   .     S
O993   Zn1006  1.926   .     S
O994   Zn1008  1.932   .     S
O995   Zn1007  1.931   .     S
O996   Zn1005  1.927   .     S
O997   Zn1005  1.935   .     S
O998   Zn1008  1.935   .     S
O999   Zn1006  1.936   .     S
O1000  Zn1007  1.942   .     S
O1001  Zn1008  1.938   .     S
O1002  Zn1005  1.933   .     S
O1003  Zn1006  1.939   .     S
O1004  Zn1007  1.938   .     S
C1009  O1062   1.262   .     A
C1009  O1064   1.279   .     A
C1009  C1015   1.438   .     S
C1010  C1024   1.391   .     A
C1010  C1031   1.405   .     A
C1010  H1039   1.079   .     S
C1011  I1047   2.124   .     S
C1011  C1024   1.401   .     A
C1011  C1023   1.390   .     A
C1012  O1065   1.270   .     A
C1012  O1063   1.286   .     A
C1012  C1014   1.460   .     S
C1013  C1022   1.496   .     S
C1013  C1025   1.424   .     A
C1013  C1030   1.430   .     A
C1014  C1078   1.356   .     S
C1014  I1115   2.138   .     S
C1016  C1019   1.455   .     S
C1016  C639    1.356   1_565 S
C1016  N676    1.431   1_565 S
C1017  C1018   1.427   .     S
C1018  O1060   1.273   .     A
C1018  O1066   1.271   .     A
C1019  O1061   1.269   .     A
C1019  O1067   1.280   .     A
C1020  C1025   1.390   .     A
C1020  C461    1.387   1_556 S
C1020  H473    1.083   1_556 S
C1021  O1056   1.280   .     A
C1021  O1058   1.272   .     A
C1021  C1024   1.451   .     S
C1022  O1059   1.295   .     A
C1022  O1057   1.286   .     A
C1025  I1050   2.134   .     S
C1026  H1044   1.111   .     S
C1026  H1045   1.110   .     S
C1027  N1054   1.447   .     S
C1027  H1036   1.111   .     S
C1027  H1038   1.110   .     S
C1028  I1051   2.139   .     S
C1029  C1030   1.421   .     A
C1029  C461    1.419   1_556 S
C1029  C464    1.420   1_556 S
C1030  C1034   1.414   .     A
C1032  C1033   1.401   .     A
C1032  C456    1.407   1_556 S
C1032  C464    1.420   1_556 S
C1033  I1049   2.125   .     S
C1033  C1034   1.393   .     A
C1034  H1041   1.078   .     S
H1035  C456    1.080   1_556 S
H1037  C649    1.111   1_565 S
H1042  N1053   1.028   .     S
H1043  C1089   1.110   .     S
H1046  N1054   1.031   .     S
I1048  C639    2.141   1_565 S
N1053  C1089   1.449   .     S
N1053  C1078   1.437   .     S
O1055  Zn1069  1.947   .     S
O1055  Zn1070  1.937   .     S
O1055  Zn1068  1.953   .     S
O1055  Zn1071  1.943   .     S
O1056  Zn1069  1.926   .     S
O1057  Zn1071  1.932   .     S
O1058  Zn1070  1.931   .     S
O1059  Zn1068  1.927   .     S
O1060  Zn1068  1.935   .     S
O1061  Zn1071  1.935   .     S
O1062  Zn1069  1.936   .     S
O1063  Zn1070  1.942   .     S
O1064  Zn1071  1.938   .     S
O1065  Zn1068  1.933   .     S
O1066  Zn1069  1.939   .     S
O1067  Zn1070  1.938   .     S
C1072  O1125   1.262   .     A
C1072  O1127   1.279   .     A
C1072  C1078   1.438   .     S
C1073  C1087   1.391   .     A
C1073  C1094   1.405   .     A
C1073  H1102   1.079   .     S
C1074  I1110   2.124   .     S
C1074  C1087   1.401   .     A
C1074  C1086   1.390   .     A
C1075  O1128   1.270   .     A
C1075  O1126   1.286   .     A
C1075  C1077   1.460   .     S
C1076  C1085   1.496   .     S
C1076  C1088   1.424   .     A
C1076  C1093   1.430   .     A
C1077  C952    1.356   1_655 S
C1077  I989    2.138   1_655 S
C1079  C1082   1.455   .     S
C1079  C702    1.356   1_565 S
C1079  N739    1.431   1_565 S
C1080  C1081   1.427   .     S
C1081  O1123   1.273   .     A
C1081  O1129   1.271   .     A
C1082  O1124   1.269   .     A
C1082  O1130   1.280   .     A
C1083  C1088   1.390   .     A
C1083  C524    1.387   1_556 S
C1083  H536    1.083   1_556 S
C1084  O1119   1.280   .     A
C1084  O1121   1.272   .     A
C1084  C1087   1.451   .     S
C1085  O1122   1.295   .     A
C1085  O1120   1.286   .     A
C1088  I1113   2.134   .     S
C1089  H1107   1.111   .     S
C1089  H1108   1.110   .     S
C1090  N1117   1.447   .     S
C1090  H1099   1.111   .     S
C1090  H1101   1.110   .     S
C1091  I1114   2.139   .     S
C1092  C1093   1.421   .     A
C1092  C524    1.419   1_556 S
C1092  C527    1.420   1_556 S
C1093  C1097   1.414   .     A
C1095  C1096   1.401   .     A
C1095  C519    1.407   1_556 S
C1095  C527    1.420   1_556 S
C1096  I1112   2.125   .     S
C1096  C1097   1.393   .     A
C1097  H1104   1.078   .     S
H1098  C519    1.080   1_556 S
H1100  C712    1.111   1_565 S
H1105  N1116   1.028   .     S
H1106  C963    1.110   1_655 S
H1109  N1117   1.031   .     S
I1111  C702    2.141   1_565 S
N1116  C963    1.449   1_655 S
N1116  C952    1.437   1_655 S
O1118  Zn1132  1.947   .     S
O1118  Zn1133  1.937   .     S
O1118  Zn1131  1.953   .     S
O1118  Zn1134  1.943   .     S
O1119  Zn1132  1.926   .     S
O1120  Zn1134  1.932   .     S
O1121  Zn1133  1.931   .     S
O1122  Zn1131  1.927   .     S
O1123  Zn1131  1.935   .     S
O1124  Zn1134  1.935   .     S
O1125  Zn1132  1.936   .     S
O1126  Zn1133  1.942   .     S
O1127  Zn1134  1.938   .     S
O1128  Zn1131  1.933   .     S
O1129  Zn1132  1.939   .     S
O1130  Zn1133  1.938   .     S
