data_str_m3_o1_o18_pcu_sym.179
_audit_creation_date              2020-01-03
_audit_creation_method            'Materials Studio'
_symmetry_space_group_name_H-M    'P1'
_symmetry_Int_Tables_number       1
_symmetry_cell_setting            triclinic
loop_
_symmetry_equiv_pos_as_xyz
  x,y,z
_cell_length_a                    29.6277
_cell_length_b                    31.9203
_cell_length_c                    31.0529
_cell_angle_alpha                 90.1708
_cell_angle_beta                  67.1693
_cell_angle_gamma                 89.6744
loop_
_atom_site_label
_atom_site_type_symbol
_atom_site_fract_x
_atom_site_fract_y
_atom_site_fract_z
_atom_site_U_iso_or_equiv
_atom_site_adp_type
_atom_site_occupancy
C1     C     0.16682   0.24653   0.24929   0.00000  Uiso   1.00
C2     C     0.16652   0.08680   0.25071   0.00000  Uiso   1.00
C3     C     0.10941   0.17676   0.05276   0.00000  Uiso   1.00
C4     C     0.22392   0.15658   0.44724   0.00000  Uiso   1.00
C5     C     0.07603   0.18849   0.03284   0.00000  Uiso   1.00
C6     C     0.25730   0.14484   0.46716   0.00000  Uiso   1.00
C7     C     0.20482   0.31231   0.21353   0.00000  Uiso   1.00
C8     C     0.12851   0.02103   0.28647   0.00000  Uiso   1.00
C9     C     0.20465   0.02198   0.21607   0.00000  Uiso   1.00
C10    C     0.12868   0.31136   0.28393   0.00000  Uiso   1.00
C11    C     0.16662   0.04269   0.25173   0.00000  Uiso   1.00
C12    C     0.16672   0.29065   0.24827   0.00000  Uiso   1.00
C13    C     0.32103   0.14012   0.22140   0.00000  Uiso   1.00
C14    C     0.01231   0.19322   0.27860   0.00000  Uiso   1.00
C15    C     0.03603   0.13993   0.22131   0.00000  Uiso   1.00
C16    C     0.29730   0.19340   0.27869   0.00000  Uiso   1.00
C17    C     0.13586   0.16699   0.33803   0.00000  Uiso   1.00
C18    C     0.19747   0.16634   0.16196   0.00000  Uiso   1.00
C19    C     0.11625   0.17008   0.38881   0.00000  Uiso   1.00
C20    C     0.21708   0.16325   0.11119   0.00000  Uiso   1.00
C21    C     0.05766   0.19604   0.46258   0.00000  Uiso   1.00
C22    C     0.27567   0.13729   0.03742   0.00000  Uiso   1.00
C23    C     0.07148   0.18971   0.41467   0.00000  Uiso   1.00
C24    C     0.26185   0.14362   0.08533   0.00000  Uiso   1.00
C25    C     0.14672   0.15734   0.41079   0.00000  Uiso   1.00
C26    C     0.18662   0.17600   0.08921   0.00000  Uiso   1.00
C27    C     0.13751   0.16933   0.45663   0.00000  Uiso   1.00
C28    C     0.19582   0.16400   0.04337   0.00000  Uiso   1.00
C29    C     0.09024   0.18535   0.48430   0.00000  Uiso   1.00
C30    C     0.24309   0.14798   0.01571   0.00000  Uiso   1.00
C31    C     0.17375   0.16449   0.47561   0.00000  Uiso   1.00
C32    C     0.15959   0.16884   0.02439   0.00000  Uiso   1.00
H33    H     0.15552   0.19553   0.10881   0.00000  Uiso   1.00
H34    H     0.17781   0.13780   0.39119   0.00000  Uiso   1.00
N35    N     0.04759   0.16668   0.25001   0.00000  Uiso   1.00
N36    N     0.28574   0.16666   0.24999   0.00000  Uiso   1.00
O37    O     0.12846   0.22775   0.25000   0.00000  Uiso   1.00
O38    O     0.20488   0.10558   0.24999   0.00000  Uiso   1.00
O39    O     0.20490   0.22774   0.25000   0.00000  Uiso   1.00
O40    O     0.12843   0.10559   0.25000   0.00000  Uiso   1.00
O41    O     0.10661   0.16667   0.31612   0.00000  Uiso   1.00
O42    O     0.22672   0.16666   0.18387   0.00000  Uiso   1.00
O43    O     0.18305   0.16666   0.31612   0.00000  Uiso   1.00
O44    O     0.15028   0.16667   0.18388   0.00000  Uiso   1.00
Zn45   Zn    0.11562   0.16667   0.25000   0.00000  Uiso   1.00
Zn46   Zn    0.21771   0.16666   0.25000   0.00000  Uiso   1.00
O47    O     0.02860   0.20052   0.06043   0.00000  Uiso   1.00
H48    H     0.02515   0.20396   0.09328   0.00000  Uiso   1.00
O49    O     0.30473   0.13281   0.43957   0.00000  Uiso   1.00
H50    H     0.30818   0.12937   0.40673   0.00000  Uiso   1.00
F51    F     0.29183   0.13015   0.10627   0.00000  Uiso   1.00
F52    F     0.04149   0.20318   0.39373   0.00000  Uiso   1.00
F53    F     0.01327   0.21392   0.48694   0.00000  Uiso   1.00
F54    F     0.32005   0.11940   0.01306   0.00000  Uiso   1.00
F55    F     0.09109   0.16955   0.09949   0.00000  Uiso   1.00
F56    F     0.24224   0.16378   0.40051   0.00000  Uiso   1.00
O57    O     0.24185   0.29308   0.17647   0.00000  Uiso   1.00
H58    H     0.23242   0.26407   0.17259   0.00000  Uiso   1.00
O59    O     0.09148   0.04026   0.32353   0.00000  Uiso   1.00
H60    H     0.10091   0.06926   0.32741   0.00000  Uiso   1.00
F61    F     0.24040   0.04377   0.18244   0.00000  Uiso   1.00
F62    F     0.09293   0.28957   0.31756   0.00000  Uiso   1.00
F63    F     0.30941   0.11377   0.19299   0.00000  Uiso   1.00
F64    F     0.02393   0.21956   0.30701   0.00000  Uiso   1.00
O65    O     0.07199   0.11317   0.19280   0.00000  Uiso   1.00
H66    H     0.05863   0.09603   0.17391   0.00000  Uiso   1.00
O67    O     0.26134   0.22016   0.30720   0.00000  Uiso   1.00
H68    H     0.27471   0.23730   0.32609   0.00000  Uiso   1.00
C69    C     0.50015   0.24653   0.24929   0.00000  Uiso   1.00
C70    C     0.49985   0.08680   0.25071   0.00000  Uiso   1.00
C71    C     0.44274   0.17676   0.05276   0.00000  Uiso   1.00
C72    C     0.55726   0.15658   0.44724   0.00000  Uiso   1.00
C73    C     0.40937   0.18849   0.03284   0.00000  Uiso   1.00
C74    C     0.59063   0.14484   0.46716   0.00000  Uiso   1.00
C75    C     0.53816   0.31231   0.21353   0.00000  Uiso   1.00
C76    C     0.46184   0.02103   0.28647   0.00000  Uiso   1.00
C77    C     0.53798   0.02198   0.21607   0.00000  Uiso   1.00
C78    C     0.46202   0.31136   0.28393   0.00000  Uiso   1.00
C79    C     0.49995   0.04269   0.25173   0.00000  Uiso   1.00
C80    C     0.50005   0.29065   0.24827   0.00000  Uiso   1.00
C81    C     0.65436   0.14012   0.22140   0.00000  Uiso   1.00
C82    C     0.34564   0.19322   0.27860   0.00000  Uiso   1.00
C83    C     0.36936   0.13993   0.22131   0.00000  Uiso   1.00
C84    C     0.63064   0.19340   0.27869   0.00000  Uiso   1.00
C85    C     0.46920   0.16699   0.33803   0.00000  Uiso   1.00
C86    C     0.53080   0.16634   0.16196   0.00000  Uiso   1.00
C87    C     0.44958   0.17008   0.38881   0.00000  Uiso   1.00
C88    C     0.55042   0.16325   0.11119   0.00000  Uiso   1.00
C89    C     0.39099   0.19604   0.46258   0.00000  Uiso   1.00
C90    C     0.60901   0.13729   0.03742   0.00000  Uiso   1.00
C91    C     0.40481   0.18971   0.41467   0.00000  Uiso   1.00
C92    C     0.59519   0.14362   0.08533   0.00000  Uiso   1.00
C93    C     0.48005   0.15734   0.41079   0.00000  Uiso   1.00
C94    C     0.51995   0.17600   0.08921   0.00000  Uiso   1.00
C95    C     0.47085   0.16933   0.45663   0.00000  Uiso   1.00
C96    C     0.52915   0.16400   0.04337   0.00000  Uiso   1.00
C97    C     0.42358   0.18535   0.48430   0.00000  Uiso   1.00
C98    C     0.57642   0.14798   0.01571   0.00000  Uiso   1.00
C99    C     0.50708   0.16449   0.47561   0.00000  Uiso   1.00
C100   C     0.49292   0.16884   0.02439   0.00000  Uiso   1.00
H101   H     0.48885   0.19553   0.10881   0.00000  Uiso   1.00
H102   H     0.51115   0.13780   0.39119   0.00000  Uiso   1.00
N103   N     0.38093   0.16668   0.25001   0.00000  Uiso   1.00
N104   N     0.61907   0.16666   0.24999   0.00000  Uiso   1.00
O105   O     0.46179   0.22775   0.25000   0.00000  Uiso   1.00
O106   O     0.53821   0.10558   0.24999   0.00000  Uiso   1.00
O107   O     0.53823   0.22774   0.25000   0.00000  Uiso   1.00
O108   O     0.46177   0.10559   0.25000   0.00000  Uiso   1.00
O109   O     0.43994   0.16667   0.31612   0.00000  Uiso   1.00
O110   O     0.56006   0.16666   0.18387   0.00000  Uiso   1.00
O111   O     0.51639   0.16666   0.31612   0.00000  Uiso   1.00
O112   O     0.48361   0.16667   0.18388   0.00000  Uiso   1.00
Zn113  Zn    0.44896   0.16667   0.25000   0.00000  Uiso   1.00
Zn114  Zn    0.55104   0.16666   0.25000   0.00000  Uiso   1.00
O115   O     0.36194   0.20052   0.06043   0.00000  Uiso   1.00
H116   H     0.35848   0.20396   0.09328   0.00000  Uiso   1.00
O117   O     0.63806   0.13281   0.43957   0.00000  Uiso   1.00
H118   H     0.64152   0.12937   0.40673   0.00000  Uiso   1.00
F119   F     0.62517   0.13015   0.10627   0.00000  Uiso   1.00
F120   F     0.37483   0.20318   0.39373   0.00000  Uiso   1.00
F121   F     0.34661   0.21392   0.48694   0.00000  Uiso   1.00
F122   F     0.65339   0.11940   0.01306   0.00000  Uiso   1.00
F123   F     0.42442   0.16955   0.09949   0.00000  Uiso   1.00
F124   F     0.57558   0.16378   0.40051   0.00000  Uiso   1.00
O125   O     0.57519   0.29308   0.17647   0.00000  Uiso   1.00
H126   H     0.56576   0.26407   0.17259   0.00000  Uiso   1.00
O127   O     0.42481   0.04026   0.32353   0.00000  Uiso   1.00
H128   H     0.43425   0.06926   0.32741   0.00000  Uiso   1.00
F129   F     0.57374   0.04377   0.18244   0.00000  Uiso   1.00
F130   F     0.42626   0.28957   0.31756   0.00000  Uiso   1.00
F131   F     0.64274   0.11377   0.19299   0.00000  Uiso   1.00
F132   F     0.35726   0.21956   0.30701   0.00000  Uiso   1.00
O133   O     0.40532   0.11317   0.19280   0.00000  Uiso   1.00
H134   H     0.39196   0.09603   0.17391   0.00000  Uiso   1.00
O135   O     0.59468   0.22016   0.30720   0.00000  Uiso   1.00
H136   H     0.60804   0.23730   0.32609   0.00000  Uiso   1.00
C137   C     0.83348   0.24653   0.24929   0.00000  Uiso   1.00
C138   C     0.83318   0.08680   0.25071   0.00000  Uiso   1.00
C139   C     0.77608   0.17676   0.05276   0.00000  Uiso   1.00
C140   C     0.89059   0.15658   0.44724   0.00000  Uiso   1.00
C141   C     0.74270   0.18849   0.03284   0.00000  Uiso   1.00
C142   C     0.92396   0.14484   0.46716   0.00000  Uiso   1.00
C143   C     0.87149   0.31231   0.21353   0.00000  Uiso   1.00
C144   C     0.79518   0.02103   0.28647   0.00000  Uiso   1.00
C145   C     0.87132   0.02198   0.21607   0.00000  Uiso   1.00
C146   C     0.79535   0.31136   0.28393   0.00000  Uiso   1.00
C147   C     0.83328   0.04269   0.25173   0.00000  Uiso   1.00
C148   C     0.83338   0.29065   0.24827   0.00000  Uiso   1.00
C149   C     0.98769   0.14012   0.22140   0.00000  Uiso   1.00
C150   C     0.67897   0.19322   0.27860   0.00000  Uiso   1.00
C151   C     0.70270   0.13993   0.22131   0.00000  Uiso   1.00
C152   C     0.96397   0.19340   0.27869   0.00000  Uiso   1.00
C153   C     0.80253   0.16699   0.33803   0.00000  Uiso   1.00
C154   C     0.86414   0.16634   0.16196   0.00000  Uiso   1.00
C155   C     0.78292   0.17008   0.38881   0.00000  Uiso   1.00
C156   C     0.88375   0.16325   0.11119   0.00000  Uiso   1.00
C157   C     0.72432   0.19604   0.46258   0.00000  Uiso   1.00
C158   C     0.94234   0.13729   0.03742   0.00000  Uiso   1.00
C159   C     0.73814   0.18971   0.41467   0.00000  Uiso   1.00
C160   C     0.92852   0.14362   0.08533   0.00000  Uiso   1.00
C161   C     0.81338   0.15734   0.41079   0.00000  Uiso   1.00
C162   C     0.85328   0.17600   0.08921   0.00000  Uiso   1.00
C163   C     0.80418   0.16933   0.45663   0.00000  Uiso   1.00
C164   C     0.86249   0.16400   0.04337   0.00000  Uiso   1.00
C165   C     0.75691   0.18535   0.48430   0.00000  Uiso   1.00
C166   C     0.90976   0.14798   0.01571   0.00000  Uiso   1.00
C167   C     0.84041   0.16449   0.47561   0.00000  Uiso   1.00
C168   C     0.82625   0.16884   0.02439   0.00000  Uiso   1.00
H169   H     0.82219   0.19553   0.10881   0.00000  Uiso   1.00
H170   H     0.84448   0.13780   0.39119   0.00000  Uiso   1.00
N171   N     0.71426   0.16668   0.25001   0.00000  Uiso   1.00
N172   N     0.95241   0.16666   0.24999   0.00000  Uiso   1.00
O173   O     0.79512   0.22775   0.25000   0.00000  Uiso   1.00
O174   O     0.87154   0.10558   0.24999   0.00000  Uiso   1.00
O175   O     0.87157   0.22774   0.25000   0.00000  Uiso   1.00
O176   O     0.79510   0.10559   0.25000   0.00000  Uiso   1.00
O177   O     0.77328   0.16667   0.31612   0.00000  Uiso   1.00
O178   O     0.89339   0.16666   0.18387   0.00000  Uiso   1.00
O179   O     0.84972   0.16666   0.31612   0.00000  Uiso   1.00
O180   O     0.81695   0.16667   0.18388   0.00000  Uiso   1.00
Zn181  Zn    0.78229   0.16667   0.25000   0.00000  Uiso   1.00
Zn182  Zn    0.88438   0.16666   0.25000   0.00000  Uiso   1.00
O183   O     0.69527   0.20052   0.06043   0.00000  Uiso   1.00
H184   H     0.69181   0.20396   0.09328   0.00000  Uiso   1.00
O185   O     0.97140   0.13281   0.43957   0.00000  Uiso   1.00
H186   H     0.97485   0.12937   0.40673   0.00000  Uiso   1.00
F187   F     0.95850   0.13015   0.10627   0.00000  Uiso   1.00
F188   F     0.70816   0.20318   0.39373   0.00000  Uiso   1.00
F189   F     0.67994   0.21392   0.48694   0.00000  Uiso   1.00
F190   F     0.98672   0.11940   0.01306   0.00000  Uiso   1.00
F191   F     0.75776   0.16955   0.09949   0.00000  Uiso   1.00
F192   F     0.90891   0.16378   0.40051   0.00000  Uiso   1.00
O193   O     0.90852   0.29308   0.17647   0.00000  Uiso   1.00
H194   H     0.89909   0.26407   0.17259   0.00000  Uiso   1.00
O195   O     0.75814   0.04026   0.32353   0.00000  Uiso   1.00
H196   H     0.76758   0.06926   0.32741   0.00000  Uiso   1.00
F197   F     0.90707   0.04377   0.18244   0.00000  Uiso   1.00
F198   F     0.75960   0.28957   0.31756   0.00000  Uiso   1.00
F199   F     0.97607   0.11377   0.19299   0.00000  Uiso   1.00
F200   F     0.69059   0.21956   0.30701   0.00000  Uiso   1.00
O201   O     0.73866   0.11317   0.19280   0.00000  Uiso   1.00
H202   H     0.72529   0.09603   0.17391   0.00000  Uiso   1.00
O203   O     0.92801   0.22016   0.30720   0.00000  Uiso   1.00
H204   H     0.94137   0.23730   0.32609   0.00000  Uiso   1.00
C205   C     0.16682   0.57986   0.24929   0.00000  Uiso   1.00
C206   C     0.16652   0.42014   0.25071   0.00000  Uiso   1.00
C207   C     0.10941   0.51009   0.05276   0.00000  Uiso   1.00
C208   C     0.22392   0.48991   0.44724   0.00000  Uiso   1.00
C209   C     0.07603   0.52182   0.03284   0.00000  Uiso   1.00
C210   C     0.25730   0.47818   0.46716   0.00000  Uiso   1.00
C211   C     0.20482   0.64564   0.21353   0.00000  Uiso   1.00
C212   C     0.12851   0.35436   0.28647   0.00000  Uiso   1.00
C213   C     0.20465   0.35531   0.21607   0.00000  Uiso   1.00
C214   C     0.12868   0.64469   0.28393   0.00000  Uiso   1.00
C215   C     0.16662   0.37602   0.25173   0.00000  Uiso   1.00
C216   C     0.16672   0.62398   0.24827   0.00000  Uiso   1.00
C217   C     0.32103   0.47345   0.22140   0.00000  Uiso   1.00
C218   C     0.01231   0.52655   0.27860   0.00000  Uiso   1.00
C219   C     0.03603   0.47327   0.22131   0.00000  Uiso   1.00
C220   C     0.29730   0.52673   0.27869   0.00000  Uiso   1.00
C221   C     0.13586   0.50032   0.33803   0.00000  Uiso   1.00
C222   C     0.19747   0.49968   0.16196   0.00000  Uiso   1.00
C223   C     0.11625   0.50342   0.38881   0.00000  Uiso   1.00
C224   C     0.21708   0.49658   0.11119   0.00000  Uiso   1.00
C225   C     0.05766   0.52937   0.46258   0.00000  Uiso   1.00
C226   C     0.27567   0.47063   0.03742   0.00000  Uiso   1.00
C227   C     0.07148   0.52304   0.41467   0.00000  Uiso   1.00
C228   C     0.26185   0.47695   0.08533   0.00000  Uiso   1.00
C229   C     0.14672   0.49067   0.41079   0.00000  Uiso   1.00
C230   C     0.18662   0.50933   0.08921   0.00000  Uiso   1.00
C231   C     0.13751   0.50266   0.45663   0.00000  Uiso   1.00
C232   C     0.19582   0.49733   0.04337   0.00000  Uiso   1.00
C233   C     0.09024   0.51868   0.48430   0.00000  Uiso   1.00
C234   C     0.24309   0.48132   0.01571   0.00000  Uiso   1.00
C235   C     0.17375   0.49782   0.47561   0.00000  Uiso   1.00
C236   C     0.15959   0.50217   0.02439   0.00000  Uiso   1.00
H237   H     0.15552   0.52887   0.10881   0.00000  Uiso   1.00
H238   H     0.17781   0.47114   0.39119   0.00000  Uiso   1.00
N239   N     0.04759   0.50001   0.25001   0.00000  Uiso   1.00
N240   N     0.28574   0.49999   0.24999   0.00000  Uiso   1.00
O241   O     0.12846   0.56108   0.25000   0.00000  Uiso   1.00
O242   O     0.20488   0.43892   0.24999   0.00000  Uiso   1.00
O243   O     0.20490   0.56107   0.25000   0.00000  Uiso   1.00
O244   O     0.12843   0.43893   0.25000   0.00000  Uiso   1.00
O245   O     0.10661   0.50001   0.31612   0.00000  Uiso   1.00
O246   O     0.22672   0.49999   0.18387   0.00000  Uiso   1.00
O247   O     0.18305   0.50000   0.31612   0.00000  Uiso   1.00
O248   O     0.15028   0.50000   0.18388   0.00000  Uiso   1.00
Zn249  Zn    0.11562   0.50001   0.25000   0.00000  Uiso   1.00
Zn250  Zn    0.21771   0.49999   0.25000   0.00000  Uiso   1.00
O251   O     0.02860   0.53386   0.06043   0.00000  Uiso   1.00
H252   H     0.02515   0.53729   0.09328   0.00000  Uiso   1.00
O253   O     0.30473   0.46614   0.43957   0.00000  Uiso   1.00
H254   H     0.30818   0.46270   0.40673   0.00000  Uiso   1.00
F255   F     0.29183   0.46348   0.10627   0.00000  Uiso   1.00
F256   F     0.04149   0.53651   0.39373   0.00000  Uiso   1.00
F257   F     0.01327   0.54725   0.48694   0.00000  Uiso   1.00
F258   F     0.32005   0.45274   0.01306   0.00000  Uiso   1.00
F259   F     0.09109   0.50288   0.09949   0.00000  Uiso   1.00
F260   F     0.24224   0.49712   0.40051   0.00000  Uiso   1.00
O261   O     0.24185   0.62641   0.17647   0.00000  Uiso   1.00
H262   H     0.23242   0.59740   0.17259   0.00000  Uiso   1.00
O263   O     0.09148   0.37359   0.32353   0.00000  Uiso   1.00
H264   H     0.10091   0.40260   0.32741   0.00000  Uiso   1.00
F265   F     0.24040   0.37710   0.18244   0.00000  Uiso   1.00
F266   F     0.09293   0.62290   0.31756   0.00000  Uiso   1.00
F267   F     0.30941   0.44711   0.19299   0.00000  Uiso   1.00
F268   F     0.02393   0.55289   0.30701   0.00000  Uiso   1.00
O269   O     0.07199   0.44650   0.19280   0.00000  Uiso   1.00
H270   H     0.05863   0.42937   0.17391   0.00000  Uiso   1.00
O271   O     0.26134   0.55350   0.30720   0.00000  Uiso   1.00
H272   H     0.27471   0.57063   0.32609   0.00000  Uiso   1.00
C273   C     0.50015   0.57986   0.24929   0.00000  Uiso   1.00
C274   C     0.49985   0.42014   0.25071   0.00000  Uiso   1.00
C275   C     0.44274   0.51009   0.05276   0.00000  Uiso   1.00
C276   C     0.55726   0.48991   0.44724   0.00000  Uiso   1.00
C277   C     0.40937   0.52182   0.03284   0.00000  Uiso   1.00
C278   C     0.59063   0.47818   0.46716   0.00000  Uiso   1.00
C279   C     0.53816   0.64564   0.21353   0.00000  Uiso   1.00
C280   C     0.46184   0.35436   0.28647   0.00000  Uiso   1.00
C281   C     0.53798   0.35531   0.21607   0.00000  Uiso   1.00
C282   C     0.46202   0.64469   0.28393   0.00000  Uiso   1.00
C283   C     0.49995   0.37602   0.25173   0.00000  Uiso   1.00
C284   C     0.50005   0.62398   0.24827   0.00000  Uiso   1.00
C285   C     0.65436   0.47345   0.22140   0.00000  Uiso   1.00
C286   C     0.34564   0.52655   0.27860   0.00000  Uiso   1.00
C287   C     0.36936   0.47327   0.22131   0.00000  Uiso   1.00
C288   C     0.63064   0.52673   0.27869   0.00000  Uiso   1.00
C289   C     0.46920   0.50032   0.33803   0.00000  Uiso   1.00
C290   C     0.53080   0.49968   0.16196   0.00000  Uiso   1.00
C291   C     0.44958   0.50342   0.38881   0.00000  Uiso   1.00
C292   C     0.55042   0.49658   0.11119   0.00000  Uiso   1.00
C293   C     0.39099   0.52937   0.46258   0.00000  Uiso   1.00
C294   C     0.60901   0.47063   0.03742   0.00000  Uiso   1.00
C295   C     0.40481   0.52304   0.41467   0.00000  Uiso   1.00
C296   C     0.59519   0.47695   0.08533   0.00000  Uiso   1.00
C297   C     0.48005   0.49067   0.41079   0.00000  Uiso   1.00
C298   C     0.51995   0.50933   0.08921   0.00000  Uiso   1.00
C299   C     0.47085   0.50266   0.45663   0.00000  Uiso   1.00
C300   C     0.52915   0.49733   0.04337   0.00000  Uiso   1.00
C301   C     0.42358   0.51868   0.48430   0.00000  Uiso   1.00
C302   C     0.57642   0.48132   0.01571   0.00000  Uiso   1.00
C303   C     0.50708   0.49782   0.47561   0.00000  Uiso   1.00
C304   C     0.49292   0.50217   0.02439   0.00000  Uiso   1.00
H305   H     0.48885   0.52887   0.10881   0.00000  Uiso   1.00
H306   H     0.51115   0.47114   0.39119   0.00000  Uiso   1.00
N307   N     0.38093   0.50001   0.25001   0.00000  Uiso   1.00
N308   N     0.61907   0.49999   0.24999   0.00000  Uiso   1.00
O309   O     0.46179   0.56108   0.25000   0.00000  Uiso   1.00
O310   O     0.53821   0.43892   0.24999   0.00000  Uiso   1.00
O311   O     0.53823   0.56107   0.25000   0.00000  Uiso   1.00
O312   O     0.46177   0.43893   0.25000   0.00000  Uiso   1.00
O313   O     0.43994   0.50001   0.31612   0.00000  Uiso   1.00
O314   O     0.56006   0.49999   0.18387   0.00000  Uiso   1.00
O315   O     0.51639   0.50000   0.31612   0.00000  Uiso   1.00
O316   O     0.48361   0.50000   0.18388   0.00000  Uiso   1.00
Zn317  Zn    0.44896   0.50001   0.25000   0.00000  Uiso   1.00
Zn318  Zn    0.55104   0.49999   0.25000   0.00000  Uiso   1.00
O319   O     0.36194   0.53386   0.06043   0.00000  Uiso   1.00
H320   H     0.35848   0.53729   0.09328   0.00000  Uiso   1.00
O321   O     0.63806   0.46614   0.43957   0.00000  Uiso   1.00
H322   H     0.64152   0.46270   0.40673   0.00000  Uiso   1.00
F323   F     0.62517   0.46348   0.10627   0.00000  Uiso   1.00
F324   F     0.37483   0.53651   0.39373   0.00000  Uiso   1.00
F325   F     0.34661   0.54725   0.48694   0.00000  Uiso   1.00
F326   F     0.65339   0.45274   0.01306   0.00000  Uiso   1.00
F327   F     0.42442   0.50288   0.09949   0.00000  Uiso   1.00
F328   F     0.57558   0.49712   0.40051   0.00000  Uiso   1.00
O329   O     0.57519   0.62641   0.17647   0.00000  Uiso   1.00
H330   H     0.56576   0.59740   0.17259   0.00000  Uiso   1.00
O331   O     0.42481   0.37359   0.32353   0.00000  Uiso   1.00
H332   H     0.43425   0.40260   0.32741   0.00000  Uiso   1.00
F333   F     0.57374   0.37710   0.18244   0.00000  Uiso   1.00
F334   F     0.42626   0.62290   0.31756   0.00000  Uiso   1.00
F335   F     0.64274   0.44711   0.19299   0.00000  Uiso   1.00
F336   F     0.35726   0.55289   0.30701   0.00000  Uiso   1.00
O337   O     0.40532   0.44650   0.19280   0.00000  Uiso   1.00
H338   H     0.39196   0.42937   0.17391   0.00000  Uiso   1.00
O339   O     0.59468   0.55350   0.30720   0.00000  Uiso   1.00
H340   H     0.60804   0.57063   0.32609   0.00000  Uiso   1.00
C341   C     0.83348   0.57986   0.24929   0.00000  Uiso   1.00
C342   C     0.83318   0.42014   0.25071   0.00000  Uiso   1.00
C343   C     0.77608   0.51009   0.05276   0.00000  Uiso   1.00
C344   C     0.89059   0.48991   0.44724   0.00000  Uiso   1.00
C345   C     0.74270   0.52182   0.03284   0.00000  Uiso   1.00
C346   C     0.92396   0.47818   0.46716   0.00000  Uiso   1.00
C347   C     0.87149   0.64564   0.21353   0.00000  Uiso   1.00
C348   C     0.79518   0.35436   0.28647   0.00000  Uiso   1.00
C349   C     0.87132   0.35531   0.21607   0.00000  Uiso   1.00
C350   C     0.79535   0.64469   0.28393   0.00000  Uiso   1.00
C351   C     0.83328   0.37602   0.25173   0.00000  Uiso   1.00
C352   C     0.83338   0.62398   0.24827   0.00000  Uiso   1.00
C353   C     0.98769   0.47345   0.22140   0.00000  Uiso   1.00
C354   C     0.67897   0.52655   0.27860   0.00000  Uiso   1.00
C355   C     0.70270   0.47327   0.22131   0.00000  Uiso   1.00
C356   C     0.96397   0.52673   0.27869   0.00000  Uiso   1.00
C357   C     0.80253   0.50032   0.33803   0.00000  Uiso   1.00
C358   C     0.86414   0.49968   0.16196   0.00000  Uiso   1.00
C359   C     0.78292   0.50342   0.38881   0.00000  Uiso   1.00
C360   C     0.88375   0.49658   0.11119   0.00000  Uiso   1.00
C361   C     0.72432   0.52937   0.46258   0.00000  Uiso   1.00
C362   C     0.94234   0.47063   0.03742   0.00000  Uiso   1.00
C363   C     0.73814   0.52304   0.41467   0.00000  Uiso   1.00
C364   C     0.92852   0.47695   0.08533   0.00000  Uiso   1.00
C365   C     0.81338   0.49067   0.41079   0.00000  Uiso   1.00
C366   C     0.85328   0.50933   0.08921   0.00000  Uiso   1.00
C367   C     0.80418   0.50266   0.45663   0.00000  Uiso   1.00
C368   C     0.86249   0.49733   0.04337   0.00000  Uiso   1.00
C369   C     0.75691   0.51868   0.48430   0.00000  Uiso   1.00
C370   C     0.90976   0.48132   0.01571   0.00000  Uiso   1.00
C371   C     0.84041   0.49782   0.47561   0.00000  Uiso   1.00
C372   C     0.82625   0.50217   0.02439   0.00000  Uiso   1.00
H373   H     0.82219   0.52887   0.10881   0.00000  Uiso   1.00
H374   H     0.84448   0.47114   0.39119   0.00000  Uiso   1.00
N375   N     0.71426   0.50001   0.25001   0.00000  Uiso   1.00
N376   N     0.95241   0.49999   0.24999   0.00000  Uiso   1.00
O377   O     0.79512   0.56108   0.25000   0.00000  Uiso   1.00
O378   O     0.87154   0.43892   0.24999   0.00000  Uiso   1.00
O379   O     0.87157   0.56107   0.25000   0.00000  Uiso   1.00
O380   O     0.79510   0.43893   0.25000   0.00000  Uiso   1.00
O381   O     0.77328   0.50001   0.31612   0.00000  Uiso   1.00
O382   O     0.89339   0.49999   0.18387   0.00000  Uiso   1.00
O383   O     0.84972   0.50000   0.31612   0.00000  Uiso   1.00
O384   O     0.81695   0.50000   0.18388   0.00000  Uiso   1.00
Zn385  Zn    0.78229   0.50001   0.25000   0.00000  Uiso   1.00
Zn386  Zn    0.88438   0.49999   0.25000   0.00000  Uiso   1.00
O387   O     0.69527   0.53386   0.06043   0.00000  Uiso   1.00
H388   H     0.69181   0.53729   0.09328   0.00000  Uiso   1.00
O389   O     0.97140   0.46614   0.43957   0.00000  Uiso   1.00
H390   H     0.97485   0.46270   0.40673   0.00000  Uiso   1.00
F391   F     0.95850   0.46348   0.10627   0.00000  Uiso   1.00
F392   F     0.70816   0.53651   0.39373   0.00000  Uiso   1.00
F393   F     0.67994   0.54725   0.48694   0.00000  Uiso   1.00
F394   F     0.98672   0.45274   0.01306   0.00000  Uiso   1.00
F395   F     0.75776   0.50288   0.09949   0.00000  Uiso   1.00
F396   F     0.90891   0.49712   0.40051   0.00000  Uiso   1.00
O397   O     0.90852   0.62641   0.17647   0.00000  Uiso   1.00
H398   H     0.89909   0.59740   0.17259   0.00000  Uiso   1.00
O399   O     0.75814   0.37359   0.32353   0.00000  Uiso   1.00
H400   H     0.76758   0.40260   0.32741   0.00000  Uiso   1.00
F401   F     0.90707   0.37710   0.18244   0.00000  Uiso   1.00
F402   F     0.75960   0.62290   0.31756   0.00000  Uiso   1.00
F403   F     0.97607   0.44711   0.19299   0.00000  Uiso   1.00
F404   F     0.69059   0.55289   0.30701   0.00000  Uiso   1.00
O405   O     0.73866   0.44650   0.19280   0.00000  Uiso   1.00
H406   H     0.72529   0.42937   0.17391   0.00000  Uiso   1.00
O407   O     0.92801   0.55350   0.30720   0.00000  Uiso   1.00
H408   H     0.94137   0.57063   0.32609   0.00000  Uiso   1.00
C409   C     0.16682   0.91320   0.24929   0.00000  Uiso   1.00
C410   C     0.16652   0.75347   0.25071   0.00000  Uiso   1.00
C411   C     0.10941   0.84342   0.05276   0.00000  Uiso   1.00
C412   C     0.22392   0.82324   0.44724   0.00000  Uiso   1.00
C413   C     0.07603   0.85515   0.03284   0.00000  Uiso   1.00
C414   C     0.25730   0.81151   0.46716   0.00000  Uiso   1.00
C415   C     0.20482   0.97897   0.21353   0.00000  Uiso   1.00
C416   C     0.12851   0.68769   0.28647   0.00000  Uiso   1.00
C417   C     0.20465   0.68864   0.21607   0.00000  Uiso   1.00
C418   C     0.12868   0.97802   0.28393   0.00000  Uiso   1.00
C419   C     0.16662   0.70935   0.25173   0.00000  Uiso   1.00
C420   C     0.16672   0.95731   0.24827   0.00000  Uiso   1.00
C421   C     0.32103   0.80678   0.22140   0.00000  Uiso   1.00
C422   C     0.01231   0.85988   0.27860   0.00000  Uiso   1.00
C423   C     0.03603   0.80660   0.22131   0.00000  Uiso   1.00
C424   C     0.29730   0.86007   0.27869   0.00000  Uiso   1.00
C425   C     0.13586   0.83366   0.33803   0.00000  Uiso   1.00
C426   C     0.19747   0.83301   0.16196   0.00000  Uiso   1.00
C427   C     0.11625   0.83675   0.38881   0.00000  Uiso   1.00
C428   C     0.21708   0.82992   0.11119   0.00000  Uiso   1.00
C429   C     0.05766   0.86270   0.46258   0.00000  Uiso   1.00
C430   C     0.27567   0.80396   0.03742   0.00000  Uiso   1.00
C431   C     0.07148   0.85638   0.41467   0.00000  Uiso   1.00
C432   C     0.26185   0.81029   0.08533   0.00000  Uiso   1.00
C433   C     0.14672   0.82400   0.41079   0.00000  Uiso   1.00
C434   C     0.18662   0.84266   0.08921   0.00000  Uiso   1.00
C435   C     0.13751   0.83600   0.45663   0.00000  Uiso   1.00
C436   C     0.19582   0.83067   0.04337   0.00000  Uiso   1.00
C437   C     0.09024   0.85201   0.48430   0.00000  Uiso   1.00
C438   C     0.24309   0.81465   0.01571   0.00000  Uiso   1.00
C439   C     0.17375   0.83116   0.47561   0.00000  Uiso   1.00
C440   C     0.15959   0.83551   0.02439   0.00000  Uiso   1.00
H441   H     0.15552   0.86220   0.10881   0.00000  Uiso   1.00
H442   H     0.17781   0.80447   0.39119   0.00000  Uiso   1.00
N443   N     0.04759   0.83334   0.25001   0.00000  Uiso   1.00
N444   N     0.28574   0.83332   0.24999   0.00000  Uiso   1.00
O445   O     0.12846   0.89442   0.25000   0.00000  Uiso   1.00
O446   O     0.20488   0.77225   0.24999   0.00000  Uiso   1.00
O447   O     0.20490   0.89441   0.25000   0.00000  Uiso   1.00
O448   O     0.12843   0.77226   0.25000   0.00000  Uiso   1.00
O449   O     0.10661   0.83334   0.31612   0.00000  Uiso   1.00
O450   O     0.22672   0.83333   0.18387   0.00000  Uiso   1.00
O451   O     0.18305   0.83333   0.31612   0.00000  Uiso   1.00
O452   O     0.15028   0.83334   0.18388   0.00000  Uiso   1.00
Zn453  Zn    0.11562   0.83334   0.25000   0.00000  Uiso   1.00
Zn454  Zn    0.21771   0.83333   0.25000   0.00000  Uiso   1.00
O455   O     0.02860   0.86719   0.06043   0.00000  Uiso   1.00
H456   H     0.02515   0.87062   0.09328   0.00000  Uiso   1.00
O457   O     0.30473   0.79947   0.43957   0.00000  Uiso   1.00
H458   H     0.30818   0.79604   0.40673   0.00000  Uiso   1.00
F459   F     0.29183   0.79681   0.10627   0.00000  Uiso   1.00
F460   F     0.04149   0.86985   0.39373   0.00000  Uiso   1.00
F461   F     0.01327   0.88059   0.48694   0.00000  Uiso   1.00
F462   F     0.32005   0.78607   0.01306   0.00000  Uiso   1.00
F463   F     0.09109   0.83622   0.09949   0.00000  Uiso   1.00
F464   F     0.24224   0.83045   0.40051   0.00000  Uiso   1.00
O465   O     0.24185   0.95974   0.17647   0.00000  Uiso   1.00
H466   H     0.23242   0.93073   0.17259   0.00000  Uiso   1.00
O467   O     0.09148   0.70692   0.32353   0.00000  Uiso   1.00
H468   H     0.10091   0.73593   0.32741   0.00000  Uiso   1.00
F469   F     0.24040   0.71043   0.18244   0.00000  Uiso   1.00
F470   F     0.09293   0.95623   0.31756   0.00000  Uiso   1.00
F471   F     0.30941   0.78044   0.19299   0.00000  Uiso   1.00
F472   F     0.02393   0.88623   0.30701   0.00000  Uiso   1.00
O473   O     0.07199   0.77984   0.19280   0.00000  Uiso   1.00
H474   H     0.05863   0.76270   0.17391   0.00000  Uiso   1.00
O475   O     0.26134   0.88683   0.30720   0.00000  Uiso   1.00
H476   H     0.27471   0.90397   0.32609   0.00000  Uiso   1.00
C477   C     0.50015   0.91320   0.24929   0.00000  Uiso   1.00
C478   C     0.49985   0.75347   0.25071   0.00000  Uiso   1.00
C479   C     0.44274   0.84342   0.05276   0.00000  Uiso   1.00
C480   C     0.55726   0.82324   0.44724   0.00000  Uiso   1.00
C481   C     0.40937   0.85515   0.03284   0.00000  Uiso   1.00
C482   C     0.59063   0.81151   0.46716   0.00000  Uiso   1.00
C483   C     0.53816   0.97897   0.21353   0.00000  Uiso   1.00
C484   C     0.46184   0.68769   0.28647   0.00000  Uiso   1.00
C485   C     0.53798   0.68864   0.21607   0.00000  Uiso   1.00
C486   C     0.46202   0.97802   0.28393   0.00000  Uiso   1.00
C487   C     0.49995   0.70935   0.25173   0.00000  Uiso   1.00
C488   C     0.50005   0.95731   0.24827   0.00000  Uiso   1.00
C489   C     0.65436   0.80678   0.22140   0.00000  Uiso   1.00
C490   C     0.34564   0.85988   0.27860   0.00000  Uiso   1.00
C491   C     0.36936   0.80660   0.22131   0.00000  Uiso   1.00
C492   C     0.63064   0.86007   0.27869   0.00000  Uiso   1.00
C493   C     0.46920   0.83366   0.33803   0.00000  Uiso   1.00
C494   C     0.53080   0.83301   0.16196   0.00000  Uiso   1.00
C495   C     0.44958   0.83675   0.38881   0.00000  Uiso   1.00
C496   C     0.55042   0.82992   0.11119   0.00000  Uiso   1.00
C497   C     0.39099   0.86270   0.46258   0.00000  Uiso   1.00
C498   C     0.60901   0.80396   0.03742   0.00000  Uiso   1.00
C499   C     0.40481   0.85638   0.41467   0.00000  Uiso   1.00
C500   C     0.59519   0.81029   0.08533   0.00000  Uiso   1.00
C501   C     0.48005   0.82400   0.41079   0.00000  Uiso   1.00
C502   C     0.51995   0.84266   0.08921   0.00000  Uiso   1.00
C503   C     0.47085   0.83600   0.45663   0.00000  Uiso   1.00
C504   C     0.52915   0.83067   0.04337   0.00000  Uiso   1.00
C505   C     0.42358   0.85201   0.48430   0.00000  Uiso   1.00
C506   C     0.57642   0.81465   0.01571   0.00000  Uiso   1.00
C507   C     0.50708   0.83116   0.47561   0.00000  Uiso   1.00
C508   C     0.49292   0.83551   0.02439   0.00000  Uiso   1.00
H509   H     0.48885   0.86220   0.10881   0.00000  Uiso   1.00
H510   H     0.51115   0.80447   0.39119   0.00000  Uiso   1.00
N511   N     0.38093   0.83334   0.25001   0.00000  Uiso   1.00
N512   N     0.61907   0.83332   0.24999   0.00000  Uiso   1.00
O513   O     0.46179   0.89442   0.25000   0.00000  Uiso   1.00
O514   O     0.53821   0.77225   0.24999   0.00000  Uiso   1.00
O515   O     0.53823   0.89441   0.25000   0.00000  Uiso   1.00
O516   O     0.46177   0.77226   0.25000   0.00000  Uiso   1.00
O517   O     0.43994   0.83334   0.31612   0.00000  Uiso   1.00
O518   O     0.56006   0.83333   0.18387   0.00000  Uiso   1.00
O519   O     0.51639   0.83333   0.31612   0.00000  Uiso   1.00
O520   O     0.48361   0.83334   0.18388   0.00000  Uiso   1.00
Zn521  Zn    0.44896   0.83334   0.25000   0.00000  Uiso   1.00
Zn522  Zn    0.55104   0.83333   0.25000   0.00000  Uiso   1.00
O523   O     0.36194   0.86719   0.06043   0.00000  Uiso   1.00
H524   H     0.35848   0.87062   0.09328   0.00000  Uiso   1.00
O525   O     0.63806   0.79947   0.43957   0.00000  Uiso   1.00
H526   H     0.64152   0.79604   0.40673   0.00000  Uiso   1.00
F527   F     0.62517   0.79681   0.10627   0.00000  Uiso   1.00
F528   F     0.37483   0.86985   0.39373   0.00000  Uiso   1.00
F529   F     0.34661   0.88059   0.48694   0.00000  Uiso   1.00
F530   F     0.65339   0.78607   0.01306   0.00000  Uiso   1.00
F531   F     0.42442   0.83622   0.09949   0.00000  Uiso   1.00
F532   F     0.57558   0.83045   0.40051   0.00000  Uiso   1.00
O533   O     0.57519   0.95974   0.17647   0.00000  Uiso   1.00
H534   H     0.56576   0.93073   0.17259   0.00000  Uiso   1.00
O535   O     0.42481   0.70692   0.32353   0.00000  Uiso   1.00
H536   H     0.43425   0.73593   0.32741   0.00000  Uiso   1.00
F537   F     0.57374   0.71043   0.18244   0.00000  Uiso   1.00
F538   F     0.42626   0.95623   0.31756   0.00000  Uiso   1.00
F539   F     0.64274   0.78044   0.19299   0.00000  Uiso   1.00
F540   F     0.35726   0.88623   0.30701   0.00000  Uiso   1.00
O541   O     0.40532   0.77984   0.19280   0.00000  Uiso   1.00
H542   H     0.39196   0.76270   0.17391   0.00000  Uiso   1.00
O543   O     0.59468   0.88683   0.30720   0.00000  Uiso   1.00
H544   H     0.60804   0.90397   0.32609   0.00000  Uiso   1.00
C545   C     0.83348   0.91320   0.24929   0.00000  Uiso   1.00
C546   C     0.83318   0.75347   0.25071   0.00000  Uiso   1.00
C547   C     0.77608   0.84342   0.05276   0.00000  Uiso   1.00
C548   C     0.89059   0.82324   0.44724   0.00000  Uiso   1.00
C549   C     0.74270   0.85515   0.03284   0.00000  Uiso   1.00
C550   C     0.92396   0.81151   0.46716   0.00000  Uiso   1.00
C551   C     0.87149   0.97897   0.21353   0.00000  Uiso   1.00
C552   C     0.79518   0.68769   0.28647   0.00000  Uiso   1.00
C553   C     0.87132   0.68864   0.21607   0.00000  Uiso   1.00
C554   C     0.79535   0.97802   0.28393   0.00000  Uiso   1.00
C555   C     0.83328   0.70935   0.25173   0.00000  Uiso   1.00
C556   C     0.83338   0.95731   0.24827   0.00000  Uiso   1.00
C557   C     0.98769   0.80678   0.22140   0.00000  Uiso   1.00
C558   C     0.67897   0.85988   0.27860   0.00000  Uiso   1.00
C559   C     0.70270   0.80660   0.22131   0.00000  Uiso   1.00
C560   C     0.96397   0.86007   0.27869   0.00000  Uiso   1.00
C561   C     0.80253   0.83366   0.33803   0.00000  Uiso   1.00
C562   C     0.86414   0.83301   0.16196   0.00000  Uiso   1.00
C563   C     0.78292   0.83675   0.38881   0.00000  Uiso   1.00
C564   C     0.88375   0.82992   0.11119   0.00000  Uiso   1.00
C565   C     0.72432   0.86270   0.46258   0.00000  Uiso   1.00
C566   C     0.94234   0.80396   0.03742   0.00000  Uiso   1.00
C567   C     0.73814   0.85638   0.41467   0.00000  Uiso   1.00
C568   C     0.92852   0.81029   0.08533   0.00000  Uiso   1.00
C569   C     0.81338   0.82400   0.41079   0.00000  Uiso   1.00
C570   C     0.85328   0.84266   0.08921   0.00000  Uiso   1.00
C571   C     0.80418   0.83600   0.45663   0.00000  Uiso   1.00
C572   C     0.86249   0.83067   0.04337   0.00000  Uiso   1.00
C573   C     0.75691   0.85201   0.48430   0.00000  Uiso   1.00
C574   C     0.90976   0.81465   0.01571   0.00000  Uiso   1.00
C575   C     0.84041   0.83116   0.47561   0.00000  Uiso   1.00
C576   C     0.82625   0.83551   0.02439   0.00000  Uiso   1.00
H577   H     0.82219   0.86220   0.10881   0.00000  Uiso   1.00
H578   H     0.84448   0.80447   0.39119   0.00000  Uiso   1.00
N579   N     0.71426   0.83334   0.25001   0.00000  Uiso   1.00
N580   N     0.95241   0.83332   0.24999   0.00000  Uiso   1.00
O581   O     0.79512   0.89442   0.25000   0.00000  Uiso   1.00
O582   O     0.87154   0.77225   0.24999   0.00000  Uiso   1.00
O583   O     0.87157   0.89441   0.25000   0.00000  Uiso   1.00
O584   O     0.79510   0.77226   0.25000   0.00000  Uiso   1.00
O585   O     0.77328   0.83334   0.31612   0.00000  Uiso   1.00
O586   O     0.89339   0.83333   0.18387   0.00000  Uiso   1.00
O587   O     0.84972   0.83333   0.31612   0.00000  Uiso   1.00
O588   O     0.81695   0.83334   0.18388   0.00000  Uiso   1.00
Zn589  Zn    0.78229   0.83334   0.25000   0.00000  Uiso   1.00
Zn590  Zn    0.88438   0.83333   0.25000   0.00000  Uiso   1.00
O591   O     0.69527   0.86719   0.06043   0.00000  Uiso   1.00
H592   H     0.69181   0.87062   0.09328   0.00000  Uiso   1.00
O593   O     0.97140   0.79947   0.43957   0.00000  Uiso   1.00
H594   H     0.97485   0.79604   0.40673   0.00000  Uiso   1.00
F595   F     0.95850   0.79681   0.10627   0.00000  Uiso   1.00
F596   F     0.70816   0.86985   0.39373   0.00000  Uiso   1.00
F597   F     0.67994   0.88059   0.48694   0.00000  Uiso   1.00
F598   F     0.98672   0.78607   0.01306   0.00000  Uiso   1.00
F599   F     0.75776   0.83622   0.09949   0.00000  Uiso   1.00
F600   F     0.90891   0.83045   0.40051   0.00000  Uiso   1.00
O601   O     0.90852   0.95974   0.17647   0.00000  Uiso   1.00
H602   H     0.89909   0.93073   0.17259   0.00000  Uiso   1.00
O603   O     0.75814   0.70692   0.32353   0.00000  Uiso   1.00
H604   H     0.76758   0.73593   0.32741   0.00000  Uiso   1.00
F605   F     0.90707   0.71043   0.18244   0.00000  Uiso   1.00
F606   F     0.75960   0.95623   0.31756   0.00000  Uiso   1.00
F607   F     0.97607   0.78044   0.19299   0.00000  Uiso   1.00
F608   F     0.69059   0.88623   0.30701   0.00000  Uiso   1.00
O609   O     0.73866   0.77984   0.19280   0.00000  Uiso   1.00
H610   H     0.72529   0.76270   0.17391   0.00000  Uiso   1.00
O611   O     0.92801   0.88683   0.30720   0.00000  Uiso   1.00
H612   H     0.94137   0.90397   0.32609   0.00000  Uiso   1.00
C613   C     0.16682   0.24653   0.74929   0.00000  Uiso   1.00
C614   C     0.16652   0.08680   0.75071   0.00000  Uiso   1.00
C615   C     0.10941   0.17676   0.55276   0.00000  Uiso   1.00
C616   C     0.22392   0.15658   0.94724   0.00000  Uiso   1.00
C617   C     0.07603   0.18849   0.53284   0.00000  Uiso   1.00
C618   C     0.25730   0.14484   0.96716   0.00000  Uiso   1.00
C619   C     0.20482   0.31231   0.71353   0.00000  Uiso   1.00
C620   C     0.12851   0.02103   0.78647   0.00000  Uiso   1.00
C621   C     0.20465   0.02198   0.71607   0.00000  Uiso   1.00
C622   C     0.12868   0.31136   0.78393   0.00000  Uiso   1.00
C623   C     0.16662   0.04269   0.75173   0.00000  Uiso   1.00
C624   C     0.16672   0.29065   0.74827   0.00000  Uiso   1.00
C625   C     0.32103   0.14012   0.72140   0.00000  Uiso   1.00
C626   C     0.01231   0.19322   0.77860   0.00000  Uiso   1.00
C627   C     0.03603   0.13993   0.72131   0.00000  Uiso   1.00
C628   C     0.29730   0.19340   0.77869   0.00000  Uiso   1.00
C629   C     0.13586   0.16699   0.83803   0.00000  Uiso   1.00
C630   C     0.19747   0.16634   0.66196   0.00000  Uiso   1.00
C631   C     0.11625   0.17008   0.88881   0.00000  Uiso   1.00
C632   C     0.21708   0.16325   0.61119   0.00000  Uiso   1.00
C633   C     0.05766   0.19604   0.96258   0.00000  Uiso   1.00
C634   C     0.27567   0.13729   0.53742   0.00000  Uiso   1.00
C635   C     0.07148   0.18971   0.91467   0.00000  Uiso   1.00
C636   C     0.26185   0.14362   0.58533   0.00000  Uiso   1.00
C637   C     0.14672   0.15734   0.91079   0.00000  Uiso   1.00
C638   C     0.18662   0.17600   0.58921   0.00000  Uiso   1.00
C639   C     0.13751   0.16933   0.95663   0.00000  Uiso   1.00
C640   C     0.19582   0.16400   0.54337   0.00000  Uiso   1.00
C641   C     0.09024   0.18535   0.98430   0.00000  Uiso   1.00
C642   C     0.24309   0.14798   0.51571   0.00000  Uiso   1.00
C643   C     0.17375   0.16449   0.97561   0.00000  Uiso   1.00
C644   C     0.15959   0.16884   0.52439   0.00000  Uiso   1.00
H645   H     0.15552   0.19553   0.60881   0.00000  Uiso   1.00
H646   H     0.17781   0.13780   0.89119   0.00000  Uiso   1.00
N647   N     0.04759   0.16668   0.75001   0.00000  Uiso   1.00
N648   N     0.28574   0.16666   0.74999   0.00000  Uiso   1.00
O649   O     0.12846   0.22775   0.75000   0.00000  Uiso   1.00
O650   O     0.20488   0.10558   0.74999   0.00000  Uiso   1.00
O651   O     0.20490   0.22774   0.75000   0.00000  Uiso   1.00
O652   O     0.12843   0.10559   0.75000   0.00000  Uiso   1.00
O653   O     0.10661   0.16667   0.81612   0.00000  Uiso   1.00
O654   O     0.22672   0.16666   0.68387   0.00000  Uiso   1.00
O655   O     0.18305   0.16666   0.81612   0.00000  Uiso   1.00
O656   O     0.15028   0.16667   0.68388   0.00000  Uiso   1.00
Zn657  Zn    0.11562   0.16667   0.75000   0.00000  Uiso   1.00
Zn658  Zn    0.21771   0.16666   0.75000   0.00000  Uiso   1.00
O659   O     0.02860   0.20052   0.56043   0.00000  Uiso   1.00
H660   H     0.02515   0.20396   0.59328   0.00000  Uiso   1.00
O661   O     0.30473   0.13281   0.93957   0.00000  Uiso   1.00
H662   H     0.30818   0.12937   0.90673   0.00000  Uiso   1.00
F663   F     0.29183   0.13015   0.60627   0.00000  Uiso   1.00
F664   F     0.04149   0.20318   0.89373   0.00000  Uiso   1.00
F665   F     0.01327   0.21392   0.98694   0.00000  Uiso   1.00
F666   F     0.32005   0.11940   0.51306   0.00000  Uiso   1.00
F667   F     0.09109   0.16955   0.59949   0.00000  Uiso   1.00
F668   F     0.24224   0.16378   0.90051   0.00000  Uiso   1.00
O669   O     0.24185   0.29308   0.67647   0.00000  Uiso   1.00
H670   H     0.23242   0.26407   0.67259   0.00000  Uiso   1.00
O671   O     0.09148   0.04026   0.82353   0.00000  Uiso   1.00
H672   H     0.10091   0.06926   0.82741   0.00000  Uiso   1.00
F673   F     0.24040   0.04377   0.68244   0.00000  Uiso   1.00
F674   F     0.09293   0.28957   0.81756   0.00000  Uiso   1.00
F675   F     0.30941   0.11377   0.69299   0.00000  Uiso   1.00
F676   F     0.02393   0.21956   0.80701   0.00000  Uiso   1.00
O677   O     0.07199   0.11317   0.69280   0.00000  Uiso   1.00
H678   H     0.05863   0.09603   0.67391   0.00000  Uiso   1.00
O679   O     0.26134   0.22016   0.80720   0.00000  Uiso   1.00
H680   H     0.27471   0.23730   0.82609   0.00000  Uiso   1.00
C681   C     0.50015   0.24653   0.74929   0.00000  Uiso   1.00
C682   C     0.49985   0.08680   0.75071   0.00000  Uiso   1.00
C683   C     0.44274   0.17676   0.55276   0.00000  Uiso   1.00
C684   C     0.55726   0.15658   0.94724   0.00000  Uiso   1.00
C685   C     0.40937   0.18849   0.53284   0.00000  Uiso   1.00
C686   C     0.59063   0.14484   0.96716   0.00000  Uiso   1.00
C687   C     0.53816   0.31231   0.71353   0.00000  Uiso   1.00
C688   C     0.46184   0.02103   0.78647   0.00000  Uiso   1.00
C689   C     0.53798   0.02198   0.71607   0.00000  Uiso   1.00
C690   C     0.46202   0.31136   0.78393   0.00000  Uiso   1.00
C691   C     0.49995   0.04269   0.75173   0.00000  Uiso   1.00
C692   C     0.50005   0.29065   0.74827   0.00000  Uiso   1.00
C693   C     0.65436   0.14012   0.72140   0.00000  Uiso   1.00
C694   C     0.34564   0.19322   0.77860   0.00000  Uiso   1.00
C695   C     0.36936   0.13993   0.72131   0.00000  Uiso   1.00
C696   C     0.63064   0.19340   0.77869   0.00000  Uiso   1.00
C697   C     0.46920   0.16699   0.83803   0.00000  Uiso   1.00
C698   C     0.53080   0.16634   0.66196   0.00000  Uiso   1.00
C699   C     0.44958   0.17008   0.88881   0.00000  Uiso   1.00
C700   C     0.55042   0.16325   0.61119   0.00000  Uiso   1.00
C701   C     0.39099   0.19604   0.96258   0.00000  Uiso   1.00
C702   C     0.60901   0.13729   0.53742   0.00000  Uiso   1.00
C703   C     0.40481   0.18971   0.91467   0.00000  Uiso   1.00
C704   C     0.59519   0.14362   0.58533   0.00000  Uiso   1.00
C705   C     0.48005   0.15734   0.91079   0.00000  Uiso   1.00
C706   C     0.51995   0.17600   0.58921   0.00000  Uiso   1.00
C707   C     0.47085   0.16933   0.95663   0.00000  Uiso   1.00
C708   C     0.52915   0.16400   0.54337   0.00000  Uiso   1.00
C709   C     0.42358   0.18535   0.98430   0.00000  Uiso   1.00
C710   C     0.57642   0.14798   0.51571   0.00000  Uiso   1.00
C711   C     0.50708   0.16449   0.97561   0.00000  Uiso   1.00
C712   C     0.49292   0.16884   0.52439   0.00000  Uiso   1.00
H713   H     0.48885   0.19553   0.60881   0.00000  Uiso   1.00
H714   H     0.51115   0.13780   0.89119   0.00000  Uiso   1.00
N715   N     0.38093   0.16668   0.75001   0.00000  Uiso   1.00
N716   N     0.61907   0.16666   0.74999   0.00000  Uiso   1.00
O717   O     0.46179   0.22775   0.75000   0.00000  Uiso   1.00
O718   O     0.53821   0.10558   0.74999   0.00000  Uiso   1.00
O719   O     0.53823   0.22774   0.75000   0.00000  Uiso   1.00
O720   O     0.46177   0.10559   0.75000   0.00000  Uiso   1.00
O721   O     0.43994   0.16667   0.81612   0.00000  Uiso   1.00
O722   O     0.56006   0.16666   0.68387   0.00000  Uiso   1.00
O723   O     0.51639   0.16666   0.81612   0.00000  Uiso   1.00
O724   O     0.48361   0.16667   0.68388   0.00000  Uiso   1.00
Zn725  Zn    0.44896   0.16667   0.75000   0.00000  Uiso   1.00
Zn726  Zn    0.55104   0.16666   0.75000   0.00000  Uiso   1.00
O727   O     0.36194   0.20052   0.56043   0.00000  Uiso   1.00
H728   H     0.35848   0.20396   0.59328   0.00000  Uiso   1.00
O729   O     0.63806   0.13281   0.93957   0.00000  Uiso   1.00
H730   H     0.64152   0.12937   0.90673   0.00000  Uiso   1.00
F731   F     0.62517   0.13015   0.60627   0.00000  Uiso   1.00
F732   F     0.37483   0.20318   0.89373   0.00000  Uiso   1.00
F733   F     0.34661   0.21392   0.98694   0.00000  Uiso   1.00
F734   F     0.65339   0.11940   0.51306   0.00000  Uiso   1.00
F735   F     0.42442   0.16955   0.59949   0.00000  Uiso   1.00
F736   F     0.57558   0.16378   0.90051   0.00000  Uiso   1.00
O737   O     0.57519   0.29308   0.67647   0.00000  Uiso   1.00
H738   H     0.56576   0.26407   0.67259   0.00000  Uiso   1.00
O739   O     0.42481   0.04026   0.82353   0.00000  Uiso   1.00
H740   H     0.43425   0.06926   0.82741   0.00000  Uiso   1.00
F741   F     0.57374   0.04377   0.68244   0.00000  Uiso   1.00
F742   F     0.42626   0.28957   0.81756   0.00000  Uiso   1.00
F743   F     0.64274   0.11377   0.69299   0.00000  Uiso   1.00
F744   F     0.35726   0.21956   0.80701   0.00000  Uiso   1.00
O745   O     0.40532   0.11317   0.69280   0.00000  Uiso   1.00
H746   H     0.39196   0.09603   0.67391   0.00000  Uiso   1.00
O747   O     0.59468   0.22016   0.80720   0.00000  Uiso   1.00
H748   H     0.60804   0.23730   0.82609   0.00000  Uiso   1.00
C749   C     0.83348   0.24653   0.74929   0.00000  Uiso   1.00
C750   C     0.83318   0.08680   0.75071   0.00000  Uiso   1.00
C751   C     0.77608   0.17676   0.55276   0.00000  Uiso   1.00
C752   C     0.89059   0.15658   0.94724   0.00000  Uiso   1.00
C753   C     0.74270   0.18849   0.53284   0.00000  Uiso   1.00
C754   C     0.92396   0.14484   0.96716   0.00000  Uiso   1.00
C755   C     0.87149   0.31231   0.71353   0.00000  Uiso   1.00
C756   C     0.79518   0.02103   0.78647   0.00000  Uiso   1.00
C757   C     0.87132   0.02198   0.71607   0.00000  Uiso   1.00
C758   C     0.79535   0.31136   0.78393   0.00000  Uiso   1.00
C759   C     0.83328   0.04269   0.75173   0.00000  Uiso   1.00
C760   C     0.83338   0.29065   0.74827   0.00000  Uiso   1.00
C761   C     0.98769   0.14012   0.72140   0.00000  Uiso   1.00
C762   C     0.67897   0.19322   0.77860   0.00000  Uiso   1.00
C763   C     0.70270   0.13993   0.72131   0.00000  Uiso   1.00
C764   C     0.96397   0.19340   0.77869   0.00000  Uiso   1.00
C765   C     0.80253   0.16699   0.83803   0.00000  Uiso   1.00
C766   C     0.86414   0.16634   0.66196   0.00000  Uiso   1.00
C767   C     0.78292   0.17008   0.88881   0.00000  Uiso   1.00
C768   C     0.88375   0.16325   0.61119   0.00000  Uiso   1.00
C769   C     0.72432   0.19604   0.96258   0.00000  Uiso   1.00
C770   C     0.94234   0.13729   0.53742   0.00000  Uiso   1.00
C771   C     0.73814   0.18971   0.91467   0.00000  Uiso   1.00
C772   C     0.92852   0.14362   0.58533   0.00000  Uiso   1.00
C773   C     0.81338   0.15734   0.91079   0.00000  Uiso   1.00
C774   C     0.85328   0.17600   0.58921   0.00000  Uiso   1.00
C775   C     0.80418   0.16933   0.95663   0.00000  Uiso   1.00
C776   C     0.86249   0.16400   0.54337   0.00000  Uiso   1.00
C777   C     0.75691   0.18535   0.98430   0.00000  Uiso   1.00
C778   C     0.90976   0.14798   0.51571   0.00000  Uiso   1.00
C779   C     0.84041   0.16449   0.97561   0.00000  Uiso   1.00
C780   C     0.82625   0.16884   0.52439   0.00000  Uiso   1.00
H781   H     0.82219   0.19553   0.60881   0.00000  Uiso   1.00
H782   H     0.84448   0.13780   0.89119   0.00000  Uiso   1.00
N783   N     0.71426   0.16668   0.75001   0.00000  Uiso   1.00
N784   N     0.95241   0.16666   0.74999   0.00000  Uiso   1.00
O785   O     0.79512   0.22775   0.75000   0.00000  Uiso   1.00
O786   O     0.87154   0.10558   0.74999   0.00000  Uiso   1.00
O787   O     0.87157   0.22774   0.75000   0.00000  Uiso   1.00
O788   O     0.79510   0.10559   0.75000   0.00000  Uiso   1.00
O789   O     0.77328   0.16667   0.81612   0.00000  Uiso   1.00
O790   O     0.89339   0.16666   0.68387   0.00000  Uiso   1.00
O791   O     0.84972   0.16666   0.81612   0.00000  Uiso   1.00
O792   O     0.81695   0.16667   0.68388   0.00000  Uiso   1.00
Zn793  Zn    0.78229   0.16667   0.75000   0.00000  Uiso   1.00
Zn794  Zn    0.88438   0.16666   0.75000   0.00000  Uiso   1.00
O795   O     0.69527   0.20052   0.56043   0.00000  Uiso   1.00
H796   H     0.69181   0.20396   0.59328   0.00000  Uiso   1.00
O797   O     0.97140   0.13281   0.93957   0.00000  Uiso   1.00
H798   H     0.97485   0.12937   0.90673   0.00000  Uiso   1.00
F799   F     0.95850   0.13015   0.60627   0.00000  Uiso   1.00
F800   F     0.70816   0.20318   0.89373   0.00000  Uiso   1.00
F801   F     0.67994   0.21392   0.98694   0.00000  Uiso   1.00
F802   F     0.98672   0.11940   0.51306   0.00000  Uiso   1.00
F803   F     0.75776   0.16955   0.59949   0.00000  Uiso   1.00
F804   F     0.90891   0.16378   0.90051   0.00000  Uiso   1.00
O805   O     0.90852   0.29308   0.67647   0.00000  Uiso   1.00
H806   H     0.89909   0.26407   0.67259   0.00000  Uiso   1.00
O807   O     0.75814   0.04026   0.82353   0.00000  Uiso   1.00
H808   H     0.76758   0.06926   0.82741   0.00000  Uiso   1.00
F809   F     0.90707   0.04377   0.68244   0.00000  Uiso   1.00
F810   F     0.75960   0.28957   0.81756   0.00000  Uiso   1.00
F811   F     0.97607   0.11377   0.69299   0.00000  Uiso   1.00
F812   F     0.69059   0.21956   0.80701   0.00000  Uiso   1.00
O813   O     0.73866   0.11317   0.69280   0.00000  Uiso   1.00
H814   H     0.72529   0.09603   0.67391   0.00000  Uiso   1.00
O815   O     0.92801   0.22016   0.80720   0.00000  Uiso   1.00
H816   H     0.94137   0.23730   0.82609   0.00000  Uiso   1.00
C817   C     0.16682   0.57986   0.74929   0.00000  Uiso   1.00
C818   C     0.16652   0.42014   0.75071   0.00000  Uiso   1.00
C819   C     0.10941   0.51009   0.55276   0.00000  Uiso   1.00
C820   C     0.22392   0.48991   0.94724   0.00000  Uiso   1.00
C821   C     0.07603   0.52182   0.53284   0.00000  Uiso   1.00
C822   C     0.25730   0.47818   0.96716   0.00000  Uiso   1.00
C823   C     0.20482   0.64564   0.71353   0.00000  Uiso   1.00
C824   C     0.12851   0.35436   0.78647   0.00000  Uiso   1.00
C825   C     0.20465   0.35531   0.71607   0.00000  Uiso   1.00
C826   C     0.12868   0.64469   0.78393   0.00000  Uiso   1.00
C827   C     0.16662   0.37602   0.75173   0.00000  Uiso   1.00
C828   C     0.16672   0.62398   0.74827   0.00000  Uiso   1.00
C829   C     0.32103   0.47345   0.72140   0.00000  Uiso   1.00
C830   C     0.01231   0.52655   0.77860   0.00000  Uiso   1.00
C831   C     0.03603   0.47327   0.72131   0.00000  Uiso   1.00
C832   C     0.29730   0.52673   0.77869   0.00000  Uiso   1.00
C833   C     0.13586   0.50032   0.83803   0.00000  Uiso   1.00
C834   C     0.19747   0.49968   0.66196   0.00000  Uiso   1.00
C835   C     0.11625   0.50342   0.88881   0.00000  Uiso   1.00
C836   C     0.21708   0.49658   0.61119   0.00000  Uiso   1.00
C837   C     0.05766   0.52937   0.96258   0.00000  Uiso   1.00
C838   C     0.27567   0.47063   0.53742   0.00000  Uiso   1.00
C839   C     0.07148   0.52304   0.91467   0.00000  Uiso   1.00
C840   C     0.26185   0.47695   0.58533   0.00000  Uiso   1.00
C841   C     0.14672   0.49067   0.91079   0.00000  Uiso   1.00
C842   C     0.18662   0.50933   0.58921   0.00000  Uiso   1.00
C843   C     0.13751   0.50266   0.95663   0.00000  Uiso   1.00
C844   C     0.19582   0.49733   0.54337   0.00000  Uiso   1.00
C845   C     0.09024   0.51868   0.98430   0.00000  Uiso   1.00
C846   C     0.24309   0.48132   0.51571   0.00000  Uiso   1.00
C847   C     0.17375   0.49782   0.97561   0.00000  Uiso   1.00
C848   C     0.15959   0.50217   0.52439   0.00000  Uiso   1.00
H849   H     0.15552   0.52887   0.60881   0.00000  Uiso   1.00
H850   H     0.17781   0.47114   0.89119   0.00000  Uiso   1.00
N851   N     0.04759   0.50001   0.75001   0.00000  Uiso   1.00
N852   N     0.28574   0.49999   0.74999   0.00000  Uiso   1.00
O853   O     0.12846   0.56108   0.75000   0.00000  Uiso   1.00
O854   O     0.20488   0.43892   0.74999   0.00000  Uiso   1.00
O855   O     0.20490   0.56107   0.75000   0.00000  Uiso   1.00
O856   O     0.12843   0.43893   0.75000   0.00000  Uiso   1.00
O857   O     0.10661   0.50001   0.81612   0.00000  Uiso   1.00
O858   O     0.22672   0.49999   0.68387   0.00000  Uiso   1.00
O859   O     0.18305   0.50000   0.81612   0.00000  Uiso   1.00
O860   O     0.15028   0.50000   0.68388   0.00000  Uiso   1.00
Zn861  Zn    0.11562   0.50001   0.75000   0.00000  Uiso   1.00
Zn862  Zn    0.21771   0.49999   0.75000   0.00000  Uiso   1.00
O863   O     0.02860   0.53386   0.56043   0.00000  Uiso   1.00
H864   H     0.02515   0.53729   0.59328   0.00000  Uiso   1.00
O865   O     0.30473   0.46614   0.93957   0.00000  Uiso   1.00
H866   H     0.30818   0.46270   0.90673   0.00000  Uiso   1.00
F867   F     0.29183   0.46348   0.60627   0.00000  Uiso   1.00
F868   F     0.04149   0.53651   0.89373   0.00000  Uiso   1.00
F869   F     0.01327   0.54725   0.98694   0.00000  Uiso   1.00
F870   F     0.32005   0.45274   0.51306   0.00000  Uiso   1.00
F871   F     0.09109   0.50288   0.59949   0.00000  Uiso   1.00
F872   F     0.24224   0.49712   0.90051   0.00000  Uiso   1.00
O873   O     0.24185   0.62641   0.67647   0.00000  Uiso   1.00
H874   H     0.23242   0.59740   0.67259   0.00000  Uiso   1.00
O875   O     0.09148   0.37359   0.82353   0.00000  Uiso   1.00
H876   H     0.10091   0.40260   0.82741   0.00000  Uiso   1.00
F877   F     0.24040   0.37710   0.68244   0.00000  Uiso   1.00
F878   F     0.09293   0.62290   0.81756   0.00000  Uiso   1.00
F879   F     0.30941   0.44711   0.69299   0.00000  Uiso   1.00
F880   F     0.02393   0.55289   0.80701   0.00000  Uiso   1.00
O881   O     0.07199   0.44650   0.69280   0.00000  Uiso   1.00
H882   H     0.05863   0.42937   0.67391   0.00000  Uiso   1.00
O883   O     0.26134   0.55350   0.80720   0.00000  Uiso   1.00
H884   H     0.27471   0.57063   0.82609   0.00000  Uiso   1.00
C885   C     0.50015   0.57986   0.74929   0.00000  Uiso   1.00
C886   C     0.49985   0.42014   0.75071   0.00000  Uiso   1.00
C887   C     0.44274   0.51009   0.55276   0.00000  Uiso   1.00
C888   C     0.55726   0.48991   0.94724   0.00000  Uiso   1.00
C889   C     0.40937   0.52182   0.53284   0.00000  Uiso   1.00
C890   C     0.59063   0.47818   0.96716   0.00000  Uiso   1.00
C891   C     0.53816   0.64564   0.71353   0.00000  Uiso   1.00
C892   C     0.46184   0.35436   0.78647   0.00000  Uiso   1.00
C893   C     0.53798   0.35531   0.71607   0.00000  Uiso   1.00
C894   C     0.46202   0.64469   0.78393   0.00000  Uiso   1.00
C895   C     0.49995   0.37602   0.75173   0.00000  Uiso   1.00
C896   C     0.50005   0.62398   0.74827   0.00000  Uiso   1.00
C897   C     0.65436   0.47345   0.72140   0.00000  Uiso   1.00
C898   C     0.34564   0.52655   0.77860   0.00000  Uiso   1.00
C899   C     0.36936   0.47327   0.72131   0.00000  Uiso   1.00
C900   C     0.63064   0.52673   0.77869   0.00000  Uiso   1.00
C901   C     0.46920   0.50032   0.83803   0.00000  Uiso   1.00
C902   C     0.53080   0.49968   0.66196   0.00000  Uiso   1.00
C903   C     0.44958   0.50342   0.88881   0.00000  Uiso   1.00
C904   C     0.55042   0.49658   0.61119   0.00000  Uiso   1.00
C905   C     0.39099   0.52937   0.96258   0.00000  Uiso   1.00
C906   C     0.60901   0.47063   0.53742   0.00000  Uiso   1.00
C907   C     0.40481   0.52304   0.91467   0.00000  Uiso   1.00
C908   C     0.59519   0.47695   0.58533   0.00000  Uiso   1.00
C909   C     0.48005   0.49067   0.91079   0.00000  Uiso   1.00
C910   C     0.51995   0.50933   0.58921   0.00000  Uiso   1.00
C911   C     0.47085   0.50266   0.95663   0.00000  Uiso   1.00
C912   C     0.52915   0.49733   0.54337   0.00000  Uiso   1.00
C913   C     0.42358   0.51868   0.98430   0.00000  Uiso   1.00
C914   C     0.57642   0.48132   0.51571   0.00000  Uiso   1.00
C915   C     0.50708   0.49782   0.97561   0.00000  Uiso   1.00
C916   C     0.49292   0.50217   0.52439   0.00000  Uiso   1.00
H917   H     0.48885   0.52887   0.60881   0.00000  Uiso   1.00
H918   H     0.51115   0.47114   0.89119   0.00000  Uiso   1.00
N919   N     0.38093   0.50001   0.75001   0.00000  Uiso   1.00
N920   N     0.61907   0.49999   0.74999   0.00000  Uiso   1.00
O921   O     0.46179   0.56108   0.75000   0.00000  Uiso   1.00
O922   O     0.53821   0.43892   0.74999   0.00000  Uiso   1.00
O923   O     0.53823   0.56107   0.75000   0.00000  Uiso   1.00
O924   O     0.46177   0.43893   0.75000   0.00000  Uiso   1.00
O925   O     0.43994   0.50001   0.81612   0.00000  Uiso   1.00
O926   O     0.56006   0.49999   0.68387   0.00000  Uiso   1.00
O927   O     0.51639   0.50000   0.81612   0.00000  Uiso   1.00
O928   O     0.48361   0.50000   0.68388   0.00000  Uiso   1.00
Zn929  Zn    0.44896   0.50001   0.75000   0.00000  Uiso   1.00
Zn930  Zn    0.55104   0.49999   0.75000   0.00000  Uiso   1.00
O931   O     0.36194   0.53386   0.56043   0.00000  Uiso   1.00
H932   H     0.35848   0.53729   0.59328   0.00000  Uiso   1.00
O933   O     0.63806   0.46614   0.93957   0.00000  Uiso   1.00
H934   H     0.64152   0.46270   0.90673   0.00000  Uiso   1.00
F935   F     0.62517   0.46348   0.60627   0.00000  Uiso   1.00
F936   F     0.37483   0.53651   0.89373   0.00000  Uiso   1.00
F937   F     0.34661   0.54725   0.98694   0.00000  Uiso   1.00
F938   F     0.65339   0.45274   0.51306   0.00000  Uiso   1.00
F939   F     0.42442   0.50288   0.59949   0.00000  Uiso   1.00
F940   F     0.57558   0.49712   0.90051   0.00000  Uiso   1.00
O941   O     0.57519   0.62641   0.67647   0.00000  Uiso   1.00
H942   H     0.56576   0.59740   0.67259   0.00000  Uiso   1.00
O943   O     0.42481   0.37359   0.82353   0.00000  Uiso   1.00
H944   H     0.43425   0.40260   0.82741   0.00000  Uiso   1.00
F945   F     0.57374   0.37710   0.68244   0.00000  Uiso   1.00
F946   F     0.42626   0.62290   0.81756   0.00000  Uiso   1.00
F947   F     0.64274   0.44711   0.69299   0.00000  Uiso   1.00
F948   F     0.35726   0.55289   0.80701   0.00000  Uiso   1.00
O949   O     0.40532   0.44650   0.69280   0.00000  Uiso   1.00
H950   H     0.39196   0.42937   0.67391   0.00000  Uiso   1.00
O951   O     0.59468   0.55350   0.80720   0.00000  Uiso   1.00
H952   H     0.60804   0.57063   0.82609   0.00000  Uiso   1.00
C953   C     0.83348   0.57986   0.74929   0.00000  Uiso   1.00
C954   C     0.83318   0.42014   0.75071   0.00000  Uiso   1.00
C955   C     0.77608   0.51009   0.55276   0.00000  Uiso   1.00
C956   C     0.89059   0.48991   0.94724   0.00000  Uiso   1.00
C957   C     0.74270   0.52182   0.53284   0.00000  Uiso   1.00
C958   C     0.92396   0.47818   0.96716   0.00000  Uiso   1.00
C959   C     0.87149   0.64564   0.71353   0.00000  Uiso   1.00
C960   C     0.79518   0.35436   0.78647   0.00000  Uiso   1.00
C961   C     0.87132   0.35531   0.71607   0.00000  Uiso   1.00
C962   C     0.79535   0.64469   0.78393   0.00000  Uiso   1.00
C963   C     0.83328   0.37602   0.75173   0.00000  Uiso   1.00
C964   C     0.83338   0.62398   0.74827   0.00000  Uiso   1.00
C965   C     0.98769   0.47345   0.72140   0.00000  Uiso   1.00
C966   C     0.67897   0.52655   0.77860   0.00000  Uiso   1.00
C967   C     0.70270   0.47327   0.72131   0.00000  Uiso   1.00
C968   C     0.96397   0.52673   0.77869   0.00000  Uiso   1.00
C969   C     0.80253   0.50032   0.83803   0.00000  Uiso   1.00
C970   C     0.86414   0.49968   0.66196   0.00000  Uiso   1.00
C971   C     0.78292   0.50342   0.88881   0.00000  Uiso   1.00
C972   C     0.88375   0.49658   0.61119   0.00000  Uiso   1.00
C973   C     0.72432   0.52937   0.96258   0.00000  Uiso   1.00
C974   C     0.94234   0.47063   0.53742   0.00000  Uiso   1.00
C975   C     0.73814   0.52304   0.91467   0.00000  Uiso   1.00
C976   C     0.92852   0.47695   0.58533   0.00000  Uiso   1.00
C977   C     0.81338   0.49067   0.91079   0.00000  Uiso   1.00
C978   C     0.85328   0.50933   0.58921   0.00000  Uiso   1.00
C979   C     0.80418   0.50266   0.95663   0.00000  Uiso   1.00
C980   C     0.86249   0.49733   0.54337   0.00000  Uiso   1.00
C981   C     0.75691   0.51868   0.98430   0.00000  Uiso   1.00
C982   C     0.90976   0.48132   0.51571   0.00000  Uiso   1.00
C983   C     0.84041   0.49782   0.97561   0.00000  Uiso   1.00
C984   C     0.82625   0.50217   0.52439   0.00000  Uiso   1.00
H985   H     0.82219   0.52887   0.60881   0.00000  Uiso   1.00
H986   H     0.84448   0.47114   0.89119   0.00000  Uiso   1.00
N987   N     0.71426   0.50001   0.75001   0.00000  Uiso   1.00
N988   N     0.95241   0.49999   0.74999   0.00000  Uiso   1.00
O989   O     0.79512   0.56108   0.75000   0.00000  Uiso   1.00
O990   O     0.87154   0.43892   0.74999   0.00000  Uiso   1.00
O991   O     0.87157   0.56107   0.75000   0.00000  Uiso   1.00
O992   O     0.79510   0.43893   0.75000   0.00000  Uiso   1.00
O993   O     0.77328   0.50001   0.81612   0.00000  Uiso   1.00
O994   O     0.89339   0.49999   0.68387   0.00000  Uiso   1.00
O995   O     0.84972   0.50000   0.81612   0.00000  Uiso   1.00
O996   O     0.81695   0.50000   0.68388   0.00000  Uiso   1.00
Zn997  Zn    0.78229   0.50001   0.75000   0.00000  Uiso   1.00
Zn998  Zn    0.88438   0.49999   0.75000   0.00000  Uiso   1.00
O999   O     0.69527   0.53386   0.56043   0.00000  Uiso   1.00
H1000  H     0.69181   0.53729   0.59328   0.00000  Uiso   1.00
O1001  O     0.97140   0.46614   0.93957   0.00000  Uiso   1.00
H1002  H     0.97485   0.46270   0.90673   0.00000  Uiso   1.00
F1003  F     0.95850   0.46348   0.60627   0.00000  Uiso   1.00
F1004  F     0.70816   0.53651   0.89373   0.00000  Uiso   1.00
F1005  F     0.67994   0.54725   0.98694   0.00000  Uiso   1.00
F1006  F     0.98672   0.45274   0.51306   0.00000  Uiso   1.00
F1007  F     0.75776   0.50288   0.59949   0.00000  Uiso   1.00
F1008  F     0.90891   0.49712   0.90051   0.00000  Uiso   1.00
O1009  O     0.90852   0.62641   0.67647   0.00000  Uiso   1.00
H1010  H     0.89909   0.59740   0.67259   0.00000  Uiso   1.00
O1011  O     0.75814   0.37359   0.82353   0.00000  Uiso   1.00
H1012  H     0.76758   0.40260   0.82741   0.00000  Uiso   1.00
F1013  F     0.90707   0.37710   0.68244   0.00000  Uiso   1.00
F1014  F     0.75960   0.62290   0.81756   0.00000  Uiso   1.00
F1015  F     0.97607   0.44711   0.69299   0.00000  Uiso   1.00
F1016  F     0.69059   0.55289   0.80701   0.00000  Uiso   1.00
O1017  O     0.73866   0.44650   0.69280   0.00000  Uiso   1.00
H1018  H     0.72529   0.42937   0.67391   0.00000  Uiso   1.00
O1019  O     0.92801   0.55350   0.80720   0.00000  Uiso   1.00
H1020  H     0.94137   0.57063   0.82609   0.00000  Uiso   1.00
C1021  C     0.16682   0.91320   0.74929   0.00000  Uiso   1.00
C1022  C     0.16652   0.75347   0.75071   0.00000  Uiso   1.00
C1023  C     0.10941   0.84342   0.55276   0.00000  Uiso   1.00
C1024  C     0.22392   0.82324   0.94724   0.00000  Uiso   1.00
C1025  C     0.07603   0.85515   0.53284   0.00000  Uiso   1.00
C1026  C     0.25730   0.81151   0.96716   0.00000  Uiso   1.00
C1027  C     0.20482   0.97897   0.71353   0.00000  Uiso   1.00
C1028  C     0.12851   0.68769   0.78647   0.00000  Uiso   1.00
C1029  C     0.20465   0.68864   0.71607   0.00000  Uiso   1.00
C1030  C     0.12868   0.97802   0.78393   0.00000  Uiso   1.00
C1031  C     0.16662   0.70935   0.75173   0.00000  Uiso   1.00
C1032  C     0.16672   0.95731   0.74827   0.00000  Uiso   1.00
C1033  C     0.32103   0.80678   0.72140   0.00000  Uiso   1.00
C1034  C     0.01231   0.85988   0.77860   0.00000  Uiso   1.00
C1035  C     0.03603   0.80660   0.72131   0.00000  Uiso   1.00
C1036  C     0.29730   0.86007   0.77869   0.00000  Uiso   1.00
C1037  C     0.13586   0.83366   0.83803   0.00000  Uiso   1.00
C1038  C     0.19747   0.83301   0.66196   0.00000  Uiso   1.00
C1039  C     0.11625   0.83675   0.88881   0.00000  Uiso   1.00
C1040  C     0.21708   0.82992   0.61119   0.00000  Uiso   1.00
C1041  C     0.05766   0.86270   0.96258   0.00000  Uiso   1.00
C1042  C     0.27567   0.80396   0.53742   0.00000  Uiso   1.00
C1043  C     0.07148   0.85638   0.91467   0.00000  Uiso   1.00
C1044  C     0.26185   0.81029   0.58533   0.00000  Uiso   1.00
C1045  C     0.14672   0.82400   0.91079   0.00000  Uiso   1.00
C1046  C     0.18662   0.84266   0.58921   0.00000  Uiso   1.00
C1047  C     0.13751   0.83600   0.95663   0.00000  Uiso   1.00
C1048  C     0.19582   0.83067   0.54337   0.00000  Uiso   1.00
C1049  C     0.09024   0.85201   0.98430   0.00000  Uiso   1.00
C1050  C     0.24309   0.81465   0.51571   0.00000  Uiso   1.00
C1051  C     0.17375   0.83116   0.97561   0.00000  Uiso   1.00
C1052  C     0.15959   0.83551   0.52439   0.00000  Uiso   1.00
H1053  H     0.15552   0.86220   0.60881   0.00000  Uiso   1.00
H1054  H     0.17781   0.80447   0.89119   0.00000  Uiso   1.00
N1055  N     0.04759   0.83334   0.75001   0.00000  Uiso   1.00
N1056  N     0.28574   0.83332   0.74999   0.00000  Uiso   1.00
O1057  O     0.12846   0.89442   0.75000   0.00000  Uiso   1.00
O1058  O     0.20488   0.77225   0.74999   0.00000  Uiso   1.00
O1059  O     0.20490   0.89441   0.75000   0.00000  Uiso   1.00
O1060  O     0.12843   0.77226   0.75000   0.00000  Uiso   1.00
O1061  O     0.10661   0.83334   0.81612   0.00000  Uiso   1.00
O1062  O     0.22672   0.83333   0.68387   0.00000  Uiso   1.00
O1063  O     0.18305   0.83333   0.81612   0.00000  Uiso   1.00
O1064  O     0.15028   0.83334   0.68388   0.00000  Uiso   1.00
Zn1065 Zn    0.11562   0.83334   0.75000   0.00000  Uiso   1.00
Zn1066 Zn    0.21771   0.83333   0.75000   0.00000  Uiso   1.00
O1067  O     0.02860   0.86719   0.56043   0.00000  Uiso   1.00
H1068  H     0.02515   0.87062   0.59328   0.00000  Uiso   1.00
O1069  O     0.30473   0.79947   0.93957   0.00000  Uiso   1.00
H1070  H     0.30818   0.79604   0.90673   0.00000  Uiso   1.00
F1071  F     0.29183   0.79681   0.60627   0.00000  Uiso   1.00
F1072  F     0.04149   0.86985   0.89373   0.00000  Uiso   1.00
F1073  F     0.01327   0.88059   0.98694   0.00000  Uiso   1.00
F1074  F     0.32005   0.78607   0.51306   0.00000  Uiso   1.00
F1075  F     0.09109   0.83622   0.59949   0.00000  Uiso   1.00
F1076  F     0.24224   0.83045   0.90051   0.00000  Uiso   1.00
O1077  O     0.24185   0.95974   0.67647   0.00000  Uiso   1.00
H1078  H     0.23242   0.93073   0.67259   0.00000  Uiso   1.00
O1079  O     0.09148   0.70692   0.82353   0.00000  Uiso   1.00
H1080  H     0.10091   0.73593   0.82741   0.00000  Uiso   1.00
F1081  F     0.24040   0.71043   0.68244   0.00000  Uiso   1.00
F1082  F     0.09293   0.95623   0.81756   0.00000  Uiso   1.00
F1083  F     0.30941   0.78044   0.69299   0.00000  Uiso   1.00
F1084  F     0.02393   0.88623   0.80701   0.00000  Uiso   1.00
O1085  O     0.07199   0.77984   0.69280   0.00000  Uiso   1.00
H1086  H     0.05863   0.76270   0.67391   0.00000  Uiso   1.00
O1087  O     0.26134   0.88683   0.80720   0.00000  Uiso   1.00
H1088  H     0.27471   0.90397   0.82609   0.00000  Uiso   1.00
C1089  C     0.50015   0.91320   0.74929   0.00000  Uiso   1.00
C1090  C     0.49985   0.75347   0.75071   0.00000  Uiso   1.00
C1091  C     0.44274   0.84342   0.55276   0.00000  Uiso   1.00
C1092  C     0.55726   0.82324   0.94724   0.00000  Uiso   1.00
C1093  C     0.40937   0.85515   0.53284   0.00000  Uiso   1.00
C1094  C     0.59063   0.81151   0.96716   0.00000  Uiso   1.00
C1095  C     0.53816   0.97897   0.71353   0.00000  Uiso   1.00
C1096  C     0.46184   0.68769   0.78647   0.00000  Uiso   1.00
C1097  C     0.53798   0.68864   0.71607   0.00000  Uiso   1.00
C1098  C     0.46202   0.97802   0.78393   0.00000  Uiso   1.00
C1099  C     0.49995   0.70935   0.75173   0.00000  Uiso   1.00
C1100  C     0.50005   0.95731   0.74827   0.00000  Uiso   1.00
C1101  C     0.65436   0.80678   0.72140   0.00000  Uiso   1.00
C1102  C     0.34564   0.85988   0.77860   0.00000  Uiso   1.00
C1103  C     0.36936   0.80660   0.72131   0.00000  Uiso   1.00
C1104  C     0.63064   0.86007   0.77869   0.00000  Uiso   1.00
C1105  C     0.46920   0.83366   0.83803   0.00000  Uiso   1.00
C1106  C     0.53080   0.83301   0.66196   0.00000  Uiso   1.00
C1107  C     0.44958   0.83675   0.88881   0.00000  Uiso   1.00
C1108  C     0.55042   0.82992   0.61119   0.00000  Uiso   1.00
C1109  C     0.39099   0.86270   0.96258   0.00000  Uiso   1.00
C1110  C     0.60901   0.80396   0.53742   0.00000  Uiso   1.00
C1111  C     0.40481   0.85638   0.91467   0.00000  Uiso   1.00
C1112  C     0.59519   0.81029   0.58533   0.00000  Uiso   1.00
C1113  C     0.48005   0.82400   0.91079   0.00000  Uiso   1.00
C1114  C     0.51995   0.84266   0.58921   0.00000  Uiso   1.00
C1115  C     0.47085   0.83600   0.95663   0.00000  Uiso   1.00
C1116  C     0.52915   0.83067   0.54337   0.00000  Uiso   1.00
C1117  C     0.42358   0.85201   0.98430   0.00000  Uiso   1.00
C1118  C     0.57642   0.81465   0.51571   0.00000  Uiso   1.00
C1119  C     0.50708   0.83116   0.97561   0.00000  Uiso   1.00
C1120  C     0.49292   0.83551   0.52439   0.00000  Uiso   1.00
H1121  H     0.48885   0.86220   0.60881   0.00000  Uiso   1.00
H1122  H     0.51115   0.80447   0.89119   0.00000  Uiso   1.00
N1123  N     0.38093   0.83334   0.75001   0.00000  Uiso   1.00
N1124  N     0.61907   0.83332   0.74999   0.00000  Uiso   1.00
O1125  O     0.46179   0.89442   0.75000   0.00000  Uiso   1.00
O1126  O     0.53821   0.77225   0.74999   0.00000  Uiso   1.00
O1127  O     0.53823   0.89441   0.75000   0.00000  Uiso   1.00
O1128  O     0.46177   0.77226   0.75000   0.00000  Uiso   1.00
O1129  O     0.43994   0.83334   0.81612   0.00000  Uiso   1.00
O1130  O     0.56006   0.83333   0.68387   0.00000  Uiso   1.00
O1131  O     0.51639   0.83333   0.81612   0.00000  Uiso   1.00
O1132  O     0.48361   0.83334   0.68388   0.00000  Uiso   1.00
Zn1133 Zn    0.44896   0.83334   0.75000   0.00000  Uiso   1.00
Zn1134 Zn    0.55104   0.83333   0.75000   0.00000  Uiso   1.00
O1135  O     0.36194   0.86719   0.56043   0.00000  Uiso   1.00
H1136  H     0.35848   0.87062   0.59328   0.00000  Uiso   1.00
O1137  O     0.63806   0.79947   0.93957   0.00000  Uiso   1.00
H1138  H     0.64152   0.79604   0.90673   0.00000  Uiso   1.00
F1139  F     0.62517   0.79681   0.60627   0.00000  Uiso   1.00
F1140  F     0.37483   0.86985   0.89373   0.00000  Uiso   1.00
F1141  F     0.34661   0.88059   0.98694   0.00000  Uiso   1.00
F1142  F     0.65339   0.78607   0.51306   0.00000  Uiso   1.00
F1143  F     0.42442   0.83622   0.59949   0.00000  Uiso   1.00
F1144  F     0.57558   0.83045   0.90051   0.00000  Uiso   1.00
O1145  O     0.57519   0.95974   0.67647   0.00000  Uiso   1.00
H1146  H     0.56576   0.93073   0.67259   0.00000  Uiso   1.00
O1147  O     0.42481   0.70692   0.82353   0.00000  Uiso   1.00
H1148  H     0.43425   0.73593   0.82741   0.00000  Uiso   1.00
F1149  F     0.57374   0.71043   0.68244   0.00000  Uiso   1.00
F1150  F     0.42626   0.95623   0.81756   0.00000  Uiso   1.00
F1151  F     0.64274   0.78044   0.69299   0.00000  Uiso   1.00
F1152  F     0.35726   0.88623   0.80701   0.00000  Uiso   1.00
O1153  O     0.40532   0.77984   0.69280   0.00000  Uiso   1.00
H1154  H     0.39196   0.76270   0.67391   0.00000  Uiso   1.00
O1155  O     0.59468   0.88683   0.80720   0.00000  Uiso   1.00
H1156  H     0.60804   0.90397   0.82609   0.00000  Uiso   1.00
C1157  C     0.83348   0.91320   0.74929   0.00000  Uiso   1.00
C1158  C     0.83318   0.75347   0.75071   0.00000  Uiso   1.00
C1159  C     0.77608   0.84342   0.55276   0.00000  Uiso   1.00
C1160  C     0.89059   0.82324   0.94724   0.00000  Uiso   1.00
C1161  C     0.74270   0.85515   0.53284   0.00000  Uiso   1.00
C1162  C     0.92396   0.81151   0.96716   0.00000  Uiso   1.00
C1163  C     0.87149   0.97897   0.71353   0.00000  Uiso   1.00
C1164  C     0.79518   0.68769   0.78647   0.00000  Uiso   1.00
C1165  C     0.87132   0.68864   0.71607   0.00000  Uiso   1.00
C1166  C     0.79535   0.97802   0.78393   0.00000  Uiso   1.00
C1167  C     0.83328   0.70935   0.75173   0.00000  Uiso   1.00
C1168  C     0.83338   0.95731   0.74827   0.00000  Uiso   1.00
C1169  C     0.98769   0.80678   0.72140   0.00000  Uiso   1.00
C1170  C     0.67897   0.85988   0.77860   0.00000  Uiso   1.00
C1171  C     0.70270   0.80660   0.72131   0.00000  Uiso   1.00
C1172  C     0.96397   0.86007   0.77869   0.00000  Uiso   1.00
C1173  C     0.80253   0.83366   0.83803   0.00000  Uiso   1.00
C1174  C     0.86414   0.83301   0.66196   0.00000  Uiso   1.00
C1175  C     0.78292   0.83675   0.88881   0.00000  Uiso   1.00
C1176  C     0.88375   0.82992   0.61119   0.00000  Uiso   1.00
C1177  C     0.72432   0.86270   0.96258   0.00000  Uiso   1.00
C1178  C     0.94234   0.80396   0.53742   0.00000  Uiso   1.00
C1179  C     0.73814   0.85638   0.91467   0.00000  Uiso   1.00
C1180  C     0.92852   0.81029   0.58533   0.00000  Uiso   1.00
C1181  C     0.81338   0.82400   0.91079   0.00000  Uiso   1.00
C1182  C     0.85328   0.84266   0.58921   0.00000  Uiso   1.00
C1183  C     0.80418   0.83600   0.95663   0.00000  Uiso   1.00
C1184  C     0.86249   0.83067   0.54337   0.00000  Uiso   1.00
C1185  C     0.75691   0.85201   0.98430   0.00000  Uiso   1.00
C1186  C     0.90976   0.81465   0.51571   0.00000  Uiso   1.00
C1187  C     0.84041   0.83116   0.97561   0.00000  Uiso   1.00
C1188  C     0.82625   0.83551   0.52439   0.00000  Uiso   1.00
H1189  H     0.82219   0.86220   0.60881   0.00000  Uiso   1.00
H1190  H     0.84448   0.80447   0.89119   0.00000  Uiso   1.00
N1191  N     0.71426   0.83334   0.75001   0.00000  Uiso   1.00
N1192  N     0.95241   0.83332   0.74999   0.00000  Uiso   1.00
O1193  O     0.79512   0.89442   0.75000   0.00000  Uiso   1.00
O1194  O     0.87154   0.77225   0.74999   0.00000  Uiso   1.00
O1195  O     0.87157   0.89441   0.75000   0.00000  Uiso   1.00
O1196  O     0.79510   0.77226   0.75000   0.00000  Uiso   1.00
O1197  O     0.77328   0.83334   0.81612   0.00000  Uiso   1.00
O1198  O     0.89339   0.83333   0.68387   0.00000  Uiso   1.00
O1199  O     0.84972   0.83333   0.81612   0.00000  Uiso   1.00
O1200  O     0.81695   0.83334   0.68388   0.00000  Uiso   1.00
Zn1201 Zn    0.78229   0.83334   0.75000   0.00000  Uiso   1.00
Zn1202 Zn    0.88438   0.83333   0.75000   0.00000  Uiso   1.00
O1203  O     0.69527   0.86719   0.56043   0.00000  Uiso   1.00
H1204  H     0.69181   0.87062   0.59328   0.00000  Uiso   1.00
O1205  O     0.97140   0.79947   0.93957   0.00000  Uiso   1.00
H1206  H     0.97485   0.79604   0.90673   0.00000  Uiso   1.00
F1207  F     0.95850   0.79681   0.60627   0.00000  Uiso   1.00
F1208  F     0.70816   0.86985   0.89373   0.00000  Uiso   1.00
F1209  F     0.67994   0.88059   0.98694   0.00000  Uiso   1.00
F1210  F     0.98672   0.78607   0.51306   0.00000  Uiso   1.00
F1211  F     0.75776   0.83622   0.59949   0.00000  Uiso   1.00
F1212  F     0.90891   0.83045   0.90051   0.00000  Uiso   1.00
O1213  O     0.90852   0.95974   0.67647   0.00000  Uiso   1.00
H1214  H     0.89909   0.93073   0.67259   0.00000  Uiso   1.00
O1215  O     0.75814   0.70692   0.82353   0.00000  Uiso   1.00
H1216  H     0.76758   0.73593   0.82741   0.00000  Uiso   1.00
F1217  F     0.90707   0.71043   0.68244   0.00000  Uiso   1.00
F1218  F     0.75960   0.95623   0.81756   0.00000  Uiso   1.00
F1219  F     0.97607   0.78044   0.69299   0.00000  Uiso   1.00
F1220  F     0.69059   0.88623   0.80701   0.00000  Uiso   1.00
O1221  O     0.73866   0.77984   0.69280   0.00000  Uiso   1.00
H1222  H     0.72529   0.76270   0.67391   0.00000  Uiso   1.00
O1223  O     0.92801   0.88683   0.80720   0.00000  Uiso   1.00
H1224  H     0.94137   0.90397   0.82609   0.00000  Uiso   1.00
loop_
_geom_bond_atom_site_label_1
_geom_bond_atom_site_label_2
_geom_bond_distance
_geom_bond_site_symmetry_2
_ccdc_geom_bond_type
C1     O37     1.281   .     A
C1     C12     1.409   .     S
C1     O39     1.283   .     A
C2     O38     1.281   .     A
C2     C11     1.409   .     S
C2     O40     1.283   .     A
C3     C5      1.404   .     A
C3     C32     1.424   .     A
C3     F55     1.359   .     S
C4     F56     1.359   .     S
C4     C31     1.424   .     A
C4     C6      1.404   .     A
C5     O47     1.383   .     S
C5     C641    1.402   1_554 S
C6     O49     1.383   .     S
C6     C642    1.402   .     S
C7     C12     1.409   .     A
C7     O57     1.383   .     S
C7     C213    1.375   .     S
C8     C11     1.409   .     A
C8     O59     1.383   .     S
C8     C418    1.375   1_545 S
C9     C11     1.397   .     A
C9     F61     1.361   .     S
C9     C415    1.375   1_545 S
C10    F62     1.361   .     S
C10    C12     1.397   .     A
C10    C212    1.375   .     S
C13    F63     1.356   .     S
C13    N36     1.365   .     A
C13    C83     1.431   .     S
C14    F64     1.356   .     S
C14    N35     1.365   .     A
C14    C152    1.431   1_455 S
C15    O65     1.379   .     S
C15    N35     1.370   .     A
C15    C149    1.431   1_455 S
C16    O67     1.379   .     S
C16    N36     1.370   .     A
C16    C82     1.431   .     S
C17    O43     1.296   .     A
C17    C19     1.456   .     S
C17    O41     1.293   .     A
C18    O44     1.296   .     A
C18    O42     1.293   .     A
C18    C20     1.456   .     S
C19    C23     1.399   .     A
C19    C25     1.386   .     A
C20    C24     1.399   .     A
C20    C26     1.386   .     A
C21    F53     1.358   .     S
C21    C29     1.416   .     A
C21    C23     1.395   .     A
C22    F54     1.358   .     S
C22    C24     1.395   .     A
C22    C30     1.416   .     A
C23    F52     1.357   .     S
C24    F51     1.357   .     S
C25    H34     1.079   .     S
C25    C27     1.393   .     A
C26    H33     1.079   .     S
C26    C28     1.393   .     A
C27    C29     1.420   .     A
C27    C31     1.419   .     A
C28    C32     1.419   .     A
C28    C30     1.420   .     A
C29    C617    1.402   .     S
C30    C618    1.402   1_554 S
C31    C644    1.412   .     S
C32    C643    1.412   1_554 S
N35    Zn45    2.015   .     S
N36    Zn46    2.015   .     S
O37    Zn45    1.988   .     S
O38    Zn46    1.988   .     S
O39    Zn46    1.984   .     S
O40    Zn45    1.984   .     S
O41    Zn45    1.965   .     S
O42    Zn46    1.965   .     S
O43    Zn46    1.906   .     S
O44    Zn45    1.906   .     S
O47    H48     0.991   .     S
O49    H50     0.991   .     S
O57    H58     0.989   .     S
O59    H60     0.989   .     S
O65    H66     0.990   .     S
O67    H68     0.990   .     S
C69    O105    1.281   .     A
C69    C80     1.409   .     S
C69    O107    1.283   .     A
C70    O106    1.281   .     A
C70    C79     1.409   .     S
C70    O108    1.283   .     A
C71    C73     1.404   .     A
C71    C100    1.424   .     A
C71    F123    1.359   .     S
C72    F124    1.359   .     S
C72    C99     1.424   .     A
C72    C74     1.404   .     A
C73    O115    1.383   .     S
C73    C709    1.402   1_554 S
C74    O117    1.383   .     S
C74    C710    1.402   .     S
C75    C80     1.409   .     A
C75    O125    1.383   .     S
C75    C281    1.375   .     S
C76    C79     1.409   .     A
C76    O127    1.383   .     S
C76    C486    1.375   1_545 S
C77    C79     1.397   .     A
C77    F129    1.361   .     S
C77    C483    1.375   1_545 S
C78    F130    1.361   .     S
C78    C80     1.397   .     A
C78    C280    1.375   .     S
C81    F131    1.356   .     S
C81    N104    1.365   .     A
C81    C151    1.431   .     S
C82    F132    1.356   .     S
C82    N103    1.365   .     A
C83    O133    1.379   .     S
C83    N103    1.370   .     A
C84    O135    1.379   .     S
C84    N104    1.370   .     A
C84    C150    1.431   .     S
C85    O111    1.296   .     A
C85    C87     1.456   .     S
C85    O109    1.293   .     A
C86    O112    1.296   .     A
C86    O110    1.293   .     A
C86    C88     1.456   .     S
C87    C91     1.399   .     A
C87    C93     1.386   .     A
C88    C92     1.399   .     A
C88    C94     1.386   .     A
C89    F121    1.358   .     S
C89    C97     1.416   .     A
C89    C91     1.395   .     A
C90    F122    1.358   .     S
C90    C92     1.395   .     A
C90    C98     1.416   .     A
C91    F120    1.357   .     S
C92    F119    1.357   .     S
C93    H102    1.079   .     S
C93    C95     1.393   .     A
C94    H101    1.079   .     S
C94    C96     1.393   .     A
C95    C97     1.420   .     A
C95    C99     1.419   .     A
C96    C100    1.419   .     A
C96    C98     1.420   .     A
C97    C685    1.402   .     S
C98    C686    1.402   1_554 S
C99    C712    1.412   .     S
C100   C711    1.412   1_554 S
N103   Zn113   2.015   .     S
N104   Zn114   2.015   .     S
O105   Zn113   1.988   .     S
O106   Zn114   1.988   .     S
O107   Zn114   1.984   .     S
O108   Zn113   1.984   .     S
O109   Zn113   1.965   .     S
O110   Zn114   1.965   .     S
O111   Zn114   1.906   .     S
O112   Zn113   1.906   .     S
O115   H116    0.991   .     S
O117   H118    0.991   .     S
O125   H126    0.989   .     S
O127   H128    0.989   .     S
O133   H134    0.990   .     S
O135   H136    0.990   .     S
C137   O173    1.281   .     A
C137   C148    1.409   .     S
C137   O175    1.283   .     A
C138   O174    1.281   .     A
C138   C147    1.409   .     S
C138   O176    1.283   .     A
C139   C141    1.404   .     A
C139   C168    1.424   .     A
C139   F191    1.359   .     S
C140   F192    1.359   .     S
C140   C167    1.424   .     A
C140   C142    1.404   .     A
C141   O183    1.383   .     S
C141   C777    1.402   1_554 S
C142   O185    1.383   .     S
C142   C778    1.402   .     S
C143   C148    1.409   .     A
C143   O193    1.383   .     S
C143   C349    1.375   .     S
C144   C147    1.409   .     A
C144   O195    1.383   .     S
C144   C554    1.375   1_545 S
C145   C147    1.397   .     A
C145   F197    1.361   .     S
C145   C551    1.375   1_545 S
C146   F198    1.361   .     S
C146   C148    1.397   .     A
C146   C348    1.375   .     S
C149   F199    1.356   .     S
C149   N172    1.365   .     A
C149   C15     1.431   1_655 S
C150   F200    1.356   .     S
C150   N171    1.365   .     A
C151   O201    1.379   .     S
C151   N171    1.370   .     A
C152   O203    1.379   .     S
C152   N172    1.370   .     A
C152   C14     1.431   1_655 S
C153   O179    1.296   .     A
C153   C155    1.456   .     S
C153   O177    1.293   .     A
C154   O180    1.296   .     A
C154   O178    1.293   .     A
C154   C156    1.456   .     S
C155   C159    1.399   .     A
C155   C161    1.386   .     A
C156   C160    1.399   .     A
C156   C162    1.386   .     A
C157   F189    1.358   .     S
C157   C165    1.416   .     A
C157   C159    1.395   .     A
C158   F190    1.358   .     S
C158   C160    1.395   .     A
C158   C166    1.416   .     A
C159   F188    1.357   .     S
C160   F187    1.357   .     S
C161   H170    1.079   .     S
C161   C163    1.393   .     A
C162   H169    1.079   .     S
C162   C164    1.393   .     A
C163   C165    1.420   .     A
C163   C167    1.419   .     A
C164   C168    1.419   .     A
C164   C166    1.420   .     A
C165   C753    1.402   .     S
C166   C754    1.402   1_554 S
C167   C780    1.412   .     S
C168   C779    1.412   1_554 S
N171   Zn181   2.015   .     S
N172   Zn182   2.015   .     S
O173   Zn181   1.988   .     S
O174   Zn182   1.988   .     S
O175   Zn182   1.984   .     S
O176   Zn181   1.984   .     S
O177   Zn181   1.965   .     S
O178   Zn182   1.965   .     S
O179   Zn182   1.906   .     S
O180   Zn181   1.906   .     S
O183   H184    0.991   .     S
O185   H186    0.991   .     S
O193   H194    0.989   .     S
O195   H196    0.989   .     S
O201   H202    0.990   .     S
O203   H204    0.990   .     S
C205   O241    1.281   .     A
C205   C216    1.409   .     S
C205   O243    1.283   .     A
C206   O242    1.281   .     A
C206   C215    1.409   .     S
C206   O244    1.283   .     A
C207   C209    1.404   .     A
C207   C236    1.424   .     A
C207   F259    1.359   .     S
C208   F260    1.359   .     S
C208   C235    1.424   .     A
C208   C210    1.404   .     A
C209   O251    1.383   .     S
C209   C845    1.402   1_554 S
C210   O253    1.383   .     S
C210   C846    1.402   .     S
C211   C216    1.409   .     A
C211   O261    1.383   .     S
C211   C417    1.375   .     S
C212   C215    1.409   .     A
C212   O263    1.383   .     S
C213   C215    1.397   .     A
C213   F265    1.361   .     S
C214   F266    1.361   .     S
C214   C216    1.397   .     A
C214   C416    1.375   .     S
C217   F267    1.356   .     S
C217   N240    1.365   .     A
C217   C287    1.431   .     S
C218   F268    1.356   .     S
C218   N239    1.365   .     A
C218   C356    1.431   1_455 S
C219   O269    1.379   .     S
C219   N239    1.370   .     A
C219   C353    1.431   1_455 S
C220   O271    1.379   .     S
C220   N240    1.370   .     A
C220   C286    1.431   .     S
C221   O247    1.296   .     A
C221   C223    1.456   .     S
C221   O245    1.293   .     A
C222   O248    1.296   .     A
C222   O246    1.293   .     A
C222   C224    1.456   .     S
C223   C227    1.399   .     A
C223   C229    1.386   .     A
C224   C228    1.399   .     A
C224   C230    1.386   .     A
C225   F257    1.358   .     S
C225   C233    1.416   .     A
C225   C227    1.395   .     A
C226   F258    1.358   .     S
C226   C228    1.395   .     A
C226   C234    1.416   .     A
C227   F256    1.357   .     S
C228   F255    1.357   .     S
C229   H238    1.079   .     S
C229   C231    1.393   .     A
C230   H237    1.079   .     S
C230   C232    1.393   .     A
C231   C233    1.420   .     A
C231   C235    1.419   .     A
C232   C236    1.419   .     A
C232   C234    1.420   .     A
C233   C821    1.402   .     S
C234   C822    1.402   1_554 S
C235   C848    1.412   .     S
C236   C847    1.412   1_554 S
N239   Zn249   2.015   .     S
N240   Zn250   2.015   .     S
O241   Zn249   1.988   .     S
O242   Zn250   1.988   .     S
O243   Zn250   1.984   .     S
O244   Zn249   1.984   .     S
O245   Zn249   1.965   .     S
O246   Zn250   1.965   .     S
O247   Zn250   1.906   .     S
O248   Zn249   1.906   .     S
O251   H252    0.991   .     S
O253   H254    0.991   .     S
O261   H262    0.989   .     S
O263   H264    0.989   .     S
O269   H270    0.990   .     S
O271   H272    0.990   .     S
C273   O309    1.281   .     A
C273   C284    1.409   .     S
C273   O311    1.283   .     A
C274   O310    1.281   .     A
C274   C283    1.409   .     S
C274   O312    1.283   .     A
C275   C277    1.404   .     A
C275   C304    1.424   .     A
C275   F327    1.359   .     S
C276   F328    1.359   .     S
C276   C303    1.424   .     A
C276   C278    1.404   .     A
C277   O319    1.383   .     S
C277   C913    1.402   1_554 S
C278   O321    1.383   .     S
C278   C914    1.402   .     S
C279   C284    1.409   .     A
C279   O329    1.383   .     S
C279   C485    1.375   .     S
C280   C283    1.409   .     A
C280   O331    1.383   .     S
C281   C283    1.397   .     A
C281   F333    1.361   .     S
C282   F334    1.361   .     S
C282   C284    1.397   .     A
C282   C484    1.375   .     S
C285   F335    1.356   .     S
C285   N308    1.365   .     A
C285   C355    1.431   .     S
C286   F336    1.356   .     S
C286   N307    1.365   .     A
C287   O337    1.379   .     S
C287   N307    1.370   .     A
C288   O339    1.379   .     S
C288   N308    1.370   .     A
C288   C354    1.431   .     S
C289   O315    1.296   .     A
C289   C291    1.456   .     S
C289   O313    1.293   .     A
C290   O316    1.296   .     A
C290   O314    1.293   .     A
C290   C292    1.456   .     S
C291   C295    1.399   .     A
C291   C297    1.386   .     A
C292   C296    1.399   .     A
C292   C298    1.386   .     A
C293   F325    1.358   .     S
C293   C301    1.416   .     A
C293   C295    1.395   .     A
C294   F326    1.358   .     S
C294   C296    1.395   .     A
C294   C302    1.416   .     A
C295   F324    1.357   .     S
C296   F323    1.357   .     S
C297   H306    1.079   .     S
C297   C299    1.393   .     A
C298   H305    1.079   .     S
C298   C300    1.393   .     A
C299   C301    1.420   .     A
C299   C303    1.419   .     A
C300   C304    1.419   .     A
C300   C302    1.420   .     A
C301   C889    1.402   .     S
C302   C890    1.402   1_554 S
C303   C916    1.412   .     S
C304   C915    1.412   1_554 S
N307   Zn317   2.015   .     S
N308   Zn318   2.015   .     S
O309   Zn317   1.988   .     S
O310   Zn318   1.988   .     S
O311   Zn318   1.984   .     S
O312   Zn317   1.984   .     S
O313   Zn317   1.965   .     S
O314   Zn318   1.965   .     S
O315   Zn318   1.906   .     S
O316   Zn317   1.906   .     S
O319   H320    0.991   .     S
O321   H322    0.991   .     S
O329   H330    0.989   .     S
O331   H332    0.989   .     S
O337   H338    0.990   .     S
O339   H340    0.990   .     S
C341   O377    1.281   .     A
C341   C352    1.409   .     S
C341   O379    1.283   .     A
C342   O378    1.281   .     A
C342   C351    1.409   .     S
C342   O380    1.283   .     A
C343   C345    1.404   .     A
C343   C372    1.424   .     A
C343   F395    1.359   .     S
C344   F396    1.359   .     S
C344   C371    1.424   .     A
C344   C346    1.404   .     A
C345   O387    1.383   .     S
C345   C981    1.402   1_554 S
C346   O389    1.383   .     S
C346   C982    1.402   .     S
C347   C352    1.409   .     A
C347   O397    1.383   .     S
C347   C553    1.375   .     S
C348   C351    1.409   .     A
C348   O399    1.383   .     S
C349   C351    1.397   .     A
C349   F401    1.361   .     S
C350   F402    1.361   .     S
C350   C352    1.397   .     A
C350   C552    1.375   .     S
C353   F403    1.356   .     S
C353   N376    1.365   .     A
C353   C219    1.431   1_655 S
C354   F404    1.356   .     S
C354   N375    1.365   .     A
C355   O405    1.379   .     S
C355   N375    1.370   .     A
C356   O407    1.379   .     S
C356   N376    1.370   .     A
C356   C218    1.431   1_655 S
C357   O383    1.296   .     A
C357   C359    1.456   .     S
C357   O381    1.293   .     A
C358   O384    1.296   .     A
C358   O382    1.293   .     A
C358   C360    1.456   .     S
C359   C363    1.399   .     A
C359   C365    1.386   .     A
C360   C364    1.399   .     A
C360   C366    1.386   .     A
C361   F393    1.358   .     S
C361   C369    1.416   .     A
C361   C363    1.395   .     A
C362   F394    1.358   .     S
C362   C364    1.395   .     A
C362   C370    1.416   .     A
C363   F392    1.357   .     S
C364   F391    1.357   .     S
C365   H374    1.079   .     S
C365   C367    1.393   .     A
C366   H373    1.079   .     S
C366   C368    1.393   .     A
C367   C369    1.420   .     A
C367   C371    1.419   .     A
C368   C372    1.419   .     A
C368   C370    1.420   .     A
C369   C957    1.402   .     S
C370   C958    1.402   1_554 S
C371   C984    1.412   .     S
C372   C983    1.412   1_554 S
N375   Zn385   2.015   .     S
N376   Zn386   2.015   .     S
O377   Zn385   1.988   .     S
O378   Zn386   1.988   .     S
O379   Zn386   1.984   .     S
O380   Zn385   1.984   .     S
O381   Zn385   1.965   .     S
O382   Zn386   1.965   .     S
O383   Zn386   1.906   .     S
O384   Zn385   1.906   .     S
O387   H388    0.991   .     S
O389   H390    0.991   .     S
O397   H398    0.989   .     S
O399   H400    0.989   .     S
O405   H406    0.990   .     S
O407   H408    0.990   .     S
C409   O445    1.281   .     A
C409   C420    1.409   .     S
C409   O447    1.283   .     A
C410   O446    1.281   .     A
C410   C419    1.409   .     S
C410   O448    1.283   .     A
C411   C413    1.404   .     A
C411   C440    1.424   .     A
C411   F463    1.359   .     S
C412   F464    1.359   .     S
C412   C439    1.424   .     A
C412   C414    1.404   .     A
C413   O455    1.383   .     S
C413   C1049   1.402   1_554 S
C414   O457    1.383   .     S
C414   C1050   1.402   .     S
C415   C420    1.409   .     A
C415   O465    1.383   .     S
C415   C9      1.375   1_565 S
C416   C419    1.409   .     A
C416   O467    1.383   .     S
C417   C419    1.397   .     A
C417   F469    1.361   .     S
C418   F470    1.361   .     S
C418   C420    1.397   .     A
C418   C8      1.375   1_565 S
C421   F471    1.356   .     S
C421   N444    1.365   .     A
C421   C491    1.431   .     S
C422   F472    1.356   .     S
C422   N443    1.365   .     A
C422   C560    1.431   1_455 S
C423   O473    1.379   .     S
C423   N443    1.370   .     A
C423   C557    1.431   1_455 S
C424   O475    1.379   .     S
C424   N444    1.370   .     A
C424   C490    1.431   .     S
C425   O451    1.296   .     A
C425   C427    1.456   .     S
C425   O449    1.293   .     A
C426   O452    1.296   .     A
C426   O450    1.293   .     A
C426   C428    1.456   .     S
C427   C431    1.399   .     A
C427   C433    1.386   .     A
C428   C432    1.399   .     A
C428   C434    1.386   .     A
C429   F461    1.358   .     S
C429   C437    1.416   .     A
C429   C431    1.395   .     A
C430   F462    1.358   .     S
C430   C432    1.395   .     A
C430   C438    1.416   .     A
C431   F460    1.357   .     S
C432   F459    1.357   .     S
C433   H442    1.079   .     S
C433   C435    1.393   .     A
C434   H441    1.079   .     S
C434   C436    1.393   .     A
C435   C437    1.420   .     A
C435   C439    1.419   .     A
C436   C440    1.419   .     A
C436   C438    1.420   .     A
C437   C1025   1.402   .     S
C438   C1026   1.402   1_554 S
C439   C1052   1.412   .     S
C440   C1051   1.412   1_554 S
N443   Zn453   2.015   .     S
N444   Zn454   2.015   .     S
O445   Zn453   1.988   .     S
O446   Zn454   1.988   .     S
O447   Zn454   1.984   .     S
O448   Zn453   1.984   .     S
O449   Zn453   1.965   .     S
O450   Zn454   1.965   .     S
O451   Zn454   1.906   .     S
O452   Zn453   1.906   .     S
O455   H456    0.991   .     S
O457   H458    0.991   .     S
O465   H466    0.989   .     S
O467   H468    0.989   .     S
O473   H474    0.990   .     S
O475   H476    0.990   .     S
C477   O513    1.281   .     A
C477   C488    1.409   .     S
C477   O515    1.283   .     A
C478   O514    1.281   .     A
C478   C487    1.409   .     S
C478   O516    1.283   .     A
C479   C481    1.404   .     A
C479   C508    1.424   .     A
C479   F531    1.359   .     S
C480   F532    1.359   .     S
C480   C507    1.424   .     A
C480   C482    1.404   .     A
C481   O523    1.383   .     S
C481   C1117   1.402   1_554 S
C482   O525    1.383   .     S
C482   C1118   1.402   .     S
C483   C488    1.409   .     A
C483   O533    1.383   .     S
C483   C77     1.375   1_565 S
C484   C487    1.409   .     A
C484   O535    1.383   .     S
C485   C487    1.397   .     A
C485   F537    1.361   .     S
C486   F538    1.361   .     S
C486   C488    1.397   .     A
C486   C76     1.375   1_565 S
C489   F539    1.356   .     S
C489   N512    1.365   .     A
C489   C559    1.431   .     S
C490   F540    1.356   .     S
C490   N511    1.365   .     A
C491   O541    1.379   .     S
C491   N511    1.370   .     A
C492   O543    1.379   .     S
C492   N512    1.370   .     A
C492   C558    1.431   .     S
C493   O519    1.296   .     A
C493   C495    1.456   .     S
C493   O517    1.293   .     A
C494   O520    1.296   .     A
C494   O518    1.293   .     A
C494   C496    1.456   .     S
C495   C499    1.399   .     A
C495   C501    1.386   .     A
C496   C500    1.399   .     A
C496   C502    1.386   .     A
C497   F529    1.358   .     S
C497   C505    1.416   .     A
C497   C499    1.395   .     A
C498   F530    1.358   .     S
C498   C500    1.395   .     A
C498   C506    1.416   .     A
C499   F528    1.357   .     S
C500   F527    1.357   .     S
C501   H510    1.079   .     S
C501   C503    1.393   .     A
C502   H509    1.079   .     S
C502   C504    1.393   .     A
C503   C505    1.420   .     A
C503   C507    1.419   .     A
C504   C508    1.419   .     A
C504   C506    1.420   .     A
C505   C1093   1.402   .     S
C506   C1094   1.402   1_554 S
C507   C1120   1.412   .     S
C508   C1119   1.412   1_554 S
N511   Zn521   2.015   .     S
N512   Zn522   2.015   .     S
O513   Zn521   1.988   .     S
O514   Zn522   1.988   .     S
O515   Zn522   1.984   .     S
O516   Zn521   1.984   .     S
O517   Zn521   1.965   .     S
O518   Zn522   1.965   .     S
O519   Zn522   1.906   .     S
O520   Zn521   1.906   .     S
O523   H524    0.991   .     S
O525   H526    0.991   .     S
O533   H534    0.989   .     S
O535   H536    0.989   .     S
O541   H542    0.990   .     S
O543   H544    0.990   .     S
C545   O581    1.281   .     A
C545   C556    1.409   .     S
C545   O583    1.283   .     A
C546   O582    1.281   .     A
C546   C555    1.409   .     S
C546   O584    1.283   .     A
C547   C549    1.404   .     A
C547   C576    1.424   .     A
C547   F599    1.359   .     S
C548   F600    1.359   .     S
C548   C575    1.424   .     A
C548   C550    1.404   .     A
C549   O591    1.383   .     S
C549   C1185   1.402   1_554 S
C550   O593    1.383   .     S
C550   C1186   1.402   .     S
C551   C556    1.409   .     A
C551   O601    1.383   .     S
C551   C145    1.375   1_565 S
C552   C555    1.409   .     A
C552   O603    1.383   .     S
C553   C555    1.397   .     A
C553   F605    1.361   .     S
C554   F606    1.361   .     S
C554   C556    1.397   .     A
C554   C144    1.375   1_565 S
C557   F607    1.356   .     S
C557   N580    1.365   .     A
C557   C423    1.431   1_655 S
C558   F608    1.356   .     S
C558   N579    1.365   .     A
C559   O609    1.379   .     S
C559   N579    1.370   .     A
C560   O611    1.379   .     S
C560   N580    1.370   .     A
C560   C422    1.431   1_655 S
C561   O587    1.296   .     A
C561   C563    1.456   .     S
C561   O585    1.293   .     A
C562   O588    1.296   .     A
C562   O586    1.293   .     A
C562   C564    1.456   .     S
C563   C567    1.399   .     A
C563   C569    1.386   .     A
C564   C568    1.399   .     A
C564   C570    1.386   .     A
C565   F597    1.358   .     S
C565   C573    1.416   .     A
C565   C567    1.395   .     A
C566   F598    1.358   .     S
C566   C568    1.395   .     A
C566   C574    1.416   .     A
C567   F596    1.357   .     S
C568   F595    1.357   .     S
C569   H578    1.079   .     S
C569   C571    1.393   .     A
C570   H577    1.079   .     S
C570   C572    1.393   .     A
C571   C573    1.420   .     A
C571   C575    1.419   .     A
C572   C576    1.419   .     A
C572   C574    1.420   .     A
C573   C1161   1.402   .     S
C574   C1162   1.402   1_554 S
C575   C1188   1.412   .     S
C576   C1187   1.412   1_554 S
N579   Zn589   2.015   .     S
N580   Zn590   2.015   .     S
O581   Zn589   1.988   .     S
O582   Zn590   1.988   .     S
O583   Zn590   1.984   .     S
O584   Zn589   1.984   .     S
O585   Zn589   1.965   .     S
O586   Zn590   1.965   .     S
O587   Zn590   1.906   .     S
O588   Zn589   1.906   .     S
O591   H592    0.991   .     S
O593   H594    0.991   .     S
O601   H602    0.989   .     S
O603   H604    0.989   .     S
O609   H610    0.990   .     S
O611   H612    0.990   .     S
C613   O649    1.281   .     A
C613   C624    1.409   .     S
C613   O651    1.283   .     A
C614   O650    1.281   .     A
C614   C623    1.409   .     S
C614   O652    1.283   .     A
C615   C617    1.404   .     A
C615   C644    1.424   .     A
C615   F667    1.359   .     S
C616   F668    1.359   .     S
C616   C643    1.424   .     A
C616   C618    1.404   .     A
C617   O659    1.383   .     S
C618   O661    1.383   .     S
C618   C30     1.402   1_556 S
C619   C624    1.409   .     A
C619   O669    1.383   .     S
C619   C825    1.375   .     S
C620   C623    1.409   .     A
C620   O671    1.383   .     S
C620   C1030   1.375   1_545 S
C621   C623    1.397   .     A
C621   F673    1.361   .     S
C621   C1027   1.375   1_545 S
C622   F674    1.361   .     S
C622   C624    1.397   .     A
C622   C824    1.375   .     S
C625   F675    1.356   .     S
C625   N648    1.365   .     A
C625   C695    1.431   .     S
C626   F676    1.356   .     S
C626   N647    1.365   .     A
C626   C764    1.431   1_455 S
C627   O677    1.379   .     S
C627   N647    1.370   .     A
C627   C761    1.431   1_455 S
C628   O679    1.379   .     S
C628   N648    1.370   .     A
C628   C694    1.431   .     S
C629   O655    1.296   .     A
C629   C631    1.456   .     S
C629   O653    1.293   .     A
C630   O656    1.296   .     A
C630   O654    1.293   .     A
C630   C632    1.456   .     S
C631   C635    1.399   .     A
C631   C637    1.386   .     A
C632   C636    1.399   .     A
C632   C638    1.386   .     A
C633   F665    1.358   .     S
C633   C641    1.416   .     A
C633   C635    1.395   .     A
C634   F666    1.358   .     S
C634   C636    1.395   .     A
C634   C642    1.416   .     A
C635   F664    1.357   .     S
C636   F663    1.357   .     S
C637   H646    1.079   .     S
C637   C639    1.393   .     A
C638   H645    1.079   .     S
C638   C640    1.393   .     A
C639   C641    1.420   .     A
C639   C643    1.419   .     A
C640   C644    1.419   .     A
C640   C642    1.420   .     A
C641   C5      1.402   1_556 S
C643   C32     1.412   1_556 S
N647   Zn657   2.015   .     S
N648   Zn658   2.015   .     S
O649   Zn657   1.988   .     S
O650   Zn658   1.988   .     S
O651   Zn658   1.984   .     S
O652   Zn657   1.984   .     S
O653   Zn657   1.965   .     S
O654   Zn658   1.965   .     S
O655   Zn658   1.906   .     S
O656   Zn657   1.906   .     S
O659   H660    0.991   .     S
O661   H662    0.991   .     S
O669   H670    0.989   .     S
O671   H672    0.989   .     S
O677   H678    0.990   .     S
O679   H680    0.990   .     S
C681   O717    1.281   .     A
C681   C692    1.409   .     S
C681   O719    1.283   .     A
C682   O718    1.281   .     A
C682   C691    1.409   .     S
C682   O720    1.283   .     A
C683   C685    1.404   .     A
C683   C712    1.424   .     A
C683   F735    1.359   .     S
C684   F736    1.359   .     S
C684   C711    1.424   .     A
C684   C686    1.404   .     A
C685   O727    1.383   .     S
C686   O729    1.383   .     S
C686   C98     1.402   1_556 S
C687   C692    1.409   .     A
C687   O737    1.383   .     S
C687   C893    1.375   .     S
C688   C691    1.409   .     A
C688   O739    1.383   .     S
C688   C1098   1.375   1_545 S
C689   C691    1.397   .     A
C689   F741    1.361   .     S
C689   C1095   1.375   1_545 S
C690   F742    1.361   .     S
C690   C692    1.397   .     A
C690   C892    1.375   .     S
C693   F743    1.356   .     S
C693   N716    1.365   .     A
C693   C763    1.431   .     S
C694   F744    1.356   .     S
C694   N715    1.365   .     A
C695   O745    1.379   .     S
C695   N715    1.370   .     A
C696   O747    1.379   .     S
C696   N716    1.370   .     A
C696   C762    1.431   .     S
C697   O723    1.296   .     A
C697   C699    1.456   .     S
C697   O721    1.293   .     A
C698   O724    1.296   .     A
C698   O722    1.293   .     A
C698   C700    1.456   .     S
C699   C703    1.399   .     A
C699   C705    1.386   .     A
C700   C704    1.399   .     A
C700   C706    1.386   .     A
C701   F733    1.358   .     S
C701   C709    1.416   .     A
C701   C703    1.395   .     A
C702   F734    1.358   .     S
C702   C704    1.395   .     A
C702   C710    1.416   .     A
C703   F732    1.357   .     S
C704   F731    1.357   .     S
C705   H714    1.079   .     S
C705   C707    1.393   .     A
C706   H713    1.079   .     S
C706   C708    1.393   .     A
C707   C709    1.420   .     A
C707   C711    1.419   .     A
C708   C712    1.419   .     A
C708   C710    1.420   .     A
C709   C73     1.402   1_556 S
C711   C100    1.412   1_556 S
N715   Zn725   2.015   .     S
N716   Zn726   2.015   .     S
O717   Zn725   1.988   .     S
O718   Zn726   1.988   .     S
O719   Zn726   1.984   .     S
O720   Zn725   1.984   .     S
O721   Zn725   1.965   .     S
O722   Zn726   1.965   .     S
O723   Zn726   1.906   .     S
O724   Zn725   1.906   .     S
O727   H728    0.991   .     S
O729   H730    0.991   .     S
O737   H738    0.989   .     S
O739   H740    0.989   .     S
O745   H746    0.990   .     S
O747   H748    0.990   .     S
C749   O785    1.281   .     A
C749   C760    1.409   .     S
C749   O787    1.283   .     A
C750   O786    1.281   .     A
C750   C759    1.409   .     S
C750   O788    1.283   .     A
C751   C753    1.404   .     A
C751   C780    1.424   .     A
C751   F803    1.359   .     S
C752   F804    1.359   .     S
C752   C779    1.424   .     A
C752   C754    1.404   .     A
C753   O795    1.383   .     S
C754   O797    1.383   .     S
C754   C166    1.402   1_556 S
C755   C760    1.409   .     A
C755   O805    1.383   .     S
C755   C961    1.375   .     S
C756   C759    1.409   .     A
C756   O807    1.383   .     S
C756   C1166   1.375   1_545 S
C757   C759    1.397   .     A
C757   F809    1.361   .     S
C757   C1163   1.375   1_545 S
C758   F810    1.361   .     S
C758   C760    1.397   .     A
C758   C960    1.375   .     S
C761   F811    1.356   .     S
C761   N784    1.365   .     A
C761   C627    1.431   1_655 S
C762   F812    1.356   .     S
C762   N783    1.365   .     A
C763   O813    1.379   .     S
C763   N783    1.370   .     A
C764   O815    1.379   .     S
C764   N784    1.370   .     A
C764   C626    1.431   1_655 S
C765   O791    1.296   .     A
C765   C767    1.456   .     S
C765   O789    1.293   .     A
C766   O792    1.296   .     A
C766   O790    1.293   .     A
C766   C768    1.456   .     S
C767   C771    1.399   .     A
C767   C773    1.386   .     A
C768   C772    1.399   .     A
C768   C774    1.386   .     A
C769   F801    1.358   .     S
C769   C777    1.416   .     A
C769   C771    1.395   .     A
C770   F802    1.358   .     S
C770   C772    1.395   .     A
C770   C778    1.416   .     A
C771   F800    1.357   .     S
C772   F799    1.357   .     S
C773   H782    1.079   .     S
C773   C775    1.393   .     A
C774   H781    1.079   .     S
C774   C776    1.393   .     A
C775   C777    1.420   .     A
C775   C779    1.419   .     A
C776   C780    1.419   .     A
C776   C778    1.420   .     A
C777   C141    1.402   1_556 S
C779   C168    1.412   1_556 S
N783   Zn793   2.015   .     S
N784   Zn794   2.015   .     S
O785   Zn793   1.988   .     S
O786   Zn794   1.988   .     S
O787   Zn794   1.984   .     S
O788   Zn793   1.984   .     S
O789   Zn793   1.965   .     S
O790   Zn794   1.965   .     S
O791   Zn794   1.906   .     S
O792   Zn793   1.906   .     S
O795   H796    0.991   .     S
O797   H798    0.991   .     S
O805   H806    0.989   .     S
O807   H808    0.989   .     S
O813   H814    0.990   .     S
O815   H816    0.990   .     S
C817   O853    1.281   .     A
C817   C828    1.409   .     S
C817   O855    1.283   .     A
C818   O854    1.281   .     A
C818   C827    1.409   .     S
C818   O856    1.283   .     A
C819   C821    1.404   .     A
C819   C848    1.424   .     A
C819   F871    1.359   .     S
C820   F872    1.359   .     S
C820   C847    1.424   .     A
C820   C822    1.404   .     A
C821   O863    1.383   .     S
C822   O865    1.383   .     S
C822   C234    1.402   1_556 S
C823   C828    1.409   .     A
C823   O873    1.383   .     S
C823   C1029   1.375   .     S
C824   C827    1.409   .     A
C824   O875    1.383   .     S
C825   C827    1.397   .     A
C825   F877    1.361   .     S
C826   F878    1.361   .     S
C826   C828    1.397   .     A
C826   C1028   1.375   .     S
C829   F879    1.356   .     S
C829   N852    1.365   .     A
C829   C899    1.431   .     S
C830   F880    1.356   .     S
C830   N851    1.365   .     A
C830   C968    1.431   1_455 S
C831   O881    1.379   .     S
C831   N851    1.370   .     A
C831   C965    1.431   1_455 S
C832   O883    1.379   .     S
C832   N852    1.370   .     A
C832   C898    1.431   .     S
C833   O859    1.296   .     A
C833   C835    1.456   .     S
C833   O857    1.293   .     A
C834   O860    1.296   .     A
C834   O858    1.293   .     A
C834   C836    1.456   .     S
C835   C839    1.399   .     A
C835   C841    1.386   .     A
C836   C840    1.399   .     A
C836   C842    1.386   .     A
C837   F869    1.358   .     S
C837   C845    1.416   .     A
C837   C839    1.395   .     A
C838   F870    1.358   .     S
C838   C840    1.395   .     A
C838   C846    1.416   .     A
C839   F868    1.357   .     S
C840   F867    1.357   .     S
C841   H850    1.079   .     S
C841   C843    1.393   .     A
C842   H849    1.079   .     S
C842   C844    1.393   .     A
C843   C845    1.420   .     A
C843   C847    1.419   .     A
C844   C848    1.419   .     A
C844   C846    1.420   .     A
C845   C209    1.402   1_556 S
C847   C236    1.412   1_556 S
N851   Zn861   2.015   .     S
N852   Zn862   2.015   .     S
O853   Zn861   1.988   .     S
O854   Zn862   1.988   .     S
O855   Zn862   1.984   .     S
O856   Zn861   1.984   .     S
O857   Zn861   1.965   .     S
O858   Zn862   1.965   .     S
O859   Zn862   1.906   .     S
O860   Zn861   1.906   .     S
O863   H864    0.991   .     S
O865   H866    0.991   .     S
O873   H874    0.989   .     S
O875   H876    0.989   .     S
O881   H882    0.990   .     S
O883   H884    0.990   .     S
C885   O921    1.281   .     A
C885   C896    1.409   .     S
C885   O923    1.283   .     A
C886   O922    1.281   .     A
C886   C895    1.409   .     S
C886   O924    1.283   .     A
C887   C889    1.404   .     A
C887   C916    1.424   .     A
C887   F939    1.359   .     S
C888   F940    1.359   .     S
C888   C915    1.424   .     A
C888   C890    1.404   .     A
C889   O931    1.383   .     S
C890   O933    1.383   .     S
C890   C302    1.402   1_556 S
C891   C896    1.409   .     A
C891   O941    1.383   .     S
C891   C1097   1.375   .     S
C892   C895    1.409   .     A
C892   O943    1.383   .     S
C893   C895    1.397   .     A
C893   F945    1.361   .     S
C894   F946    1.361   .     S
C894   C896    1.397   .     A
C894   C1096   1.375   .     S
C897   F947    1.356   .     S
C897   N920    1.365   .     A
C897   C967    1.431   .     S
C898   F948    1.356   .     S
C898   N919    1.365   .     A
C899   O949    1.379   .     S
C899   N919    1.370   .     A
C900   O951    1.379   .     S
C900   N920    1.370   .     A
C900   C966    1.431   .     S
C901   O927    1.296   .     A
C901   C903    1.456   .     S
C901   O925    1.293   .     A
C902   O928    1.296   .     A
C902   O926    1.293   .     A
C902   C904    1.456   .     S
C903   C907    1.399   .     A
C903   C909    1.386   .     A
C904   C908    1.399   .     A
C904   C910    1.386   .     A
C905   F937    1.358   .     S
C905   C913    1.416   .     A
C905   C907    1.395   .     A
C906   F938    1.358   .     S
C906   C908    1.395   .     A
C906   C914    1.416   .     A
C907   F936    1.357   .     S
C908   F935    1.357   .     S
C909   H918    1.079   .     S
C909   C911    1.393   .     A
C910   H917    1.079   .     S
C910   C912    1.393   .     A
C911   C913    1.420   .     A
C911   C915    1.419   .     A
C912   C916    1.419   .     A
C912   C914    1.420   .     A
C913   C277    1.402   1_556 S
C915   C304    1.412   1_556 S
N919   Zn929   2.015   .     S
N920   Zn930   2.015   .     S
O921   Zn929   1.988   .     S
O922   Zn930   1.988   .     S
O923   Zn930   1.984   .     S
O924   Zn929   1.984   .     S
O925   Zn929   1.965   .     S
O926   Zn930   1.965   .     S
O927   Zn930   1.906   .     S
O928   Zn929   1.906   .     S
O931   H932    0.991   .     S
O933   H934    0.991   .     S
O941   H942    0.989   .     S
O943   H944    0.989   .     S
O949   H950    0.990   .     S
O951   H952    0.990   .     S
C953   O989    1.281   .     A
C953   C964    1.409   .     S
C953   O991    1.283   .     A
C954   O990    1.281   .     A
C954   C963    1.409   .     S
C954   O992    1.283   .     A
C955   C957    1.404   .     A
C955   C984    1.424   .     A
C955   F1007   1.359   .     S
C956   F1008   1.359   .     S
C956   C983    1.424   .     A
C956   C958    1.404   .     A
C957   O999    1.383   .     S
C958   O1001   1.383   .     S
C958   C370    1.402   1_556 S
C959   C964    1.409   .     A
C959   O1009   1.383   .     S
C959   C1165   1.375   .     S
C960   C963    1.409   .     A
C960   O1011   1.383   .     S
C961   C963    1.397   .     A
C961   F1013   1.361   .     S
C962   F1014   1.361   .     S
C962   C964    1.397   .     A
C962   C1164   1.375   .     S
C965   F1015   1.356   .     S
C965   N988    1.365   .     A
C965   C831    1.431   1_655 S
C966   F1016   1.356   .     S
C966   N987    1.365   .     A
C967   O1017   1.379   .     S
C967   N987    1.370   .     A
C968   O1019   1.379   .     S
C968   N988    1.370   .     A
C968   C830    1.431   1_655 S
C969   O995    1.296   .     A
C969   C971    1.456   .     S
C969   O993    1.293   .     A
C970   O996    1.296   .     A
C970   O994    1.293   .     A
C970   C972    1.456   .     S
C971   C975    1.399   .     A
C971   C977    1.386   .     A
C972   C976    1.399   .     A
C972   C978    1.386   .     A
C973   F1005   1.358   .     S
C973   C981    1.416   .     A
C973   C975    1.395   .     A
C974   F1006   1.358   .     S
C974   C976    1.395   .     A
C974   C982    1.416   .     A
C975   F1004   1.357   .     S
C976   F1003   1.357   .     S
C977   H986    1.079   .     S
C977   C979    1.393   .     A
C978   H985    1.079   .     S
C978   C980    1.393   .     A
C979   C981    1.420   .     A
C979   C983    1.419   .     A
C980   C984    1.419   .     A
C980   C982    1.420   .     A
C981   C345    1.402   1_556 S
C983   C372    1.412   1_556 S
N987   Zn997   2.015   .     S
N988   Zn998   2.015   .     S
O989   Zn997   1.988   .     S
O990   Zn998   1.988   .     S
O991   Zn998   1.984   .     S
O992   Zn997   1.984   .     S
O993   Zn997   1.965   .     S
O994   Zn998   1.965   .     S
O995   Zn998   1.906   .     S
O996   Zn997   1.906   .     S
O999   H1000   0.991   .     S
O1001  H1002   0.991   .     S
O1009  H1010   0.989   .     S
O1011  H1012   0.989   .     S
O1017  H1018   0.990   .     S
O1019  H1020   0.990   .     S
C1021  O1057   1.281   .     A
C1021  C1032   1.409   .     S
C1021  O1059   1.283   .     A
C1022  O1058   1.281   .     A
C1022  C1031   1.409   .     S
C1022  O1060   1.283   .     A
C1023  C1025   1.404   .     A
C1023  C1052   1.424   .     A
C1023  F1075   1.359   .     S
C1024  F1076   1.359   .     S
C1024  C1051   1.424   .     A
C1024  C1026   1.404   .     A
C1025  O1067   1.383   .     S
C1026  O1069   1.383   .     S
C1026  C438    1.402   1_556 S
C1027  C1032   1.409   .     A
C1027  O1077   1.383   .     S
C1027  C621    1.375   1_565 S
C1028  C1031   1.409   .     A
C1028  O1079   1.383   .     S
C1029  C1031   1.397   .     A
C1029  F1081   1.361   .     S
C1030  F1082   1.361   .     S
C1030  C1032   1.397   .     A
C1030  C620    1.375   1_565 S
C1033  F1083   1.356   .     S
C1033  N1056   1.365   .     A
C1033  C1103   1.431   .     S
C1034  F1084   1.356   .     S
C1034  N1055   1.365   .     A
C1034  C1172   1.431   1_455 S
C1035  O1085   1.379   .     S
C1035  N1055   1.370   .     A
C1035  C1169   1.431   1_455 S
C1036  O1087   1.379   .     S
C1036  N1056   1.370   .     A
C1036  C1102   1.431   .     S
C1037  O1063   1.296   .     A
C1037  C1039   1.456   .     S
C1037  O1061   1.293   .     A
C1038  O1064   1.296   .     A
C1038  O1062   1.293   .     A
C1038  C1040   1.456   .     S
C1039  C1043   1.399   .     A
C1039  C1045   1.386   .     A
C1040  C1044   1.399   .     A
C1040  C1046   1.386   .     A
C1041  F1073   1.358   .     S
C1041  C1049   1.416   .     A
C1041  C1043   1.395   .     A
C1042  F1074   1.358   .     S
C1042  C1044   1.395   .     A
C1042  C1050   1.416   .     A
C1043  F1072   1.357   .     S
C1044  F1071   1.357   .     S
C1045  H1054   1.079   .     S
C1045  C1047   1.393   .     A
C1046  H1053   1.079   .     S
C1046  C1048   1.393   .     A
C1047  C1049   1.420   .     A
C1047  C1051   1.419   .     A
C1048  C1052   1.419   .     A
C1048  C1050   1.420   .     A
C1049  C413    1.402   1_556 S
C1051  C440    1.412   1_556 S
N1055  Zn1065  2.015   .     S
N1056  Zn1066  2.015   .     S
O1057  Zn1065  1.988   .     S
O1058  Zn1066  1.988   .     S
O1059  Zn1066  1.984   .     S
O1060  Zn1065  1.984   .     S
O1061  Zn1065  1.965   .     S
O1062  Zn1066  1.965   .     S
O1063  Zn1066  1.906   .     S
O1064  Zn1065  1.906   .     S
O1067  H1068   0.991   .     S
O1069  H1070   0.991   .     S
O1077  H1078   0.989   .     S
O1079  H1080   0.989   .     S
O1085  H1086   0.990   .     S
O1087  H1088   0.990   .     S
C1089  O1125   1.281   .     A
C1089  C1100   1.409   .     S
C1089  O1127   1.283   .     A
C1090  O1126   1.281   .     A
C1090  C1099   1.409   .     S
C1090  O1128   1.283   .     A
C1091  C1093   1.404   .     A
C1091  C1120   1.424   .     A
C1091  F1143   1.359   .     S
C1092  F1144   1.359   .     S
C1092  C1119   1.424   .     A
C1092  C1094   1.404   .     A
C1093  O1135   1.383   .     S
C1094  O1137   1.383   .     S
C1094  C506    1.402   1_556 S
C1095  C1100   1.409   .     A
C1095  O1145   1.383   .     S
C1095  C689    1.375   1_565 S
C1096  C1099   1.409   .     A
C1096  O1147   1.383   .     S
C1097  C1099   1.397   .     A
C1097  F1149   1.361   .     S
C1098  F1150   1.361   .     S
C1098  C1100   1.397   .     A
C1098  C688    1.375   1_565 S
C1101  F1151   1.356   .     S
C1101  N1124   1.365   .     A
C1101  C1171   1.431   .     S
C1102  F1152   1.356   .     S
C1102  N1123   1.365   .     A
C1103  O1153   1.379   .     S
C1103  N1123   1.370   .     A
C1104  O1155   1.379   .     S
C1104  N1124   1.370   .     A
C1104  C1170   1.431   .     S
C1105  O1131   1.296   .     A
C1105  C1107   1.456   .     S
C1105  O1129   1.293   .     A
C1106  O1132   1.296   .     A
C1106  O1130   1.293   .     A
C1106  C1108   1.456   .     S
C1107  C1111   1.399   .     A
C1107  C1113   1.386   .     A
C1108  C1112   1.399   .     A
C1108  C1114   1.386   .     A
C1109  F1141   1.358   .     S
C1109  C1117   1.416   .     A
C1109  C1111   1.395   .     A
C1110  F1142   1.358   .     S
C1110  C1112   1.395   .     A
C1110  C1118   1.416   .     A
C1111  F1140   1.357   .     S
C1112  F1139   1.357   .     S
C1113  H1122   1.079   .     S
C1113  C1115   1.393   .     A
C1114  H1121   1.079   .     S
C1114  C1116   1.393   .     A
C1115  C1117   1.420   .     A
C1115  C1119   1.419   .     A
C1116  C1120   1.419   .     A
C1116  C1118   1.420   .     A
C1117  C481    1.402   1_556 S
C1119  C508    1.412   1_556 S
N1123  Zn1133  2.015   .     S
N1124  Zn1134  2.015   .     S
O1125  Zn1133  1.988   .     S
O1126  Zn1134  1.988   .     S
O1127  Zn1134  1.984   .     S
O1128  Zn1133  1.984   .     S
O1129  Zn1133  1.965   .     S
O1130  Zn1134  1.965   .     S
O1131  Zn1134  1.906   .     S
O1132  Zn1133  1.906   .     S
O1135  H1136   0.991   .     S
O1137  H1138   0.991   .     S
O1145  H1146   0.989   .     S
O1147  H1148   0.989   .     S
O1153  H1154   0.990   .     S
O1155  H1156   0.990   .     S
C1157  O1193   1.281   .     A
C1157  C1168   1.409   .     S
C1157  O1195   1.283   .     A
C1158  O1194   1.281   .     A
C1158  C1167   1.409   .     S
C1158  O1196   1.283   .     A
C1159  C1161   1.404   .     A
C1159  C1188   1.424   .     A
C1159  F1211   1.359   .     S
C1160  F1212   1.359   .     S
C1160  C1187   1.424   .     A
C1160  C1162   1.404   .     A
C1161  O1203   1.383   .     S
C1162  O1205   1.383   .     S
C1162  C574    1.402   1_556 S
C1163  C1168   1.409   .     A
C1163  O1213   1.383   .     S
C1163  C757    1.375   1_565 S
C1164  C1167   1.409   .     A
C1164  O1215   1.383   .     S
C1165  C1167   1.397   .     A
C1165  F1217   1.361   .     S
C1166  F1218   1.361   .     S
C1166  C1168   1.397   .     A
C1166  C756    1.375   1_565 S
C1169  F1219   1.356   .     S
C1169  N1192   1.365   .     A
C1169  C1035   1.431   1_655 S
C1170  F1220   1.356   .     S
C1170  N1191   1.365   .     A
C1171  O1221   1.379   .     S
C1171  N1191   1.370   .     A
C1172  O1223   1.379   .     S
C1172  N1192   1.370   .     A
C1172  C1034   1.431   1_655 S
C1173  O1199   1.296   .     A
C1173  C1175   1.456   .     S
C1173  O1197   1.293   .     A
C1174  O1200   1.296   .     A
C1174  O1198   1.293   .     A
C1174  C1176   1.456   .     S
C1175  C1179   1.399   .     A
C1175  C1181   1.386   .     A
C1176  C1180   1.399   .     A
C1176  C1182   1.386   .     A
C1177  F1209   1.358   .     S
C1177  C1185   1.416   .     A
C1177  C1179   1.395   .     A
C1178  F1210   1.358   .     S
C1178  C1180   1.395   .     A
C1178  C1186   1.416   .     A
C1179  F1208   1.357   .     S
C1180  F1207   1.357   .     S
C1181  H1190   1.079   .     S
C1181  C1183   1.393   .     A
C1182  H1189   1.079   .     S
C1182  C1184   1.393   .     A
C1183  C1185   1.420   .     A
C1183  C1187   1.419   .     A
C1184  C1188   1.419   .     A
C1184  C1186   1.420   .     A
C1185  C549    1.402   1_556 S
C1187  C576    1.412   1_556 S
N1191  Zn1201  2.015   .     S
N1192  Zn1202  2.015   .     S
O1193  Zn1201  1.988   .     S
O1194  Zn1202  1.988   .     S
O1195  Zn1202  1.984   .     S
O1196  Zn1201  1.984   .     S
O1197  Zn1201  1.965   .     S
O1198  Zn1202  1.965   .     S
O1199  Zn1202  1.906   .     S
O1200  Zn1201  1.906   .     S
O1203  H1204   0.991   .     S
O1205  H1206   0.991   .     S
O1213  H1214   0.989   .     S
O1215  H1216   0.989   .     S
O1221  H1222   0.990   .     S
O1223  H1224   0.990   .     S
