data_str_m3_o1_o1_pcu_sym.12
_audit_creation_date              2020-01-03
_audit_creation_method            'Materials Studio'
_symmetry_space_group_name_H-M    'P1'
_symmetry_Int_Tables_number       1
_symmetry_cell_setting            triclinic
loop_
_symmetry_equiv_pos_as_xyz
  x,y,z
_cell_length_a                    31.2154
_cell_length_b                    29.4131
_cell_length_c                    29.8681
_cell_angle_alpha                 94.5069
_cell_angle_beta                  90.6080
_cell_angle_gamma                 89.9785
loop_
_atom_site_label
_atom_site_type_symbol
_atom_site_fract_x
_atom_site_fract_y
_atom_site_fract_z
_atom_site_U_iso_or_equiv
_atom_site_adp_type
_atom_site_occupancy
C1     C     0.06298   0.19361   0.16585   0.00000  Uiso   1.00
C2     C     0.49732   0.21000   0.30607   0.00000  Uiso   1.00
C3     C     0.00199   0.20973   0.02035   0.00000  Uiso   1.00
C4     C     0.00624   0.28938   0.31278   0.00000  Uiso   1.00
C5     C     0.25348   0.03999   0.02708   0.00000  Uiso   1.00
C6     C     0.24820   0.46004   0.30623   0.00000  Uiso   1.00
C7     C     0.25237   0.46016   0.02046   0.00000  Uiso   1.00
C8     C     0.25658   0.03938   0.31268   0.00000  Uiso   1.00
C9     C     0.40359   0.12213   0.13183   0.00000  Uiso   1.00
C10    C     0.08619   0.38638   0.19322   0.00000  Uiso   1.00
C11    C     0.12588   0.33685   0.13861   0.00000  Uiso   1.00
C12    C     0.43951   0.30930   0.16776   0.00000  Uiso   1.00
C13    C     0.36879   0.16884   0.19262   0.00000  Uiso   1.00
C14    C     0.12369   0.16115   0.20515   0.00000  Uiso   1.00
C15    C     0.37078   0.33361   0.13830   0.00000  Uiso   1.00
C16    C     0.40208   0.37446   0.20558   0.00000  Uiso   1.00
C17    C     0.11392   0.14079   0.12440   0.00000  Uiso   1.00
C18    C     0.15236   0.37312   0.13122   0.00000  Uiso   1.00
C19    C     0.33643   0.13614   0.19277   0.00000  Uiso   1.00
C20    C     0.37642   0.08611   0.13830   0.00000  Uiso   1.00
C21    C     0.11877   0.41889   0.19329   0.00000  Uiso   1.00
C22    C     0.37376   0.41034   0.20160   0.00000  Uiso   1.00
C23    C     0.43904   0.19105   0.16540   0.00000  Uiso   1.00
C24    C     0.13302   0.09873   0.12933   0.00000  Uiso   1.00
C25    C     0.15102   0.12405   0.20765   0.00000  Uiso   1.00
C26    C     0.33771   0.36524   0.13972   0.00000  Uiso   1.00
C27    C     0.09234   0.34399   0.16906   0.00000  Uiso   1.00
C28    C     0.40303   0.16065   0.16274   0.00000  Uiso   1.00
C29    C     0.40385   0.33970   0.17043   0.00000  Uiso   1.00
C30    C     0.10195   0.16673   0.16429   0.00000  Uiso   1.00
C31    C     0.34267   0.09361   0.16872   0.00000  Uiso   1.00
C32    C     0.15250   0.41123   0.16264   0.00000  Uiso   1.00
C33    C     0.15584   0.09331   0.16928   0.00000  Uiso   1.00
C34    C     0.05958   0.31025   0.16779   0.00000  Uiso   1.00
C35    C     0.34273   0.40623   0.16675   0.00000  Uiso   1.00
C36    C     0.00395   0.33412   0.05404   0.00000  Uiso   1.00
C37    C     0.49024   0.16652   0.27865   0.00000  Uiso   1.00
C38    C     0.01498   0.16615   0.03851   0.00000  Uiso   1.00
C39    C     0.02706   0.32850   0.29466   0.00000  Uiso   1.00
C40    C     0.26074   0.08342   0.05440   0.00000  Uiso   1.00
C41    C     0.24479   0.41598   0.27911   0.00000  Uiso   1.00
C42    C     0.26915   0.41897   0.03877   0.00000  Uiso   1.00
C43    C     0.27626   0.07868   0.29389   0.00000  Uiso   1.00
C44    C     0.40651   0.13981   0.05476   0.00000  Uiso   1.00
C45    C     0.31003   0.44017   0.16616   0.00000  Uiso   1.00
C46    C     0.01455   0.41303   0.18068   0.00000  Uiso   1.00
C47    C     0.16572   0.26590   0.12849   0.00000  Uiso   1.00
C48    C     0.37101   0.21432   0.26502   0.00000  Uiso   1.00
C49    C     0.13963   0.23583   0.24194   0.00000  Uiso   1.00
C50    C     0.37633   0.29611   0.06241   0.00000  Uiso   1.00
C51    C     0.40597   0.34830   0.27979   0.00000  Uiso   1.00
C52    C     0.15022   0.15946   0.05582   0.00000  Uiso   1.00
C53    C     0.15335   0.39277   0.05478   0.00000  Uiso   1.00
C54    C     0.26413   0.16242   0.18172   0.00000  Uiso   1.00
C55    C     0.41565   0.01524   0.11695   0.00000  Uiso   1.00
C56    C     0.18894   0.05909   0.16759   0.00000  Uiso   1.00
C57    C     0.12240   0.46157   0.26696   0.00000  Uiso   1.00
C58    C     0.39387   0.48868   0.22491   0.00000  Uiso   1.00
C59    C     0.12906   0.04624   0.06004   0.00000  Uiso   1.00
C60    C     0.14909   0.08794   0.27749   0.00000  Uiso   1.00
C61    C     0.26757   0.33695   0.15480   0.00000  Uiso   1.00
C62    C     0.18888   0.44122   0.16538   0.00000  Uiso   1.00
C63    C     0.30972   0.06009   0.16771   0.00000  Uiso   1.00
C64    C     0.00189   0.29000   0.02699   0.00000  Uiso   1.00
H65    H     0.04091   0.38641   0.07945   0.00000  Uiso   1.00
H66    H     0.42901   0.14220   0.02670   0.00000  Uiso   1.00
H67    H     0.39386   0.17449   0.06441   0.00000  Uiso   1.00
H68    H     0.37996   0.11702   0.04249   0.00000  Uiso   1.00
H69    H     0.04729   0.41999   0.24116   0.00000  Uiso   1.00
H70    H     0.02694   0.44293   0.16425   0.00000  Uiso   1.00
H71    H     0.48460   0.42330   0.19824   0.00000  Uiso   1.00
H72    H     0.00679   0.38504   0.15480   0.00000  Uiso   1.00
H73    H     0.12824   0.29446   0.07923   0.00000  Uiso   1.00
H74    H     0.19108   0.26247   0.10264   0.00000  Uiso   1.00
H75    H     0.15327   0.23166   0.13379   0.00000  Uiso   1.00
H76    H     0.44860   0.11674   0.25759   0.00000  Uiso   1.00
H77    H     0.18015   0.28015   0.16079   0.00000  Uiso   1.00
H78    H     0.37483   0.24016   0.20187   0.00000  Uiso   1.00
H79    H     0.40336   0.22843   0.27329   0.00000  Uiso   1.00
H80    H     0.36849   0.18022   0.27826   0.00000  Uiso   1.00
H81    H     0.34688   0.23713   0.28208   0.00000  Uiso   1.00
H82    H     0.11929   0.17985   0.27453   0.00000  Uiso   1.00
H83    H     0.13354   0.25757   0.27332   0.00000  Uiso   1.00
H84    H     0.12738   0.25408   0.21337   0.00000  Uiso   1.00
H85    H     0.17471   0.23029   0.23867   0.00000  Uiso   1.00
H86    H     0.37744   0.26286   0.12221   0.00000  Uiso   1.00
H87    H     0.04711   0.10675   0.02881   0.00000  Uiso   1.00
H88    H     0.40573   0.27647   0.05304   0.00000  Uiso   1.00
H89    H     0.38116   0.33208   0.05461   0.00000  Uiso   1.00
H90    H     0.34924   0.28150   0.04167   0.00000  Uiso   1.00
H91    H     0.44034   0.40271   0.25790   0.00000  Uiso   1.00
H92    H     0.42744   0.34655   0.30942   0.00000  Uiso   1.00
H93    H     0.39764   0.31299   0.26684   0.00000  Uiso   1.00
H94    H     0.37616   0.36622   0.29089   0.00000  Uiso   1.00
H95    H     0.09631   0.18911   0.07930   0.00000  Uiso   1.00
H96    H     0.14512   0.17848   0.02548   0.00000  Uiso   1.00
H97    H     0.16090   0.12514   0.04391   0.00000  Uiso   1.00
H98    H     0.08368   0.35711   0.28098   0.00000  Uiso   1.00
H99    H     0.17589   0.17675   0.07677   0.00000  Uiso   1.00
H100   H     0.18942   0.34172   0.08031   0.00000  Uiso   1.00
H101   H     0.17461   0.39405   0.02540   0.00000  Uiso   1.00
H102   H     0.14313   0.42812   0.06547   0.00000  Uiso   1.00
H103   H     0.12484   0.37191   0.04422   0.00000  Uiso   1.00
H104   H     0.29787   0.16921   0.24147   0.00000  Uiso   1.00
H105   H     0.23382   0.17023   0.19979   0.00000  Uiso   1.00
H106   H     0.25754   0.13528   0.15465   0.00000  Uiso   1.00
H107   H     0.27513   0.19375   0.16673   0.00000  Uiso   1.00
H108   H     0.37088   0.04707   0.07705   0.00000  Uiso   1.00
H109   H     0.30250   0.13292   0.07580   0.00000  Uiso   1.00
H110   H     0.43606   0.01276   0.08663   0.00000  Uiso   1.00
H111   H     0.40411   0.48041   0.12226   0.00000  Uiso   1.00
H112   H     0.43554   0.02808   0.14637   0.00000  Uiso   1.00
H113   H     0.12564   0.48988   0.20473   0.00000  Uiso   1.00
H114   H     0.15445   0.47635   0.27550   0.00000  Uiso   1.00
H115   H     0.12113   0.42668   0.27861   0.00000  Uiso   1.00
H116   H     0.09785   0.48279   0.28528   0.00000  Uiso   1.00
H117   H     0.37785   0.43957   0.26820   0.00000  Uiso   1.00
H118   H     0.39195   0.01463   0.25390   0.00000  Uiso   1.00
H119   H     0.37752   0.00277   0.19608   0.00000  Uiso   1.00
H120   H     0.20654   0.36451   0.25445   0.00000  Uiso   1.00
H121   H     0.42810   0.48180   0.21721   0.00000  Uiso   1.00
H122   H     0.08292   0.05595   0.10901   0.00000  Uiso   1.00
H123   H     0.11992   0.01026   0.05068   0.00000  Uiso   1.00
H124   H     0.16420   0.04884   0.05675   0.00000  Uiso   1.00
H125   H     0.11256   0.06768   0.03633   0.00000  Uiso   1.00
H126   H     0.18409   0.14594   0.26607   0.00000  Uiso   1.00
H127   H     0.17038   0.07852   0.30524   0.00000  Uiso   1.00
H128   H     0.13834   0.05621   0.25823   0.00000  Uiso   1.00
H129   H     0.12057   0.10587   0.29203   0.00000  Uiso   1.00
H130   H     0.29739   0.32940   0.09363   0.00000  Uiso   1.00
H131   H     0.31421   0.36948   0.03408   0.00000  Uiso   1.00
H132   H     0.23701   0.32642   0.13824   0.00000  Uiso   1.00
H133   H     0.26060   0.36494   0.18071   0.00000  Uiso   1.00
H134   H     0.28118   0.30728   0.17096   0.00000  Uiso   1.00
H135   H     0.33231   0.10937   0.28161   0.00000  Uiso   1.00
H136   H     0.44382   0.09120   0.08344   0.00000  Uiso   1.00
N137   N     0.00000   0.25000   0.28573   0.00000  Uiso   1.00
N138   N     0.36712   0.29261   0.10949   0.00000  Uiso   1.00
N139   N     0.42716   0.37211   0.24547   0.00000  Uiso   1.00
N140   N     0.11068   0.15797   0.08070   0.00000  Uiso   1.00
N141   N     0.17609   0.37270   0.09088   0.00000  Uiso   1.00
N142   N     0.29610   0.14745   0.21277   0.00000  Uiso   1.00
N143   N     0.37911   0.04449   0.11026   0.00000  Uiso   1.00
N144   N     0.11428   0.46156   0.21908   0.00000  Uiso   1.00
N145   N     0.37259   0.44745   0.23563   0.00000  Uiso   1.00
N146   N     0.11565   0.05868   0.10554   0.00000  Uiso   1.00
N147   N     0.17228   0.11676   0.24890   0.00000  Uiso   1.00
N148   N     0.00000   0.25000   0.04760   0.00000  Uiso   1.00
N149   N     0.29676   0.35207   0.12170   0.00000  Uiso   1.00
N150   N     0.25000   0.00000   0.28573   0.00000  Uiso   1.00
N151   N     0.25000   0.00000   0.04760   0.00000  Uiso   1.00
N152   N     0.42850   0.12149   0.09233   0.00000  Uiso   1.00
N153   N     0.04570   0.39801   0.21260   0.00000  Uiso   1.00
N154   N     0.13098   0.29390   0.11362   0.00000  Uiso   1.00
N155   N     0.36347   0.21227   0.21694   0.00000  Uiso   1.00
N156   N     0.11769   0.19274   0.24352   0.00000  Uiso   1.00
O157   O     0.04581   0.20419   0.20487   0.00000  Uiso   1.00
O158   O     0.20420   0.04581   0.12846   0.00000  Uiso   1.00
O159   O     0.20420   0.04581   0.20487   0.00000  Uiso   1.00
O160   O     0.29581   0.45419   0.12846   0.00000  Uiso   1.00
O161   O     0.20420   0.45419   0.12846   0.00000  Uiso   1.00
O162   O     0.29581   0.04581   0.20487   0.00000  Uiso   1.00
O163   O     0.29581   0.04581   0.12846   0.00000  Uiso   1.00
O164   O     0.20420   0.45419   0.20487   0.00000  Uiso   1.00
O165   O     0.47090   0.35348   0.06603   0.00000  Uiso   1.00
O166   O     0.04355   0.35545   0.06225   0.00000  Uiso   1.00
O167   O     0.02018   0.14678   0.25965   0.00000  Uiso   1.00
O168   O     0.45420   0.29581   0.12846   0.00000  Uiso   1.00
O169   O     0.44958   0.14666   0.27691   0.00000  Uiso   1.00
O170   O     0.00216   0.15587   0.07448   0.00000  Uiso   1.00
O171   O     0.04233   0.13617   0.01396   0.00000  Uiso   1.00
O172   O     0.00718   0.36361   0.29048   0.00000  Uiso   1.00
O173   O     0.07133   0.32686   0.28836   0.00000  Uiso   1.00
O174   O     0.23103   0.10313   0.07355   0.00000  Uiso   1.00
O175   O     0.30150   0.10301   0.05646   0.00000  Uiso   1.00
O176   O     0.27710   0.39662   0.26490   0.00000  Uiso   1.00
O177   O     0.20486   0.39487   0.27293   0.00000  Uiso   1.00
O178   O     0.25084   0.40243   0.06912   0.00000  Uiso   1.00
O179   O     0.45420   0.29581   0.20487   0.00000  Uiso   1.00
O180   O     0.30642   0.39892   0.02071   0.00000  Uiso   1.00
O181   O     0.25516   0.11271   0.28843   0.00000  Uiso   1.00
O182   O     0.32069   0.07867   0.28856   0.00000  Uiso   1.00
O183   O     0.04581   0.20419   0.12846   0.00000  Uiso   1.00
O184   O     0.45420   0.20419   0.12846   0.00000  Uiso   1.00
O185   O     0.04581   0.29581   0.20487   0.00000  Uiso   1.00
O186   O     0.04581   0.29581   0.12846   0.00000  Uiso   1.00
O187   O     0.45420   0.20419   0.20487   0.00000  Uiso   1.00
O188   O     0.29581   0.45419   0.20487   0.00000  Uiso   1.00
Zn189  Zn    0.00000   0.25000   0.21771   0.00000  Uiso   1.00
Zn190  Zn    0.00000   0.25000   0.11563   0.00000  Uiso   1.00
Zn191  Zn    0.25000   0.00000   0.21771   0.00000  Uiso   1.00
Zn192  Zn    0.25000  -0.00000   0.11563   0.00000  Uiso   1.00
C193   C     0.56298   0.19361   0.16585   0.00000  Uiso   1.00
C194   C     0.99732   0.21000   0.30607   0.00000  Uiso   1.00
C195   C     0.50199   0.20973   0.02035   0.00000  Uiso   1.00
C196   C     0.50624   0.28938   0.31278   0.00000  Uiso   1.00
C197   C     0.75348   0.03999   0.02708   0.00000  Uiso   1.00
C198   C     0.74820   0.46004   0.30623   0.00000  Uiso   1.00
C199   C     0.75237   0.46016   0.02046   0.00000  Uiso   1.00
C200   C     0.75658   0.03938   0.31268   0.00000  Uiso   1.00
C201   C     0.90359   0.12213   0.13183   0.00000  Uiso   1.00
C202   C     0.58619   0.38638   0.19322   0.00000  Uiso   1.00
C203   C     0.62588   0.33685   0.13861   0.00000  Uiso   1.00
C204   C     0.93951   0.30930   0.16776   0.00000  Uiso   1.00
C205   C     0.86879   0.16884   0.19262   0.00000  Uiso   1.00
C206   C     0.62369   0.16115   0.20515   0.00000  Uiso   1.00
C207   C     0.87078   0.33361   0.13830   0.00000  Uiso   1.00
C208   C     0.90208   0.37446   0.20558   0.00000  Uiso   1.00
C209   C     0.61392   0.14079   0.12440   0.00000  Uiso   1.00
C210   C     0.65236   0.37312   0.13122   0.00000  Uiso   1.00
C211   C     0.83643   0.13614   0.19277   0.00000  Uiso   1.00
C212   C     0.87642   0.08611   0.13830   0.00000  Uiso   1.00
C213   C     0.61877   0.41889   0.19329   0.00000  Uiso   1.00
C214   C     0.87376   0.41034   0.20160   0.00000  Uiso   1.00
C215   C     0.93904   0.19105   0.16540   0.00000  Uiso   1.00
C216   C     0.63302   0.09873   0.12933   0.00000  Uiso   1.00
C217   C     0.65102   0.12405   0.20765   0.00000  Uiso   1.00
C218   C     0.83771   0.36524   0.13972   0.00000  Uiso   1.00
C219   C     0.59234   0.34399   0.16906   0.00000  Uiso   1.00
C220   C     0.90303   0.16065   0.16274   0.00000  Uiso   1.00
C221   C     0.90385   0.33970   0.17043   0.00000  Uiso   1.00
C222   C     0.60195   0.16673   0.16429   0.00000  Uiso   1.00
C223   C     0.84267   0.09361   0.16872   0.00000  Uiso   1.00
C224   C     0.65250   0.41123   0.16264   0.00000  Uiso   1.00
C225   C     0.65584   0.09331   0.16928   0.00000  Uiso   1.00
C226   C     0.55958   0.31025   0.16779   0.00000  Uiso   1.00
C227   C     0.84273   0.40623   0.16675   0.00000  Uiso   1.00
C228   C     0.50395   0.33412   0.05404   0.00000  Uiso   1.00
C229   C     0.99024   0.16652   0.27865   0.00000  Uiso   1.00
C230   C     0.51498   0.16615   0.03851   0.00000  Uiso   1.00
C231   C     0.52706   0.32850   0.29466   0.00000  Uiso   1.00
C232   C     0.76074   0.08342   0.05440   0.00000  Uiso   1.00
C233   C     0.74479   0.41598   0.27911   0.00000  Uiso   1.00
C234   C     0.76915   0.41897   0.03877   0.00000  Uiso   1.00
C235   C     0.77626   0.07868   0.29389   0.00000  Uiso   1.00
C236   C     0.90651   0.13981   0.05476   0.00000  Uiso   1.00
C237   C     0.81003   0.44017   0.16616   0.00000  Uiso   1.00
C238   C     0.51455   0.41303   0.18068   0.00000  Uiso   1.00
C239   C     0.66572   0.26590   0.12849   0.00000  Uiso   1.00
C240   C     0.87101   0.21432   0.26502   0.00000  Uiso   1.00
C241   C     0.63963   0.23583   0.24194   0.00000  Uiso   1.00
C242   C     0.87633   0.29611   0.06241   0.00000  Uiso   1.00
C243   C     0.90597   0.34830   0.27979   0.00000  Uiso   1.00
C244   C     0.65022   0.15946   0.05582   0.00000  Uiso   1.00
C245   C     0.65335   0.39277   0.05478   0.00000  Uiso   1.00
C246   C     0.76413   0.16242   0.18172   0.00000  Uiso   1.00
C247   C     0.91565   0.01524   0.11695   0.00000  Uiso   1.00
C248   C     0.68894   0.05909   0.16759   0.00000  Uiso   1.00
C249   C     0.62240   0.46157   0.26696   0.00000  Uiso   1.00
C250   C     0.89387   0.48868   0.22491   0.00000  Uiso   1.00
C251   C     0.62906   0.04624   0.06004   0.00000  Uiso   1.00
C252   C     0.64909   0.08794   0.27749   0.00000  Uiso   1.00
C253   C     0.76757   0.33695   0.15480   0.00000  Uiso   1.00
C254   C     0.68888   0.44122   0.16538   0.00000  Uiso   1.00
C255   C     0.80972   0.06009   0.16771   0.00000  Uiso   1.00
C256   C     0.50189   0.29000   0.02699   0.00000  Uiso   1.00
H257   H     0.54091   0.38641   0.07945   0.00000  Uiso   1.00
H258   H     0.92901   0.14220   0.02670   0.00000  Uiso   1.00
H259   H     0.89386   0.17449   0.06441   0.00000  Uiso   1.00
H260   H     0.87996   0.11702   0.04249   0.00000  Uiso   1.00
H261   H     0.54729   0.41999   0.24116   0.00000  Uiso   1.00
H262   H     0.52694   0.44293   0.16425   0.00000  Uiso   1.00
H263   H     0.98460   0.42330   0.19824   0.00000  Uiso   1.00
H264   H     0.50679   0.38504   0.15480   0.00000  Uiso   1.00
H265   H     0.62824   0.29446   0.07923   0.00000  Uiso   1.00
H266   H     0.69108   0.26247   0.10264   0.00000  Uiso   1.00
H267   H     0.65327   0.23166   0.13379   0.00000  Uiso   1.00
H268   H     0.94860   0.11674   0.25759   0.00000  Uiso   1.00
H269   H     0.68015   0.28015   0.16079   0.00000  Uiso   1.00
H270   H     0.87483   0.24016   0.20187   0.00000  Uiso   1.00
H271   H     0.90336   0.22843   0.27329   0.00000  Uiso   1.00
H272   H     0.86849   0.18022   0.27826   0.00000  Uiso   1.00
H273   H     0.84688   0.23713   0.28208   0.00000  Uiso   1.00
H274   H     0.61929   0.17985   0.27453   0.00000  Uiso   1.00
H275   H     0.63354   0.25757   0.27332   0.00000  Uiso   1.00
H276   H     0.62738   0.25408   0.21337   0.00000  Uiso   1.00
H277   H     0.67471   0.23029   0.23867   0.00000  Uiso   1.00
H278   H     0.87744   0.26286   0.12221   0.00000  Uiso   1.00
H279   H     0.54711   0.10675   0.02881   0.00000  Uiso   1.00
H280   H     0.90573   0.27647   0.05304   0.00000  Uiso   1.00
H281   H     0.88116   0.33208   0.05461   0.00000  Uiso   1.00
H282   H     0.84924   0.28150   0.04167   0.00000  Uiso   1.00
H283   H     0.94034   0.40271   0.25790   0.00000  Uiso   1.00
H284   H     0.92744   0.34655   0.30942   0.00000  Uiso   1.00
H285   H     0.89764   0.31299   0.26684   0.00000  Uiso   1.00
H286   H     0.87616   0.36622   0.29089   0.00000  Uiso   1.00
H287   H     0.59631   0.18911   0.07930   0.00000  Uiso   1.00
H288   H     0.64512   0.17848   0.02548   0.00000  Uiso   1.00
H289   H     0.66090   0.12514   0.04391   0.00000  Uiso   1.00
H290   H     0.58368   0.35711   0.28098   0.00000  Uiso   1.00
H291   H     0.67589   0.17675   0.07677   0.00000  Uiso   1.00
H292   H     0.68942   0.34172   0.08031   0.00000  Uiso   1.00
H293   H     0.67461   0.39405   0.02540   0.00000  Uiso   1.00
H294   H     0.64313   0.42812   0.06547   0.00000  Uiso   1.00
H295   H     0.62484   0.37191   0.04422   0.00000  Uiso   1.00
H296   H     0.79787   0.16921   0.24147   0.00000  Uiso   1.00
H297   H     0.73382   0.17023   0.19979   0.00000  Uiso   1.00
H298   H     0.75754   0.13528   0.15465   0.00000  Uiso   1.00
H299   H     0.77513   0.19375   0.16673   0.00000  Uiso   1.00
H300   H     0.87088   0.04707   0.07705   0.00000  Uiso   1.00
H301   H     0.80250   0.13292   0.07580   0.00000  Uiso   1.00
H302   H     0.93606   0.01276   0.08663   0.00000  Uiso   1.00
H303   H     0.90411   0.48041   0.12226   0.00000  Uiso   1.00
H304   H     0.93554   0.02808   0.14637   0.00000  Uiso   1.00
H305   H     0.62564   0.48988   0.20473   0.00000  Uiso   1.00
H306   H     0.65445   0.47635   0.27550   0.00000  Uiso   1.00
H307   H     0.62113   0.42668   0.27861   0.00000  Uiso   1.00
H308   H     0.59785   0.48279   0.28528   0.00000  Uiso   1.00
H309   H     0.87785   0.43957   0.26820   0.00000  Uiso   1.00
H310   H     0.89195   0.01463   0.25390   0.00000  Uiso   1.00
H311   H     0.87752   0.00277   0.19608   0.00000  Uiso   1.00
H312   H     0.70654   0.36451   0.25445   0.00000  Uiso   1.00
H313   H     0.92810   0.48180   0.21721   0.00000  Uiso   1.00
H314   H     0.58292   0.05595   0.10901   0.00000  Uiso   1.00
H315   H     0.61992   0.01026   0.05068   0.00000  Uiso   1.00
H316   H     0.66420   0.04884   0.05675   0.00000  Uiso   1.00
H317   H     0.61256   0.06768   0.03633   0.00000  Uiso   1.00
H318   H     0.68409   0.14594   0.26607   0.00000  Uiso   1.00
H319   H     0.67038   0.07852   0.30524   0.00000  Uiso   1.00
H320   H     0.63834   0.05621   0.25823   0.00000  Uiso   1.00
H321   H     0.62057   0.10587   0.29203   0.00000  Uiso   1.00
H322   H     0.79739   0.32940   0.09363   0.00000  Uiso   1.00
H323   H     0.81421   0.36948   0.03408   0.00000  Uiso   1.00
H324   H     0.73701   0.32642   0.13824   0.00000  Uiso   1.00
H325   H     0.76060   0.36494   0.18071   0.00000  Uiso   1.00
H326   H     0.78118   0.30728   0.17096   0.00000  Uiso   1.00
H327   H     0.83231   0.10937   0.28161   0.00000  Uiso   1.00
H328   H     0.94382   0.09120   0.08344   0.00000  Uiso   1.00
N329   N     0.50000   0.25000   0.28573   0.00000  Uiso   1.00
N330   N     0.86712   0.29261   0.10949   0.00000  Uiso   1.00
N331   N     0.92716   0.37211   0.24547   0.00000  Uiso   1.00
N332   N     0.61068   0.15797   0.08070   0.00000  Uiso   1.00
N333   N     0.67609   0.37270   0.09088   0.00000  Uiso   1.00
N334   N     0.79610   0.14745   0.21277   0.00000  Uiso   1.00
N335   N     0.87911   0.04449   0.11026   0.00000  Uiso   1.00
N336   N     0.61428   0.46156   0.21908   0.00000  Uiso   1.00
N337   N     0.87259   0.44745   0.23563   0.00000  Uiso   1.00
N338   N     0.61565   0.05868   0.10554   0.00000  Uiso   1.00
N339   N     0.67228   0.11676   0.24890   0.00000  Uiso   1.00
N340   N     0.50000   0.25000   0.04760   0.00000  Uiso   1.00
N341   N     0.79676   0.35207   0.12170   0.00000  Uiso   1.00
N342   N     0.75000   0.00000   0.28573   0.00000  Uiso   1.00
N343   N     0.75000   0.00000   0.04760   0.00000  Uiso   1.00
N344   N     0.92850   0.12149   0.09233   0.00000  Uiso   1.00
N345   N     0.54570   0.39801   0.21260   0.00000  Uiso   1.00
N346   N     0.63098   0.29390   0.11362   0.00000  Uiso   1.00
N347   N     0.86347   0.21227   0.21694   0.00000  Uiso   1.00
N348   N     0.61769   0.19274   0.24352   0.00000  Uiso   1.00
O349   O     0.54581   0.20419   0.20487   0.00000  Uiso   1.00
O350   O     0.70420   0.04581   0.12846   0.00000  Uiso   1.00
O351   O     0.70420   0.04581   0.20487   0.00000  Uiso   1.00
O352   O     0.79581   0.45419   0.12846   0.00000  Uiso   1.00
O353   O     0.70420   0.45419   0.12846   0.00000  Uiso   1.00
O354   O     0.79581   0.04581   0.20487   0.00000  Uiso   1.00
O355   O     0.79581   0.04581   0.12846   0.00000  Uiso   1.00
O356   O     0.70420   0.45419   0.20487   0.00000  Uiso   1.00
O357   O     0.97090   0.35348   0.06603   0.00000  Uiso   1.00
O358   O     0.54355   0.35545   0.06225   0.00000  Uiso   1.00
O359   O     0.52018   0.14678   0.25965   0.00000  Uiso   1.00
O360   O     0.95420   0.29581   0.12846   0.00000  Uiso   1.00
O361   O     0.94958   0.14666   0.27691   0.00000  Uiso   1.00
O362   O     0.50216   0.15587   0.07448   0.00000  Uiso   1.00
O363   O     0.54233   0.13617   0.01396   0.00000  Uiso   1.00
O364   O     0.50718   0.36361   0.29048   0.00000  Uiso   1.00
O365   O     0.57133   0.32686   0.28836   0.00000  Uiso   1.00
O366   O     0.73103   0.10313   0.07355   0.00000  Uiso   1.00
O367   O     0.80150   0.10301   0.05646   0.00000  Uiso   1.00
O368   O     0.77710   0.39662   0.26490   0.00000  Uiso   1.00
O369   O     0.70486   0.39487   0.27293   0.00000  Uiso   1.00
O370   O     0.75084   0.40243   0.06912   0.00000  Uiso   1.00
O371   O     0.95420   0.29581   0.20487   0.00000  Uiso   1.00
O372   O     0.80642   0.39892   0.02071   0.00000  Uiso   1.00
O373   O     0.75516   0.11271   0.28843   0.00000  Uiso   1.00
O374   O     0.82069   0.07867   0.28856   0.00000  Uiso   1.00
O375   O     0.54581   0.20419   0.12846   0.00000  Uiso   1.00
O376   O     0.95420   0.20419   0.12846   0.00000  Uiso   1.00
O377   O     0.54581   0.29581   0.20487   0.00000  Uiso   1.00
O378   O     0.54581   0.29581   0.12846   0.00000  Uiso   1.00
O379   O     0.95420   0.20419   0.20487   0.00000  Uiso   1.00
O380   O     0.79581   0.45419   0.20487   0.00000  Uiso   1.00
Zn381  Zn    0.50000   0.25000   0.21771   0.00000  Uiso   1.00
Zn382  Zn    0.50000   0.25000   0.11563   0.00000  Uiso   1.00
Zn383  Zn    0.75000   0.00000   0.21771   0.00000  Uiso   1.00
Zn384  Zn    0.75000  -0.00000   0.11563   0.00000  Uiso   1.00
C385   C     0.06298   0.69361   0.16585   0.00000  Uiso   1.00
C386   C     0.49732   0.71000   0.30607   0.00000  Uiso   1.00
C387   C     0.00199   0.70973   0.02035   0.00000  Uiso   1.00
C388   C     0.00624   0.78938   0.31278   0.00000  Uiso   1.00
C389   C     0.25348   0.53999   0.02708   0.00000  Uiso   1.00
C390   C     0.24820   0.96004   0.30623   0.00000  Uiso   1.00
C391   C     0.25237   0.96016   0.02046   0.00000  Uiso   1.00
C392   C     0.25658   0.53938   0.31268   0.00000  Uiso   1.00
C393   C     0.40359   0.62213   0.13183   0.00000  Uiso   1.00
C394   C     0.08619   0.88638   0.19322   0.00000  Uiso   1.00
C395   C     0.12588   0.83685   0.13861   0.00000  Uiso   1.00
C396   C     0.43951   0.80930   0.16776   0.00000  Uiso   1.00
C397   C     0.36879   0.66884   0.19262   0.00000  Uiso   1.00
C398   C     0.12369   0.66115   0.20515   0.00000  Uiso   1.00
C399   C     0.37078   0.83361   0.13830   0.00000  Uiso   1.00
C400   C     0.40208   0.87446   0.20558   0.00000  Uiso   1.00
C401   C     0.11392   0.64079   0.12440   0.00000  Uiso   1.00
C402   C     0.15236   0.87312   0.13122   0.00000  Uiso   1.00
C403   C     0.33643   0.63614   0.19277   0.00000  Uiso   1.00
C404   C     0.37642   0.58611   0.13830   0.00000  Uiso   1.00
C405   C     0.11877   0.91889   0.19329   0.00000  Uiso   1.00
C406   C     0.37376   0.91034   0.20160   0.00000  Uiso   1.00
C407   C     0.43904   0.69105   0.16540   0.00000  Uiso   1.00
C408   C     0.13302   0.59873   0.12933   0.00000  Uiso   1.00
C409   C     0.15102   0.62405   0.20765   0.00000  Uiso   1.00
C410   C     0.33771   0.86524   0.13972   0.00000  Uiso   1.00
C411   C     0.09234   0.84399   0.16906   0.00000  Uiso   1.00
C412   C     0.40303   0.66065   0.16274   0.00000  Uiso   1.00
C413   C     0.40385   0.83970   0.17043   0.00000  Uiso   1.00
C414   C     0.10195   0.66673   0.16429   0.00000  Uiso   1.00
C415   C     0.34267   0.59361   0.16872   0.00000  Uiso   1.00
C416   C     0.15250   0.91123   0.16264   0.00000  Uiso   1.00
C417   C     0.15584   0.59331   0.16928   0.00000  Uiso   1.00
C418   C     0.05958   0.81025   0.16779   0.00000  Uiso   1.00
C419   C     0.34273   0.90623   0.16675   0.00000  Uiso   1.00
C420   C     0.00395   0.83412   0.05404   0.00000  Uiso   1.00
C421   C     0.49024   0.66652   0.27865   0.00000  Uiso   1.00
C422   C     0.01498   0.66615   0.03851   0.00000  Uiso   1.00
C423   C     0.02706   0.82850   0.29466   0.00000  Uiso   1.00
C424   C     0.26074   0.58342   0.05440   0.00000  Uiso   1.00
C425   C     0.24479   0.91598   0.27911   0.00000  Uiso   1.00
C426   C     0.26915   0.91897   0.03877   0.00000  Uiso   1.00
C427   C     0.27626   0.57868   0.29389   0.00000  Uiso   1.00
C428   C     0.40651   0.63981   0.05476   0.00000  Uiso   1.00
C429   C     0.31003   0.94017   0.16616   0.00000  Uiso   1.00
C430   C     0.01455   0.91303   0.18068   0.00000  Uiso   1.00
C431   C     0.16572   0.76590   0.12849   0.00000  Uiso   1.00
C432   C     0.37101   0.71432   0.26502   0.00000  Uiso   1.00
C433   C     0.13963   0.73583   0.24194   0.00000  Uiso   1.00
C434   C     0.37633   0.79611   0.06241   0.00000  Uiso   1.00
C435   C     0.40597   0.84830   0.27979   0.00000  Uiso   1.00
C436   C     0.15022   0.65946   0.05582   0.00000  Uiso   1.00
C437   C     0.15335   0.89277   0.05478   0.00000  Uiso   1.00
C438   C     0.26413   0.66242   0.18172   0.00000  Uiso   1.00
C439   C     0.41565   0.51524   0.11695   0.00000  Uiso   1.00
C440   C     0.18894   0.55909   0.16759   0.00000  Uiso   1.00
C441   C     0.12240   0.96157   0.26696   0.00000  Uiso   1.00
C442   C     0.39387   0.98868   0.22491   0.00000  Uiso   1.00
C443   C     0.12906   0.54624   0.06004   0.00000  Uiso   1.00
C444   C     0.14909   0.58794   0.27749   0.00000  Uiso   1.00
C445   C     0.26757   0.83695   0.15480   0.00000  Uiso   1.00
C446   C     0.18888   0.94122   0.16538   0.00000  Uiso   1.00
C447   C     0.30972   0.56009   0.16771   0.00000  Uiso   1.00
C448   C     0.00189   0.79000   0.02699   0.00000  Uiso   1.00
H449   H     0.04091   0.88641   0.07945   0.00000  Uiso   1.00
H450   H     0.42901   0.64220   0.02670   0.00000  Uiso   1.00
H451   H     0.39386   0.67449   0.06441   0.00000  Uiso   1.00
H452   H     0.37996   0.61702   0.04249   0.00000  Uiso   1.00
H453   H     0.04729   0.91999   0.24116   0.00000  Uiso   1.00
H454   H     0.02694   0.94293   0.16425   0.00000  Uiso   1.00
H455   H     0.48460   0.92330   0.19824   0.00000  Uiso   1.00
H456   H     0.00679   0.88504   0.15480   0.00000  Uiso   1.00
H457   H     0.12824   0.79446   0.07923   0.00000  Uiso   1.00
H458   H     0.19108   0.76247   0.10264   0.00000  Uiso   1.00
H459   H     0.15327   0.73166   0.13379   0.00000  Uiso   1.00
H460   H     0.44860   0.61674   0.25759   0.00000  Uiso   1.00
H461   H     0.18015   0.78015   0.16079   0.00000  Uiso   1.00
H462   H     0.37483   0.74016   0.20187   0.00000  Uiso   1.00
H463   H     0.40336   0.72843   0.27329   0.00000  Uiso   1.00
H464   H     0.36849   0.68022   0.27826   0.00000  Uiso   1.00
H465   H     0.34688   0.73713   0.28208   0.00000  Uiso   1.00
H466   H     0.11929   0.67985   0.27453   0.00000  Uiso   1.00
H467   H     0.13354   0.75757   0.27332   0.00000  Uiso   1.00
H468   H     0.12738   0.75408   0.21337   0.00000  Uiso   1.00
H469   H     0.17471   0.73029   0.23867   0.00000  Uiso   1.00
H470   H     0.37744   0.76286   0.12221   0.00000  Uiso   1.00
H471   H     0.04711   0.60675   0.02881   0.00000  Uiso   1.00
H472   H     0.40573   0.77647   0.05304   0.00000  Uiso   1.00
H473   H     0.38116   0.83208   0.05461   0.00000  Uiso   1.00
H474   H     0.34924   0.78150   0.04167   0.00000  Uiso   1.00
H475   H     0.44034   0.90271   0.25790   0.00000  Uiso   1.00
H476   H     0.42744   0.84655   0.30942   0.00000  Uiso   1.00
H477   H     0.39764   0.81299   0.26684   0.00000  Uiso   1.00
H478   H     0.37616   0.86622   0.29089   0.00000  Uiso   1.00
H479   H     0.09631   0.68911   0.07930   0.00000  Uiso   1.00
H480   H     0.14512   0.67848   0.02548   0.00000  Uiso   1.00
H481   H     0.16090   0.62514   0.04391   0.00000  Uiso   1.00
H482   H     0.08368   0.85711   0.28098   0.00000  Uiso   1.00
H483   H     0.17589   0.67675   0.07677   0.00000  Uiso   1.00
H484   H     0.18942   0.84172   0.08031   0.00000  Uiso   1.00
H485   H     0.17461   0.89405   0.02540   0.00000  Uiso   1.00
H486   H     0.14313   0.92812   0.06547   0.00000  Uiso   1.00
H487   H     0.12484   0.87191   0.04422   0.00000  Uiso   1.00
H488   H     0.29787   0.66921   0.24147   0.00000  Uiso   1.00
H489   H     0.23382   0.67023   0.19979   0.00000  Uiso   1.00
H490   H     0.25754   0.63528   0.15465   0.00000  Uiso   1.00
H491   H     0.27513   0.69375   0.16673   0.00000  Uiso   1.00
H492   H     0.37088   0.54707   0.07705   0.00000  Uiso   1.00
H493   H     0.30250   0.63292   0.07580   0.00000  Uiso   1.00
H494   H     0.43606   0.51276   0.08663   0.00000  Uiso   1.00
H495   H     0.40411   0.98041   0.12226   0.00000  Uiso   1.00
H496   H     0.43554   0.52808   0.14637   0.00000  Uiso   1.00
H497   H     0.12564   0.98988   0.20473   0.00000  Uiso   1.00
H498   H     0.15445   0.97635   0.27550   0.00000  Uiso   1.00
H499   H     0.12113   0.92668   0.27861   0.00000  Uiso   1.00
H500   H     0.09785   0.98279   0.28528   0.00000  Uiso   1.00
H501   H     0.37785   0.93957   0.26820   0.00000  Uiso   1.00
H502   H     0.39195   0.51463   0.25390   0.00000  Uiso   1.00
H503   H     0.37752   0.50277   0.19608   0.00000  Uiso   1.00
H504   H     0.20654   0.86451   0.25445   0.00000  Uiso   1.00
H505   H     0.42810   0.98180   0.21721   0.00000  Uiso   1.00
H506   H     0.08292   0.55595   0.10901   0.00000  Uiso   1.00
H507   H     0.11992   0.51026   0.05068   0.00000  Uiso   1.00
H508   H     0.16420   0.54884   0.05675   0.00000  Uiso   1.00
H509   H     0.11256   0.56768   0.03633   0.00000  Uiso   1.00
H510   H     0.18409   0.64594   0.26607   0.00000  Uiso   1.00
H511   H     0.17038   0.57852   0.30524   0.00000  Uiso   1.00
H512   H     0.13834   0.55621   0.25823   0.00000  Uiso   1.00
H513   H     0.12057   0.60587   0.29203   0.00000  Uiso   1.00
H514   H     0.29739   0.82940   0.09363   0.00000  Uiso   1.00
H515   H     0.31421   0.86948   0.03408   0.00000  Uiso   1.00
H516   H     0.23701   0.82642   0.13824   0.00000  Uiso   1.00
H517   H     0.26060   0.86494   0.18071   0.00000  Uiso   1.00
H518   H     0.28118   0.80728   0.17096   0.00000  Uiso   1.00
H519   H     0.33231   0.60937   0.28161   0.00000  Uiso   1.00
H520   H     0.44382   0.59120   0.08344   0.00000  Uiso   1.00
N521   N     0.00000   0.75000   0.28573   0.00000  Uiso   1.00
N522   N     0.36712   0.79261   0.10949   0.00000  Uiso   1.00
N523   N     0.42716   0.87211   0.24547   0.00000  Uiso   1.00
N524   N     0.11068   0.65797   0.08070   0.00000  Uiso   1.00
N525   N     0.17609   0.87270   0.09088   0.00000  Uiso   1.00
N526   N     0.29610   0.64745   0.21277   0.00000  Uiso   1.00
N527   N     0.37911   0.54449   0.11026   0.00000  Uiso   1.00
N528   N     0.11428   0.96156   0.21908   0.00000  Uiso   1.00
N529   N     0.37259   0.94745   0.23563   0.00000  Uiso   1.00
N530   N     0.11565   0.55868   0.10554   0.00000  Uiso   1.00
N531   N     0.17228   0.61676   0.24890   0.00000  Uiso   1.00
N532   N     0.00000   0.75000   0.04760   0.00000  Uiso   1.00
N533   N     0.29676   0.85207   0.12170   0.00000  Uiso   1.00
N534   N     0.25000   0.50000   0.28573   0.00000  Uiso   1.00
N535   N     0.25000   0.50000   0.04760   0.00000  Uiso   1.00
N536   N     0.42850   0.62149   0.09233   0.00000  Uiso   1.00
N537   N     0.04570   0.89801   0.21260   0.00000  Uiso   1.00
N538   N     0.13098   0.79390   0.11362   0.00000  Uiso   1.00
N539   N     0.36347   0.71227   0.21694   0.00000  Uiso   1.00
N540   N     0.11769   0.69274   0.24352   0.00000  Uiso   1.00
O541   O     0.04581   0.70419   0.20487   0.00000  Uiso   1.00
O542   O     0.20420   0.54581   0.12846   0.00000  Uiso   1.00
O543   O     0.20420   0.54581   0.20487   0.00000  Uiso   1.00
O544   O     0.29581   0.95419   0.12846   0.00000  Uiso   1.00
O545   O     0.20420   0.95419   0.12846   0.00000  Uiso   1.00
O546   O     0.29581   0.54581   0.20487   0.00000  Uiso   1.00
O547   O     0.29581   0.54581   0.12846   0.00000  Uiso   1.00
O548   O     0.20420   0.95419   0.20487   0.00000  Uiso   1.00
O549   O     0.47090   0.85348   0.06603   0.00000  Uiso   1.00
O550   O     0.04355   0.85545   0.06225   0.00000  Uiso   1.00
O551   O     0.02018   0.64678   0.25965   0.00000  Uiso   1.00
O552   O     0.45420   0.79581   0.12846   0.00000  Uiso   1.00
O553   O     0.44958   0.64666   0.27691   0.00000  Uiso   1.00
O554   O     0.00216   0.65587   0.07448   0.00000  Uiso   1.00
O555   O     0.04233   0.63617   0.01396   0.00000  Uiso   1.00
O556   O     0.00718   0.86361   0.29048   0.00000  Uiso   1.00
O557   O     0.07133   0.82686   0.28836   0.00000  Uiso   1.00
O558   O     0.23103   0.60313   0.07355   0.00000  Uiso   1.00
O559   O     0.30150   0.60301   0.05646   0.00000  Uiso   1.00
O560   O     0.27710   0.89662   0.26490   0.00000  Uiso   1.00
O561   O     0.20486   0.89487   0.27293   0.00000  Uiso   1.00
O562   O     0.25084   0.90243   0.06912   0.00000  Uiso   1.00
O563   O     0.45420   0.79581   0.20487   0.00000  Uiso   1.00
O564   O     0.30642   0.89892   0.02071   0.00000  Uiso   1.00
O565   O     0.25516   0.61271   0.28843   0.00000  Uiso   1.00
O566   O     0.32069   0.57867   0.28856   0.00000  Uiso   1.00
O567   O     0.04581   0.70419   0.12846   0.00000  Uiso   1.00
O568   O     0.45420   0.70419   0.12846   0.00000  Uiso   1.00
O569   O     0.04581   0.79581   0.20487   0.00000  Uiso   1.00
O570   O     0.04581   0.79581   0.12846   0.00000  Uiso   1.00
O571   O     0.45420   0.70419   0.20487   0.00000  Uiso   1.00
O572   O     0.29581   0.95419   0.20487   0.00000  Uiso   1.00
Zn573  Zn    0.00000   0.75000   0.21771   0.00000  Uiso   1.00
Zn574  Zn    0.00000   0.75000   0.11563   0.00000  Uiso   1.00
Zn575  Zn    0.25000   0.50000   0.21771   0.00000  Uiso   1.00
Zn576  Zn    0.25000   0.50000   0.11563   0.00000  Uiso   1.00
C577   C     0.56298   0.69361   0.16585   0.00000  Uiso   1.00
C578   C     0.99732   0.71000   0.30607   0.00000  Uiso   1.00
C579   C     0.50199   0.70973   0.02035   0.00000  Uiso   1.00
C580   C     0.50624   0.78938   0.31278   0.00000  Uiso   1.00
C581   C     0.75348   0.53999   0.02708   0.00000  Uiso   1.00
C582   C     0.74820   0.96004   0.30623   0.00000  Uiso   1.00
C583   C     0.75237   0.96016   0.02046   0.00000  Uiso   1.00
C584   C     0.75658   0.53938   0.31268   0.00000  Uiso   1.00
C585   C     0.90359   0.62213   0.13183   0.00000  Uiso   1.00
C586   C     0.58619   0.88638   0.19322   0.00000  Uiso   1.00
C587   C     0.62588   0.83685   0.13861   0.00000  Uiso   1.00
C588   C     0.93951   0.80930   0.16776   0.00000  Uiso   1.00
C589   C     0.86879   0.66884   0.19262   0.00000  Uiso   1.00
C590   C     0.62369   0.66115   0.20515   0.00000  Uiso   1.00
C591   C     0.87078   0.83361   0.13830   0.00000  Uiso   1.00
C592   C     0.90208   0.87446   0.20558   0.00000  Uiso   1.00
C593   C     0.61392   0.64079   0.12440   0.00000  Uiso   1.00
C594   C     0.65236   0.87312   0.13122   0.00000  Uiso   1.00
C595   C     0.83643   0.63614   0.19277   0.00000  Uiso   1.00
C596   C     0.87642   0.58611   0.13830   0.00000  Uiso   1.00
C597   C     0.61877   0.91889   0.19329   0.00000  Uiso   1.00
C598   C     0.87376   0.91034   0.20160   0.00000  Uiso   1.00
C599   C     0.93904   0.69105   0.16540   0.00000  Uiso   1.00
C600   C     0.63302   0.59873   0.12933   0.00000  Uiso   1.00
C601   C     0.65102   0.62405   0.20765   0.00000  Uiso   1.00
C602   C     0.83771   0.86524   0.13972   0.00000  Uiso   1.00
C603   C     0.59234   0.84399   0.16906   0.00000  Uiso   1.00
C604   C     0.90303   0.66065   0.16274   0.00000  Uiso   1.00
C605   C     0.90385   0.83970   0.17043   0.00000  Uiso   1.00
C606   C     0.60195   0.66673   0.16429   0.00000  Uiso   1.00
C607   C     0.84267   0.59361   0.16872   0.00000  Uiso   1.00
C608   C     0.65250   0.91123   0.16264   0.00000  Uiso   1.00
C609   C     0.65584   0.59331   0.16928   0.00000  Uiso   1.00
C610   C     0.55958   0.81025   0.16779   0.00000  Uiso   1.00
C611   C     0.84273   0.90623   0.16675   0.00000  Uiso   1.00
C612   C     0.50395   0.83412   0.05404   0.00000  Uiso   1.00
C613   C     0.99024   0.66652   0.27865   0.00000  Uiso   1.00
C614   C     0.51498   0.66615   0.03851   0.00000  Uiso   1.00
C615   C     0.52706   0.82850   0.29466   0.00000  Uiso   1.00
C616   C     0.76074   0.58342   0.05440   0.00000  Uiso   1.00
C617   C     0.74479   0.91598   0.27911   0.00000  Uiso   1.00
C618   C     0.76915   0.91897   0.03877   0.00000  Uiso   1.00
C619   C     0.77626   0.57868   0.29389   0.00000  Uiso   1.00
C620   C     0.90651   0.63981   0.05476   0.00000  Uiso   1.00
C621   C     0.81003   0.94017   0.16616   0.00000  Uiso   1.00
C622   C     0.51455   0.91303   0.18068   0.00000  Uiso   1.00
C623   C     0.66572   0.76590   0.12849   0.00000  Uiso   1.00
C624   C     0.87101   0.71432   0.26502   0.00000  Uiso   1.00
C625   C     0.63963   0.73583   0.24194   0.00000  Uiso   1.00
C626   C     0.87633   0.79611   0.06241   0.00000  Uiso   1.00
C627   C     0.90597   0.84830   0.27979   0.00000  Uiso   1.00
C628   C     0.65022   0.65946   0.05582   0.00000  Uiso   1.00
C629   C     0.65335   0.89277   0.05478   0.00000  Uiso   1.00
C630   C     0.76413   0.66242   0.18172   0.00000  Uiso   1.00
C631   C     0.91565   0.51524   0.11695   0.00000  Uiso   1.00
C632   C     0.68894   0.55909   0.16759   0.00000  Uiso   1.00
C633   C     0.62240   0.96157   0.26696   0.00000  Uiso   1.00
C634   C     0.89387   0.98868   0.22491   0.00000  Uiso   1.00
C635   C     0.62906   0.54624   0.06004   0.00000  Uiso   1.00
C636   C     0.64909   0.58794   0.27749   0.00000  Uiso   1.00
C637   C     0.76757   0.83695   0.15480   0.00000  Uiso   1.00
C638   C     0.68888   0.94122   0.16538   0.00000  Uiso   1.00
C639   C     0.80972   0.56009   0.16771   0.00000  Uiso   1.00
C640   C     0.50189   0.79000   0.02699   0.00000  Uiso   1.00
H641   H     0.54091   0.88641   0.07945   0.00000  Uiso   1.00
H642   H     0.92901   0.64220   0.02670   0.00000  Uiso   1.00
H643   H     0.89386   0.67449   0.06441   0.00000  Uiso   1.00
H644   H     0.87996   0.61702   0.04249   0.00000  Uiso   1.00
H645   H     0.54729   0.91999   0.24116   0.00000  Uiso   1.00
H646   H     0.52694   0.94293   0.16425   0.00000  Uiso   1.00
H647   H     0.98460   0.92330   0.19824   0.00000  Uiso   1.00
H648   H     0.50679   0.88504   0.15480   0.00000  Uiso   1.00
H649   H     0.62824   0.79446   0.07923   0.00000  Uiso   1.00
H650   H     0.69108   0.76247   0.10264   0.00000  Uiso   1.00
H651   H     0.65327   0.73166   0.13379   0.00000  Uiso   1.00
H652   H     0.94860   0.61674   0.25759   0.00000  Uiso   1.00
H653   H     0.68015   0.78015   0.16079   0.00000  Uiso   1.00
H654   H     0.87483   0.74016   0.20187   0.00000  Uiso   1.00
H655   H     0.90336   0.72843   0.27329   0.00000  Uiso   1.00
H656   H     0.86849   0.68022   0.27826   0.00000  Uiso   1.00
H657   H     0.84688   0.73713   0.28208   0.00000  Uiso   1.00
H658   H     0.61929   0.67985   0.27453   0.00000  Uiso   1.00
H659   H     0.63354   0.75757   0.27332   0.00000  Uiso   1.00
H660   H     0.62738   0.75408   0.21337   0.00000  Uiso   1.00
H661   H     0.67471   0.73029   0.23867   0.00000  Uiso   1.00
H662   H     0.87744   0.76286   0.12221   0.00000  Uiso   1.00
H663   H     0.54711   0.60675   0.02881   0.00000  Uiso   1.00
H664   H     0.90573   0.77647   0.05304   0.00000  Uiso   1.00
H665   H     0.88116   0.83208   0.05461   0.00000  Uiso   1.00
H666   H     0.84924   0.78150   0.04167   0.00000  Uiso   1.00
H667   H     0.94034   0.90271   0.25790   0.00000  Uiso   1.00
H668   H     0.92744   0.84655   0.30942   0.00000  Uiso   1.00
H669   H     0.89764   0.81299   0.26684   0.00000  Uiso   1.00
H670   H     0.87616   0.86622   0.29089   0.00000  Uiso   1.00
H671   H     0.59631   0.68911   0.07930   0.00000  Uiso   1.00
H672   H     0.64512   0.67848   0.02548   0.00000  Uiso   1.00
H673   H     0.66090   0.62514   0.04391   0.00000  Uiso   1.00
H674   H     0.58368   0.85711   0.28098   0.00000  Uiso   1.00
H675   H     0.67589   0.67675   0.07677   0.00000  Uiso   1.00
H676   H     0.68942   0.84172   0.08031   0.00000  Uiso   1.00
H677   H     0.67461   0.89405   0.02540   0.00000  Uiso   1.00
H678   H     0.64313   0.92812   0.06547   0.00000  Uiso   1.00
H679   H     0.62484   0.87191   0.04422   0.00000  Uiso   1.00
H680   H     0.79787   0.66921   0.24147   0.00000  Uiso   1.00
H681   H     0.73382   0.67023   0.19979   0.00000  Uiso   1.00
H682   H     0.75754   0.63528   0.15465   0.00000  Uiso   1.00
H683   H     0.77513   0.69375   0.16673   0.00000  Uiso   1.00
H684   H     0.87088   0.54707   0.07705   0.00000  Uiso   1.00
H685   H     0.80250   0.63292   0.07580   0.00000  Uiso   1.00
H686   H     0.93606   0.51276   0.08663   0.00000  Uiso   1.00
H687   H     0.90411   0.98041   0.12226   0.00000  Uiso   1.00
H688   H     0.93554   0.52808   0.14637   0.00000  Uiso   1.00
H689   H     0.62564   0.98988   0.20473   0.00000  Uiso   1.00
H690   H     0.65445   0.97635   0.27550   0.00000  Uiso   1.00
H691   H     0.62113   0.92668   0.27861   0.00000  Uiso   1.00
H692   H     0.59785   0.98279   0.28528   0.00000  Uiso   1.00
H693   H     0.87785   0.93957   0.26820   0.00000  Uiso   1.00
H694   H     0.89195   0.51463   0.25390   0.00000  Uiso   1.00
H695   H     0.87752   0.50277   0.19608   0.00000  Uiso   1.00
H696   H     0.70654   0.86451   0.25445   0.00000  Uiso   1.00
H697   H     0.92810   0.98180   0.21721   0.00000  Uiso   1.00
H698   H     0.58292   0.55595   0.10901   0.00000  Uiso   1.00
H699   H     0.61992   0.51026   0.05068   0.00000  Uiso   1.00
H700   H     0.66420   0.54884   0.05675   0.00000  Uiso   1.00
H701   H     0.61256   0.56768   0.03633   0.00000  Uiso   1.00
H702   H     0.68409   0.64594   0.26607   0.00000  Uiso   1.00
H703   H     0.67038   0.57852   0.30524   0.00000  Uiso   1.00
H704   H     0.63834   0.55621   0.25823   0.00000  Uiso   1.00
H705   H     0.62057   0.60587   0.29203   0.00000  Uiso   1.00
H706   H     0.79739   0.82940   0.09363   0.00000  Uiso   1.00
H707   H     0.81421   0.86948   0.03408   0.00000  Uiso   1.00
H708   H     0.73701   0.82642   0.13824   0.00000  Uiso   1.00
H709   H     0.76060   0.86494   0.18071   0.00000  Uiso   1.00
H710   H     0.78118   0.80728   0.17096   0.00000  Uiso   1.00
H711   H     0.83231   0.60937   0.28161   0.00000  Uiso   1.00
H712   H     0.94382   0.59120   0.08344   0.00000  Uiso   1.00
N713   N     0.50000   0.75000   0.28573   0.00000  Uiso   1.00
N714   N     0.86712   0.79261   0.10949   0.00000  Uiso   1.00
N715   N     0.92716   0.87211   0.24547   0.00000  Uiso   1.00
N716   N     0.61068   0.65797   0.08070   0.00000  Uiso   1.00
N717   N     0.67609   0.87270   0.09088   0.00000  Uiso   1.00
N718   N     0.79610   0.64745   0.21277   0.00000  Uiso   1.00
N719   N     0.87911   0.54449   0.11026   0.00000  Uiso   1.00
N720   N     0.61428   0.96156   0.21908   0.00000  Uiso   1.00
N721   N     0.87259   0.94745   0.23563   0.00000  Uiso   1.00
N722   N     0.61565   0.55868   0.10554   0.00000  Uiso   1.00
N723   N     0.67228   0.61676   0.24890   0.00000  Uiso   1.00
N724   N     0.50000   0.75000   0.04760   0.00000  Uiso   1.00
N725   N     0.79676   0.85207   0.12170   0.00000  Uiso   1.00
N726   N     0.75000   0.50000   0.28573   0.00000  Uiso   1.00
N727   N     0.75000   0.50000   0.04760   0.00000  Uiso   1.00
N728   N     0.92850   0.62149   0.09233   0.00000  Uiso   1.00
N729   N     0.54570   0.89801   0.21260   0.00000  Uiso   1.00
N730   N     0.63098   0.79390   0.11362   0.00000  Uiso   1.00
N731   N     0.86347   0.71227   0.21694   0.00000  Uiso   1.00
N732   N     0.61769   0.69274   0.24352   0.00000  Uiso   1.00
O733   O     0.54581   0.70419   0.20487   0.00000  Uiso   1.00
O734   O     0.70420   0.54581   0.12846   0.00000  Uiso   1.00
O735   O     0.70420   0.54581   0.20487   0.00000  Uiso   1.00
O736   O     0.79581   0.95419   0.12846   0.00000  Uiso   1.00
O737   O     0.70420   0.95419   0.12846   0.00000  Uiso   1.00
O738   O     0.79581   0.54581   0.20487   0.00000  Uiso   1.00
O739   O     0.79581   0.54581   0.12846   0.00000  Uiso   1.00
O740   O     0.70420   0.95419   0.20487   0.00000  Uiso   1.00
O741   O     0.97090   0.85348   0.06603   0.00000  Uiso   1.00
O742   O     0.54355   0.85545   0.06225   0.00000  Uiso   1.00
O743   O     0.52018   0.64678   0.25965   0.00000  Uiso   1.00
O744   O     0.95420   0.79581   0.12846   0.00000  Uiso   1.00
O745   O     0.94958   0.64666   0.27691   0.00000  Uiso   1.00
O746   O     0.50216   0.65587   0.07448   0.00000  Uiso   1.00
O747   O     0.54233   0.63617   0.01396   0.00000  Uiso   1.00
O748   O     0.50718   0.86361   0.29048   0.00000  Uiso   1.00
O749   O     0.57133   0.82686   0.28836   0.00000  Uiso   1.00
O750   O     0.73103   0.60313   0.07355   0.00000  Uiso   1.00
O751   O     0.80150   0.60301   0.05646   0.00000  Uiso   1.00
O752   O     0.77710   0.89662   0.26490   0.00000  Uiso   1.00
O753   O     0.70486   0.89487   0.27293   0.00000  Uiso   1.00
O754   O     0.75084   0.90243   0.06912   0.00000  Uiso   1.00
O755   O     0.95420   0.79581   0.20487   0.00000  Uiso   1.00
O756   O     0.80642   0.89892   0.02071   0.00000  Uiso   1.00
O757   O     0.75516   0.61271   0.28843   0.00000  Uiso   1.00
O758   O     0.82069   0.57867   0.28856   0.00000  Uiso   1.00
O759   O     0.54581   0.70419   0.12846   0.00000  Uiso   1.00
O760   O     0.95420   0.70419   0.12846   0.00000  Uiso   1.00
O761   O     0.54581   0.79581   0.20487   0.00000  Uiso   1.00
O762   O     0.54581   0.79581   0.12846   0.00000  Uiso   1.00
O763   O     0.95420   0.70419   0.20487   0.00000  Uiso   1.00
O764   O     0.79581   0.95419   0.20487   0.00000  Uiso   1.00
Zn765  Zn    0.50000   0.75000   0.21771   0.00000  Uiso   1.00
Zn766  Zn    0.50000   0.75000   0.11563   0.00000  Uiso   1.00
Zn767  Zn    0.75000   0.50000   0.21771   0.00000  Uiso   1.00
Zn768  Zn    0.75000   0.50000   0.11563   0.00000  Uiso   1.00
C769   C     0.06298   0.19361   0.49918   0.00000  Uiso   1.00
C770   C     0.49732   0.21000   0.63940   0.00000  Uiso   1.00
C771   C     0.00199   0.20973   0.35368   0.00000  Uiso   1.00
C772   C     0.00624   0.28938   0.64612   0.00000  Uiso   1.00
C773   C     0.25348   0.03999   0.36041   0.00000  Uiso   1.00
C774   C     0.24820   0.46004   0.63956   0.00000  Uiso   1.00
C775   C     0.25237   0.46016   0.35379   0.00000  Uiso   1.00
C776   C     0.25658   0.03938   0.64601   0.00000  Uiso   1.00
C777   C     0.40359   0.12213   0.46516   0.00000  Uiso   1.00
C778   C     0.08619   0.38638   0.52655   0.00000  Uiso   1.00
C779   C     0.12588   0.33685   0.47194   0.00000  Uiso   1.00
C780   C     0.43951   0.30930   0.50109   0.00000  Uiso   1.00
C781   C     0.36879   0.16884   0.52595   0.00000  Uiso   1.00
C782   C     0.12369   0.16115   0.53849   0.00000  Uiso   1.00
C783   C     0.37078   0.33361   0.47164   0.00000  Uiso   1.00
C784   C     0.40208   0.37446   0.53891   0.00000  Uiso   1.00
C785   C     0.11392   0.14079   0.45773   0.00000  Uiso   1.00
C786   C     0.15236   0.37312   0.46456   0.00000  Uiso   1.00
C787   C     0.33643   0.13614   0.52611   0.00000  Uiso   1.00
C788   C     0.37642   0.08611   0.47163   0.00000  Uiso   1.00
C789   C     0.11877   0.41889   0.52663   0.00000  Uiso   1.00
C790   C     0.37376   0.41034   0.53493   0.00000  Uiso   1.00
C791   C     0.43904   0.19105   0.49874   0.00000  Uiso   1.00
C792   C     0.13302   0.09873   0.46266   0.00000  Uiso   1.00
C793   C     0.15102   0.12405   0.54099   0.00000  Uiso   1.00
C794   C     0.33771   0.36524   0.47306   0.00000  Uiso   1.00
C795   C     0.09234   0.34399   0.50239   0.00000  Uiso   1.00
C796   C     0.40303   0.16065   0.49607   0.00000  Uiso   1.00
C797   C     0.40385   0.33970   0.50376   0.00000  Uiso   1.00
C798   C     0.10195   0.16673   0.49762   0.00000  Uiso   1.00
C799   C     0.34267   0.09361   0.50205   0.00000  Uiso   1.00
C800   C     0.15250   0.41123   0.49597   0.00000  Uiso   1.00
C801   C     0.15584   0.09331   0.50261   0.00000  Uiso   1.00
C802   C     0.05958   0.31025   0.50112   0.00000  Uiso   1.00
C803   C     0.34273   0.40623   0.50008   0.00000  Uiso   1.00
C804   C     0.00395   0.33412   0.38737   0.00000  Uiso   1.00
C805   C     0.49024   0.16652   0.61198   0.00000  Uiso   1.00
C806   C     0.01498   0.16615   0.37184   0.00000  Uiso   1.00
C807   C     0.02706   0.32850   0.62800   0.00000  Uiso   1.00
C808   C     0.26074   0.08342   0.38774   0.00000  Uiso   1.00
C809   C     0.24479   0.41598   0.61244   0.00000  Uiso   1.00
C810   C     0.26915   0.41897   0.37210   0.00000  Uiso   1.00
C811   C     0.27626   0.07868   0.62722   0.00000  Uiso   1.00
C812   C     0.40651   0.13981   0.38809   0.00000  Uiso   1.00
C813   C     0.31003   0.44017   0.49950   0.00000  Uiso   1.00
C814   C     0.01455   0.41303   0.51402   0.00000  Uiso   1.00
C815   C     0.16572   0.26590   0.46182   0.00000  Uiso   1.00
C816   C     0.37101   0.21432   0.59835   0.00000  Uiso   1.00
C817   C     0.13963   0.23583   0.57528   0.00000  Uiso   1.00
C818   C     0.37633   0.29611   0.39574   0.00000  Uiso   1.00
C819   C     0.40597   0.34830   0.61313   0.00000  Uiso   1.00
C820   C     0.15022   0.15946   0.38915   0.00000  Uiso   1.00
C821   C     0.15335   0.39277   0.38811   0.00000  Uiso   1.00
C822   C     0.26413   0.16242   0.51505   0.00000  Uiso   1.00
C823   C     0.41565   0.01524   0.45029   0.00000  Uiso   1.00
C824   C     0.18894   0.05909   0.50093   0.00000  Uiso   1.00
C825   C     0.12240   0.46157   0.60029   0.00000  Uiso   1.00
C826   C     0.39387   0.48868   0.55824   0.00000  Uiso   1.00
C827   C     0.12906   0.04624   0.39337   0.00000  Uiso   1.00
C828   C     0.14909   0.08794   0.61083   0.00000  Uiso   1.00
C829   C     0.26757   0.33695   0.48813   0.00000  Uiso   1.00
C830   C     0.18888   0.44122   0.49872   0.00000  Uiso   1.00
C831   C     0.30972   0.06009   0.50104   0.00000  Uiso   1.00
C832   C     0.00189   0.29000   0.36032   0.00000  Uiso   1.00
H833   H     0.04091   0.38641   0.41278   0.00000  Uiso   1.00
H834   H     0.42901   0.14220   0.36003   0.00000  Uiso   1.00
H835   H     0.39386   0.17449   0.39775   0.00000  Uiso   1.00
H836   H     0.37996   0.11702   0.37583   0.00000  Uiso   1.00
H837   H     0.04729   0.41999   0.57449   0.00000  Uiso   1.00
H838   H     0.02694   0.44293   0.49758   0.00000  Uiso   1.00
H839   H     0.48460   0.42330   0.53157   0.00000  Uiso   1.00
H840   H     0.00679   0.38504   0.48814   0.00000  Uiso   1.00
H841   H     0.12824   0.29446   0.41256   0.00000  Uiso   1.00
H842   H     0.19108   0.26247   0.43597   0.00000  Uiso   1.00
H843   H     0.15327   0.23166   0.46712   0.00000  Uiso   1.00
H844   H     0.44860   0.11674   0.59092   0.00000  Uiso   1.00
H845   H     0.18015   0.28015   0.49412   0.00000  Uiso   1.00
H846   H     0.37483   0.24016   0.53521   0.00000  Uiso   1.00
H847   H     0.40336   0.22843   0.60662   0.00000  Uiso   1.00
H848   H     0.36849   0.18022   0.61159   0.00000  Uiso   1.00
H849   H     0.34688   0.23713   0.61541   0.00000  Uiso   1.00
H850   H     0.11929   0.17985   0.60786   0.00000  Uiso   1.00
H851   H     0.13354   0.25757   0.60666   0.00000  Uiso   1.00
H852   H     0.12738   0.25408   0.54670   0.00000  Uiso   1.00
H853   H     0.17471   0.23029   0.57200   0.00000  Uiso   1.00
H854   H     0.37744   0.26286   0.45555   0.00000  Uiso   1.00
H855   H     0.04711   0.10675   0.36214   0.00000  Uiso   1.00
H856   H     0.40573   0.27647   0.38637   0.00000  Uiso   1.00
H857   H     0.38116   0.33208   0.38794   0.00000  Uiso   1.00
H858   H     0.34924   0.28150   0.37500   0.00000  Uiso   1.00
H859   H     0.44034   0.40271   0.59124   0.00000  Uiso   1.00
H860   H     0.42744   0.34655   0.64275   0.00000  Uiso   1.00
H861   H     0.39764   0.31299   0.60017   0.00000  Uiso   1.00
H862   H     0.37616   0.36622   0.62422   0.00000  Uiso   1.00
H863   H     0.09631   0.18911   0.41264   0.00000  Uiso   1.00
H864   H     0.14512   0.17848   0.35882   0.00000  Uiso   1.00
H865   H     0.16090   0.12514   0.37724   0.00000  Uiso   1.00
H866   H     0.08368   0.35711   0.61431   0.00000  Uiso   1.00
H867   H     0.17589   0.17675   0.41010   0.00000  Uiso   1.00
H868   H     0.18942   0.34172   0.41364   0.00000  Uiso   1.00
H869   H     0.17461   0.39405   0.35873   0.00000  Uiso   1.00
H870   H     0.14313   0.42812   0.39880   0.00000  Uiso   1.00
H871   H     0.12484   0.37191   0.37755   0.00000  Uiso   1.00
H872   H     0.29787   0.16921   0.57480   0.00000  Uiso   1.00
H873   H     0.23382   0.17023   0.53312   0.00000  Uiso   1.00
H874   H     0.25754   0.13528   0.48798   0.00000  Uiso   1.00
H875   H     0.27513   0.19375   0.50006   0.00000  Uiso   1.00
H876   H     0.37088   0.04707   0.41038   0.00000  Uiso   1.00
H877   H     0.30250   0.13292   0.40914   0.00000  Uiso   1.00
H878   H     0.43606   0.01276   0.41996   0.00000  Uiso   1.00
H879   H     0.40411   0.48041   0.45560   0.00000  Uiso   1.00
H880   H     0.43554   0.02808   0.47971   0.00000  Uiso   1.00
H881   H     0.12564   0.48988   0.53806   0.00000  Uiso   1.00
H882   H     0.15445   0.47635   0.60883   0.00000  Uiso   1.00
H883   H     0.12113   0.42668   0.61195   0.00000  Uiso   1.00
H884   H     0.09785   0.48279   0.61862   0.00000  Uiso   1.00
H885   H     0.37785   0.43957   0.60154   0.00000  Uiso   1.00
H886   H     0.39195   0.01463   0.58724   0.00000  Uiso   1.00
H887   H     0.37752   0.00277   0.52941   0.00000  Uiso   1.00
H888   H     0.20654   0.36451   0.58779   0.00000  Uiso   1.00
H889   H     0.42810   0.48180   0.55054   0.00000  Uiso   1.00
H890   H     0.08292   0.05595   0.44235   0.00000  Uiso   1.00
H891   H     0.11992   0.01026   0.38401   0.00000  Uiso   1.00
H892   H     0.16420   0.04884   0.39008   0.00000  Uiso   1.00
H893   H     0.11256   0.06768   0.36966   0.00000  Uiso   1.00
H894   H     0.18409   0.14594   0.59940   0.00000  Uiso   1.00
H895   H     0.17038   0.07852   0.63857   0.00000  Uiso   1.00
H896   H     0.13834   0.05621   0.59156   0.00000  Uiso   1.00
H897   H     0.12057   0.10587   0.62536   0.00000  Uiso   1.00
H898   H     0.29739   0.32940   0.42697   0.00000  Uiso   1.00
H899   H     0.31421   0.36948   0.36742   0.00000  Uiso   1.00
H900   H     0.23701   0.32642   0.47157   0.00000  Uiso   1.00
H901   H     0.26060   0.36494   0.51405   0.00000  Uiso   1.00
H902   H     0.28118   0.30728   0.50429   0.00000  Uiso   1.00
H903   H     0.33231   0.10937   0.61494   0.00000  Uiso   1.00
H904   H     0.44382   0.09120   0.41677   0.00000  Uiso   1.00
N905   N     0.00000   0.25000   0.61907   0.00000  Uiso   1.00
N906   N     0.36712   0.29261   0.44282   0.00000  Uiso   1.00
N907   N     0.42716   0.37211   0.57880   0.00000  Uiso   1.00
N908   N     0.11068   0.15797   0.41403   0.00000  Uiso   1.00
N909   N     0.17609   0.37270   0.42422   0.00000  Uiso   1.00
N910   N     0.29610   0.14745   0.54610   0.00000  Uiso   1.00
N911   N     0.37911   0.04449   0.44360   0.00000  Uiso   1.00
N912   N     0.11428   0.46156   0.55241   0.00000  Uiso   1.00
N913   N     0.37259   0.44745   0.56896   0.00000  Uiso   1.00
N914   N     0.11565   0.05868   0.43887   0.00000  Uiso   1.00
N915   N     0.17228   0.11676   0.58223   0.00000  Uiso   1.00
N916   N     0.00000   0.25000   0.38093   0.00000  Uiso   1.00
N917   N     0.29676   0.35207   0.45503   0.00000  Uiso   1.00
N918   N     0.25000   0.00000   0.61907   0.00000  Uiso   1.00
N919   N     0.25000   0.00000   0.38093   0.00000  Uiso   1.00
N920   N     0.42850   0.12149   0.42566   0.00000  Uiso   1.00
N921   N     0.04570   0.39801   0.54593   0.00000  Uiso   1.00
N922   N     0.13098   0.29390   0.44695   0.00000  Uiso   1.00
N923   N     0.36347   0.21227   0.55028   0.00000  Uiso   1.00
N924   N     0.11769   0.19274   0.57685   0.00000  Uiso   1.00
O925   O     0.04581   0.20419   0.53821   0.00000  Uiso   1.00
O926   O     0.20420   0.04581   0.46179   0.00000  Uiso   1.00
O927   O     0.20420   0.04581   0.53821   0.00000  Uiso   1.00
O928   O     0.29581   0.45419   0.46179   0.00000  Uiso   1.00
O929   O     0.20420   0.45419   0.46179   0.00000  Uiso   1.00
O930   O     0.29581   0.04581   0.53821   0.00000  Uiso   1.00
O931   O     0.29581   0.04581   0.46179   0.00000  Uiso   1.00
O932   O     0.20420   0.45419   0.53821   0.00000  Uiso   1.00
O933   O     0.47090   0.35348   0.39937   0.00000  Uiso   1.00
O934   O     0.04355   0.35545   0.39558   0.00000  Uiso   1.00
O935   O     0.02018   0.14678   0.59298   0.00000  Uiso   1.00
O936   O     0.45420   0.29581   0.46179   0.00000  Uiso   1.00
O937   O     0.44958   0.14666   0.61024   0.00000  Uiso   1.00
O938   O     0.00216   0.15587   0.40781   0.00000  Uiso   1.00
O939   O     0.04233   0.13617   0.34730   0.00000  Uiso   1.00
O940   O     0.00718   0.36361   0.62381   0.00000  Uiso   1.00
O941   O     0.07133   0.32686   0.62170   0.00000  Uiso   1.00
O942   O     0.23103   0.10313   0.40688   0.00000  Uiso   1.00
O943   O     0.30150   0.10301   0.38979   0.00000  Uiso   1.00
O944   O     0.27710   0.39662   0.59823   0.00000  Uiso   1.00
O945   O     0.20486   0.39487   0.60627   0.00000  Uiso   1.00
O946   O     0.25084   0.40243   0.40245   0.00000  Uiso   1.00
O947   O     0.45420   0.29581   0.53821   0.00000  Uiso   1.00
O948   O     0.30642   0.39892   0.35404   0.00000  Uiso   1.00
O949   O     0.25516   0.11271   0.62177   0.00000  Uiso   1.00
O950   O     0.32069   0.07867   0.62190   0.00000  Uiso   1.00
O951   O     0.04581   0.20419   0.46179   0.00000  Uiso   1.00
O952   O     0.45420   0.20419   0.46179   0.00000  Uiso   1.00
O953   O     0.04581   0.29581   0.53821   0.00000  Uiso   1.00
O954   O     0.04581   0.29581   0.46179   0.00000  Uiso   1.00
O955   O     0.45420   0.20419   0.53821   0.00000  Uiso   1.00
O956   O     0.29581   0.45419   0.53821   0.00000  Uiso   1.00
Zn957  Zn    0.00000   0.25000   0.55104   0.00000  Uiso   1.00
Zn958  Zn    0.00000   0.25000   0.44896   0.00000  Uiso   1.00
Zn959  Zn    0.25000   0.00000   0.55104   0.00000  Uiso   1.00
Zn960  Zn    0.25000  -0.00000   0.44896   0.00000  Uiso   1.00
C961   C     0.56298   0.19361   0.49918   0.00000  Uiso   1.00
C962   C     0.99732   0.21000   0.63940   0.00000  Uiso   1.00
C963   C     0.50199   0.20973   0.35368   0.00000  Uiso   1.00
C964   C     0.50624   0.28938   0.64612   0.00000  Uiso   1.00
C965   C     0.75348   0.03999   0.36041   0.00000  Uiso   1.00
C966   C     0.74820   0.46004   0.63956   0.00000  Uiso   1.00
C967   C     0.75237   0.46016   0.35379   0.00000  Uiso   1.00
C968   C     0.75658   0.03938   0.64601   0.00000  Uiso   1.00
C969   C     0.90359   0.12213   0.46516   0.00000  Uiso   1.00
C970   C     0.58619   0.38638   0.52655   0.00000  Uiso   1.00
C971   C     0.62588   0.33685   0.47194   0.00000  Uiso   1.00
C972   C     0.93951   0.30930   0.50109   0.00000  Uiso   1.00
C973   C     0.86879   0.16884   0.52595   0.00000  Uiso   1.00
C974   C     0.62369   0.16115   0.53849   0.00000  Uiso   1.00
C975   C     0.87078   0.33361   0.47164   0.00000  Uiso   1.00
C976   C     0.90208   0.37446   0.53891   0.00000  Uiso   1.00
C977   C     0.61392   0.14079   0.45773   0.00000  Uiso   1.00
C978   C     0.65236   0.37312   0.46456   0.00000  Uiso   1.00
C979   C     0.83643   0.13614   0.52611   0.00000  Uiso   1.00
C980   C     0.87642   0.08611   0.47163   0.00000  Uiso   1.00
C981   C     0.61877   0.41889   0.52663   0.00000  Uiso   1.00
C982   C     0.87376   0.41034   0.53493   0.00000  Uiso   1.00
C983   C     0.93904   0.19105   0.49874   0.00000  Uiso   1.00
C984   C     0.63302   0.09873   0.46266   0.00000  Uiso   1.00
C985   C     0.65102   0.12405   0.54099   0.00000  Uiso   1.00
C986   C     0.83771   0.36524   0.47306   0.00000  Uiso   1.00
C987   C     0.59234   0.34399   0.50239   0.00000  Uiso   1.00
C988   C     0.90303   0.16065   0.49607   0.00000  Uiso   1.00
C989   C     0.90385   0.33970   0.50376   0.00000  Uiso   1.00
C990   C     0.60195   0.16673   0.49762   0.00000  Uiso   1.00
C991   C     0.84267   0.09361   0.50205   0.00000  Uiso   1.00
C992   C     0.65250   0.41123   0.49597   0.00000  Uiso   1.00
C993   C     0.65584   0.09331   0.50261   0.00000  Uiso   1.00
C994   C     0.55958   0.31025   0.50112   0.00000  Uiso   1.00
C995   C     0.84273   0.40623   0.50008   0.00000  Uiso   1.00
C996   C     0.50395   0.33412   0.38737   0.00000  Uiso   1.00
C997   C     0.99024   0.16652   0.61198   0.00000  Uiso   1.00
C998   C     0.51498   0.16615   0.37184   0.00000  Uiso   1.00
C999   C     0.52706   0.32850   0.62800   0.00000  Uiso   1.00
C1000  C     0.76074   0.08342   0.38774   0.00000  Uiso   1.00
C1001  C     0.74479   0.41598   0.61244   0.00000  Uiso   1.00
C1002  C     0.76915   0.41897   0.37210   0.00000  Uiso   1.00
C1003  C     0.77626   0.07868   0.62722   0.00000  Uiso   1.00
C1004  C     0.90651   0.13981   0.38809   0.00000  Uiso   1.00
C1005  C     0.81003   0.44017   0.49950   0.00000  Uiso   1.00
C1006  C     0.51455   0.41303   0.51402   0.00000  Uiso   1.00
C1007  C     0.66572   0.26590   0.46182   0.00000  Uiso   1.00
C1008  C     0.87101   0.21432   0.59835   0.00000  Uiso   1.00
C1009  C     0.63963   0.23583   0.57528   0.00000  Uiso   1.00
C1010  C     0.87633   0.29611   0.39574   0.00000  Uiso   1.00
C1011  C     0.90597   0.34830   0.61313   0.00000  Uiso   1.00
C1012  C     0.65022   0.15946   0.38915   0.00000  Uiso   1.00
C1013  C     0.65335   0.39277   0.38811   0.00000  Uiso   1.00
C1014  C     0.76413   0.16242   0.51505   0.00000  Uiso   1.00
C1015  C     0.91565   0.01524   0.45029   0.00000  Uiso   1.00
C1016  C     0.68894   0.05909   0.50093   0.00000  Uiso   1.00
C1017  C     0.62240   0.46157   0.60029   0.00000  Uiso   1.00
C1018  C     0.89387   0.48868   0.55824   0.00000  Uiso   1.00
C1019  C     0.62906   0.04624   0.39337   0.00000  Uiso   1.00
C1020  C     0.64909   0.08794   0.61083   0.00000  Uiso   1.00
C1021  C     0.76757   0.33695   0.48813   0.00000  Uiso   1.00
C1022  C     0.68888   0.44122   0.49872   0.00000  Uiso   1.00
C1023  C     0.80972   0.06009   0.50104   0.00000  Uiso   1.00
C1024  C     0.50189   0.29000   0.36032   0.00000  Uiso   1.00
H1025  H     0.54091   0.38641   0.41278   0.00000  Uiso   1.00
H1026  H     0.92901   0.14220   0.36003   0.00000  Uiso   1.00
H1027  H     0.89386   0.17449   0.39775   0.00000  Uiso   1.00
H1028  H     0.87996   0.11702   0.37583   0.00000  Uiso   1.00
H1029  H     0.54729   0.41999   0.57449   0.00000  Uiso   1.00
H1030  H     0.52694   0.44293   0.49758   0.00000  Uiso   1.00
H1031  H     0.98460   0.42330   0.53157   0.00000  Uiso   1.00
H1032  H     0.50679   0.38504   0.48814   0.00000  Uiso   1.00
H1033  H     0.62824   0.29446   0.41256   0.00000  Uiso   1.00
H1034  H     0.69108   0.26247   0.43597   0.00000  Uiso   1.00
H1035  H     0.65327   0.23166   0.46712   0.00000  Uiso   1.00
H1036  H     0.94860   0.11674   0.59092   0.00000  Uiso   1.00
H1037  H     0.68015   0.28015   0.49412   0.00000  Uiso   1.00
H1038  H     0.87483   0.24016   0.53521   0.00000  Uiso   1.00
H1039  H     0.90336   0.22843   0.60662   0.00000  Uiso   1.00
H1040  H     0.86849   0.18022   0.61159   0.00000  Uiso   1.00
H1041  H     0.84688   0.23713   0.61541   0.00000  Uiso   1.00
H1042  H     0.61929   0.17985   0.60786   0.00000  Uiso   1.00
H1043  H     0.63354   0.25757   0.60666   0.00000  Uiso   1.00
H1044  H     0.62738   0.25408   0.54670   0.00000  Uiso   1.00
H1045  H     0.67471   0.23029   0.57200   0.00000  Uiso   1.00
H1046  H     0.87744   0.26286   0.45555   0.00000  Uiso   1.00
H1047  H     0.54711   0.10675   0.36214   0.00000  Uiso   1.00
H1048  H     0.90573   0.27647   0.38637   0.00000  Uiso   1.00
H1049  H     0.88116   0.33208   0.38794   0.00000  Uiso   1.00
H1050  H     0.84924   0.28150   0.37500   0.00000  Uiso   1.00
H1051  H     0.94034   0.40271   0.59124   0.00000  Uiso   1.00
H1052  H     0.92744   0.34655   0.64275   0.00000  Uiso   1.00
H1053  H     0.89764   0.31299   0.60017   0.00000  Uiso   1.00
H1054  H     0.87616   0.36622   0.62422   0.00000  Uiso   1.00
H1055  H     0.59631   0.18911   0.41264   0.00000  Uiso   1.00
H1056  H     0.64512   0.17848   0.35882   0.00000  Uiso   1.00
H1057  H     0.66090   0.12514   0.37724   0.00000  Uiso   1.00
H1058  H     0.58368   0.35711   0.61431   0.00000  Uiso   1.00
H1059  H     0.67589   0.17675   0.41010   0.00000  Uiso   1.00
H1060  H     0.68942   0.34172   0.41364   0.00000  Uiso   1.00
H1061  H     0.67461   0.39405   0.35873   0.00000  Uiso   1.00
H1062  H     0.64313   0.42812   0.39880   0.00000  Uiso   1.00
H1063  H     0.62484   0.37191   0.37755   0.00000  Uiso   1.00
H1064  H     0.79787   0.16921   0.57480   0.00000  Uiso   1.00
H1065  H     0.73382   0.17023   0.53312   0.00000  Uiso   1.00
H1066  H     0.75754   0.13528   0.48798   0.00000  Uiso   1.00
H1067  H     0.77513   0.19375   0.50006   0.00000  Uiso   1.00
H1068  H     0.87088   0.04707   0.41038   0.00000  Uiso   1.00
H1069  H     0.80250   0.13292   0.40914   0.00000  Uiso   1.00
H1070  H     0.93606   0.01276   0.41996   0.00000  Uiso   1.00
H1071  H     0.90411   0.48041   0.45560   0.00000  Uiso   1.00
H1072  H     0.93554   0.02808   0.47971   0.00000  Uiso   1.00
H1073  H     0.62564   0.48988   0.53806   0.00000  Uiso   1.00
H1074  H     0.65445   0.47635   0.60883   0.00000  Uiso   1.00
H1075  H     0.62113   0.42668   0.61195   0.00000  Uiso   1.00
H1076  H     0.59785   0.48279   0.61862   0.00000  Uiso   1.00
H1077  H     0.87785   0.43957   0.60154   0.00000  Uiso   1.00
H1078  H     0.89195   0.01463   0.58724   0.00000  Uiso   1.00
H1079  H     0.87752   0.00277   0.52941   0.00000  Uiso   1.00
H1080  H     0.70654   0.36451   0.58779   0.00000  Uiso   1.00
H1081  H     0.92810   0.48180   0.55054   0.00000  Uiso   1.00
H1082  H     0.58292   0.05595   0.44235   0.00000  Uiso   1.00
H1083  H     0.61992   0.01026   0.38401   0.00000  Uiso   1.00
H1084  H     0.66420   0.04884   0.39008   0.00000  Uiso   1.00
H1085  H     0.61256   0.06768   0.36966   0.00000  Uiso   1.00
H1086  H     0.68409   0.14594   0.59940   0.00000  Uiso   1.00
H1087  H     0.67038   0.07852   0.63857   0.00000  Uiso   1.00
H1088  H     0.63834   0.05621   0.59156   0.00000  Uiso   1.00
H1089  H     0.62057   0.10587   0.62536   0.00000  Uiso   1.00
H1090  H     0.79739   0.32940   0.42697   0.00000  Uiso   1.00
H1091  H     0.81421   0.36948   0.36742   0.00000  Uiso   1.00
H1092  H     0.73701   0.32642   0.47157   0.00000  Uiso   1.00
H1093  H     0.76060   0.36494   0.51405   0.00000  Uiso   1.00
H1094  H     0.78118   0.30728   0.50429   0.00000  Uiso   1.00
H1095  H     0.83231   0.10937   0.61494   0.00000  Uiso   1.00
H1096  H     0.94382   0.09120   0.41677   0.00000  Uiso   1.00
N1097  N     0.50000   0.25000   0.61907   0.00000  Uiso   1.00
N1098  N     0.86712   0.29261   0.44282   0.00000  Uiso   1.00
N1099  N     0.92716   0.37211   0.57880   0.00000  Uiso   1.00
N1100  N     0.61068   0.15797   0.41403   0.00000  Uiso   1.00
N1101  N     0.67609   0.37270   0.42422   0.00000  Uiso   1.00
N1102  N     0.79610   0.14745   0.54610   0.00000  Uiso   1.00
N1103  N     0.87911   0.04449   0.44360   0.00000  Uiso   1.00
N1104  N     0.61428   0.46156   0.55241   0.00000  Uiso   1.00
N1105  N     0.87259   0.44745   0.56896   0.00000  Uiso   1.00
N1106  N     0.61565   0.05868   0.43887   0.00000  Uiso   1.00
N1107  N     0.67228   0.11676   0.58223   0.00000  Uiso   1.00
N1108  N     0.50000   0.25000   0.38093   0.00000  Uiso   1.00
N1109  N     0.79676   0.35207   0.45503   0.00000  Uiso   1.00
N1110  N     0.75000   0.00000   0.61907   0.00000  Uiso   1.00
N1111  N     0.75000   0.00000   0.38093   0.00000  Uiso   1.00
N1112  N     0.92850   0.12149   0.42566   0.00000  Uiso   1.00
N1113  N     0.54570   0.39801   0.54593   0.00000  Uiso   1.00
N1114  N     0.63098   0.29390   0.44695   0.00000  Uiso   1.00
N1115  N     0.86347   0.21227   0.55028   0.00000  Uiso   1.00
N1116  N     0.61769   0.19274   0.57685   0.00000  Uiso   1.00
O1117  O     0.54581   0.20419   0.53821   0.00000  Uiso   1.00
O1118  O     0.70420   0.04581   0.46179   0.00000  Uiso   1.00
O1119  O     0.70420   0.04581   0.53821   0.00000  Uiso   1.00
O1120  O     0.79581   0.45419   0.46179   0.00000  Uiso   1.00
O1121  O     0.70420   0.45419   0.46179   0.00000  Uiso   1.00
O1122  O     0.79581   0.04581   0.53821   0.00000  Uiso   1.00
O1123  O     0.79581   0.04581   0.46179   0.00000  Uiso   1.00
O1124  O     0.70420   0.45419   0.53821   0.00000  Uiso   1.00
O1125  O     0.97090   0.35348   0.39937   0.00000  Uiso   1.00
O1126  O     0.54355   0.35545   0.39558   0.00000  Uiso   1.00
O1127  O     0.52018   0.14678   0.59298   0.00000  Uiso   1.00
O1128  O     0.95420   0.29581   0.46179   0.00000  Uiso   1.00
O1129  O     0.94958   0.14666   0.61024   0.00000  Uiso   1.00
O1130  O     0.50216   0.15587   0.40781   0.00000  Uiso   1.00
O1131  O     0.54233   0.13617   0.34730   0.00000  Uiso   1.00
O1132  O     0.50718   0.36361   0.62381   0.00000  Uiso   1.00
O1133  O     0.57133   0.32686   0.62170   0.00000  Uiso   1.00
O1134  O     0.73103   0.10313   0.40688   0.00000  Uiso   1.00
O1135  O     0.80150   0.10301   0.38979   0.00000  Uiso   1.00
O1136  O     0.77710   0.39662   0.59823   0.00000  Uiso   1.00
O1137  O     0.70486   0.39487   0.60627   0.00000  Uiso   1.00
O1138  O     0.75084   0.40243   0.40245   0.00000  Uiso   1.00
O1139  O     0.95420   0.29581   0.53821   0.00000  Uiso   1.00
O1140  O     0.80642   0.39892   0.35404   0.00000  Uiso   1.00
O1141  O     0.75516   0.11271   0.62177   0.00000  Uiso   1.00
O1142  O     0.82069   0.07867   0.62190   0.00000  Uiso   1.00
O1143  O     0.54581   0.20419   0.46179   0.00000  Uiso   1.00
O1144  O     0.95420   0.20419   0.46179   0.00000  Uiso   1.00
O1145  O     0.54581   0.29581   0.53821   0.00000  Uiso   1.00
O1146  O     0.54581   0.29581   0.46179   0.00000  Uiso   1.00
O1147  O     0.95420   0.20419   0.53821   0.00000  Uiso   1.00
O1148  O     0.79581   0.45419   0.53821   0.00000  Uiso   1.00
Zn1149 Zn    0.50000   0.25000   0.55104   0.00000  Uiso   1.00
Zn1150 Zn    0.50000   0.25000   0.44896   0.00000  Uiso   1.00
Zn1151 Zn    0.75000   0.00000   0.55104   0.00000  Uiso   1.00
Zn1152 Zn    0.75000  -0.00000   0.44896   0.00000  Uiso   1.00
C1153  C     0.06298   0.69361   0.49918   0.00000  Uiso   1.00
C1154  C     0.49732   0.71000   0.63940   0.00000  Uiso   1.00
C1155  C     0.00199   0.70973   0.35368   0.00000  Uiso   1.00
C1156  C     0.00624   0.78938   0.64612   0.00000  Uiso   1.00
C1157  C     0.25348   0.53999   0.36041   0.00000  Uiso   1.00
C1158  C     0.24820   0.96004   0.63956   0.00000  Uiso   1.00
C1159  C     0.25237   0.96016   0.35379   0.00000  Uiso   1.00
C1160  C     0.25658   0.53938   0.64601   0.00000  Uiso   1.00
C1161  C     0.40359   0.62213   0.46516   0.00000  Uiso   1.00
C1162  C     0.08619   0.88638   0.52655   0.00000  Uiso   1.00
C1163  C     0.12588   0.83685   0.47194   0.00000  Uiso   1.00
C1164  C     0.43951   0.80930   0.50109   0.00000  Uiso   1.00
C1165  C     0.36879   0.66884   0.52595   0.00000  Uiso   1.00
C1166  C     0.12369   0.66115   0.53849   0.00000  Uiso   1.00
C1167  C     0.37078   0.83361   0.47164   0.00000  Uiso   1.00
C1168  C     0.40208   0.87446   0.53891   0.00000  Uiso   1.00
C1169  C     0.11392   0.64079   0.45773   0.00000  Uiso   1.00
C1170  C     0.15236   0.87312   0.46456   0.00000  Uiso   1.00
C1171  C     0.33643   0.63614   0.52611   0.00000  Uiso   1.00
C1172  C     0.37642   0.58611   0.47163   0.00000  Uiso   1.00
C1173  C     0.11877   0.91889   0.52663   0.00000  Uiso   1.00
C1174  C     0.37376   0.91034   0.53493   0.00000  Uiso   1.00
C1175  C     0.43904   0.69105   0.49874   0.00000  Uiso   1.00
C1176  C     0.13302   0.59873   0.46266   0.00000  Uiso   1.00
C1177  C     0.15102   0.62405   0.54099   0.00000  Uiso   1.00
C1178  C     0.33771   0.86524   0.47306   0.00000  Uiso   1.00
C1179  C     0.09234   0.84399   0.50239   0.00000  Uiso   1.00
C1180  C     0.40303   0.66065   0.49607   0.00000  Uiso   1.00
C1181  C     0.40385   0.83970   0.50376   0.00000  Uiso   1.00
C1182  C     0.10195   0.66673   0.49762   0.00000  Uiso   1.00
C1183  C     0.34267   0.59361   0.50205   0.00000  Uiso   1.00
C1184  C     0.15250   0.91123   0.49597   0.00000  Uiso   1.00
C1185  C     0.15584   0.59331   0.50261   0.00000  Uiso   1.00
C1186  C     0.05958   0.81025   0.50112   0.00000  Uiso   1.00
C1187  C     0.34273   0.90623   0.50008   0.00000  Uiso   1.00
C1188  C     0.00395   0.83412   0.38737   0.00000  Uiso   1.00
C1189  C     0.49024   0.66652   0.61198   0.00000  Uiso   1.00
C1190  C     0.01498   0.66615   0.37184   0.00000  Uiso   1.00
C1191  C     0.02706   0.82850   0.62800   0.00000  Uiso   1.00
C1192  C     0.26074   0.58342   0.38774   0.00000  Uiso   1.00
C1193  C     0.24479   0.91598   0.61244   0.00000  Uiso   1.00
C1194  C     0.26915   0.91897   0.37210   0.00000  Uiso   1.00
C1195  C     0.27626   0.57868   0.62722   0.00000  Uiso   1.00
C1196  C     0.40651   0.63981   0.38809   0.00000  Uiso   1.00
C1197  C     0.31003   0.94017   0.49950   0.00000  Uiso   1.00
C1198  C     0.01455   0.91303   0.51402   0.00000  Uiso   1.00
C1199  C     0.16572   0.76590   0.46182   0.00000  Uiso   1.00
C1200  C     0.37101   0.71432   0.59835   0.00000  Uiso   1.00
C1201  C     0.13963   0.73583   0.57528   0.00000  Uiso   1.00
C1202  C     0.37633   0.79611   0.39574   0.00000  Uiso   1.00
C1203  C     0.40597   0.84830   0.61313   0.00000  Uiso   1.00
C1204  C     0.15022   0.65946   0.38915   0.00000  Uiso   1.00
C1205  C     0.15335   0.89277   0.38811   0.00000  Uiso   1.00
C1206  C     0.26413   0.66242   0.51505   0.00000  Uiso   1.00
C1207  C     0.41565   0.51524   0.45029   0.00000  Uiso   1.00
C1208  C     0.18894   0.55909   0.50093   0.00000  Uiso   1.00
C1209  C     0.12240   0.96157   0.60029   0.00000  Uiso   1.00
C1210  C     0.39387   0.98868   0.55824   0.00000  Uiso   1.00
C1211  C     0.12906   0.54624   0.39337   0.00000  Uiso   1.00
C1212  C     0.14909   0.58794   0.61083   0.00000  Uiso   1.00
C1213  C     0.26757   0.83695   0.48813   0.00000  Uiso   1.00
C1214  C     0.18888   0.94122   0.49872   0.00000  Uiso   1.00
C1215  C     0.30972   0.56009   0.50104   0.00000  Uiso   1.00
C1216  C     0.00189   0.79000   0.36032   0.00000  Uiso   1.00
H1217  H     0.04091   0.88641   0.41278   0.00000  Uiso   1.00
H1218  H     0.42901   0.64220   0.36003   0.00000  Uiso   1.00
H1219  H     0.39386   0.67449   0.39775   0.00000  Uiso   1.00
H1220  H     0.37996   0.61702   0.37583   0.00000  Uiso   1.00
H1221  H     0.04729   0.91999   0.57449   0.00000  Uiso   1.00
H1222  H     0.02694   0.94293   0.49758   0.00000  Uiso   1.00
H1223  H     0.48460   0.92330   0.53157   0.00000  Uiso   1.00
H1224  H     0.00679   0.88504   0.48814   0.00000  Uiso   1.00
H1225  H     0.12824   0.79446   0.41256   0.00000  Uiso   1.00
H1226  H     0.19108   0.76247   0.43597   0.00000  Uiso   1.00
H1227  H     0.15327   0.73166   0.46712   0.00000  Uiso   1.00
H1228  H     0.44860   0.61674   0.59092   0.00000  Uiso   1.00
H1229  H     0.18015   0.78015   0.49412   0.00000  Uiso   1.00
H1230  H     0.37483   0.74016   0.53521   0.00000  Uiso   1.00
H1231  H     0.40336   0.72843   0.60662   0.00000  Uiso   1.00
H1232  H     0.36849   0.68022   0.61159   0.00000  Uiso   1.00
H1233  H     0.34688   0.73713   0.61541   0.00000  Uiso   1.00
H1234  H     0.11929   0.67985   0.60786   0.00000  Uiso   1.00
H1235  H     0.13354   0.75757   0.60666   0.00000  Uiso   1.00
H1236  H     0.12738   0.75408   0.54670   0.00000  Uiso   1.00
H1237  H     0.17471   0.73029   0.57200   0.00000  Uiso   1.00
H1238  H     0.37744   0.76286   0.45555   0.00000  Uiso   1.00
H1239  H     0.04711   0.60675   0.36214   0.00000  Uiso   1.00
H1240  H     0.40573   0.77647   0.38637   0.00000  Uiso   1.00
H1241  H     0.38116   0.83208   0.38794   0.00000  Uiso   1.00
H1242  H     0.34924   0.78150   0.37500   0.00000  Uiso   1.00
H1243  H     0.44034   0.90271   0.59124   0.00000  Uiso   1.00
H1244  H     0.42744   0.84655   0.64275   0.00000  Uiso   1.00
H1245  H     0.39764   0.81299   0.60017   0.00000  Uiso   1.00
H1246  H     0.37616   0.86622   0.62422   0.00000  Uiso   1.00
H1247  H     0.09631   0.68911   0.41264   0.00000  Uiso   1.00
H1248  H     0.14512   0.67848   0.35882   0.00000  Uiso   1.00
H1249  H     0.16090   0.62514   0.37724   0.00000  Uiso   1.00
H1250  H     0.08368   0.85711   0.61431   0.00000  Uiso   1.00
H1251  H     0.17589   0.67675   0.41010   0.00000  Uiso   1.00
H1252  H     0.18942   0.84172   0.41364   0.00000  Uiso   1.00
H1253  H     0.17461   0.89405   0.35873   0.00000  Uiso   1.00
H1254  H     0.14313   0.92812   0.39880   0.00000  Uiso   1.00
H1255  H     0.12484   0.87191   0.37755   0.00000  Uiso   1.00
H1256  H     0.29787   0.66921   0.57480   0.00000  Uiso   1.00
H1257  H     0.23382   0.67023   0.53312   0.00000  Uiso   1.00
H1258  H     0.25754   0.63528   0.48798   0.00000  Uiso   1.00
H1259  H     0.27513   0.69375   0.50006   0.00000  Uiso   1.00
H1260  H     0.37088   0.54707   0.41038   0.00000  Uiso   1.00
H1261  H     0.30250   0.63292   0.40914   0.00000  Uiso   1.00
H1262  H     0.43606   0.51276   0.41996   0.00000  Uiso   1.00
H1263  H     0.40411   0.98041   0.45560   0.00000  Uiso   1.00
H1264  H     0.43554   0.52808   0.47971   0.00000  Uiso   1.00
H1265  H     0.12564   0.98988   0.53806   0.00000  Uiso   1.00
H1266  H     0.15445   0.97635   0.60883   0.00000  Uiso   1.00
H1267  H     0.12113   0.92668   0.61195   0.00000  Uiso   1.00
H1268  H     0.09785   0.98279   0.61862   0.00000  Uiso   1.00
H1269  H     0.37785   0.93957   0.60154   0.00000  Uiso   1.00
H1270  H     0.39195   0.51463   0.58724   0.00000  Uiso   1.00
H1271  H     0.37752   0.50277   0.52941   0.00000  Uiso   1.00
H1272  H     0.20654   0.86451   0.58779   0.00000  Uiso   1.00
H1273  H     0.42810   0.98180   0.55054   0.00000  Uiso   1.00
H1274  H     0.08292   0.55595   0.44235   0.00000  Uiso   1.00
H1275  H     0.11992   0.51026   0.38401   0.00000  Uiso   1.00
H1276  H     0.16420   0.54884   0.39008   0.00000  Uiso   1.00
H1277  H     0.11256   0.56768   0.36966   0.00000  Uiso   1.00
H1278  H     0.18409   0.64594   0.59940   0.00000  Uiso   1.00
H1279  H     0.17038   0.57852   0.63857   0.00000  Uiso   1.00
H1280  H     0.13834   0.55621   0.59156   0.00000  Uiso   1.00
H1281  H     0.12057   0.60587   0.62536   0.00000  Uiso   1.00
H1282  H     0.29739   0.82940   0.42697   0.00000  Uiso   1.00
H1283  H     0.31421   0.86948   0.36742   0.00000  Uiso   1.00
H1284  H     0.23701   0.82642   0.47157   0.00000  Uiso   1.00
H1285  H     0.26060   0.86494   0.51405   0.00000  Uiso   1.00
H1286  H     0.28118   0.80728   0.50429   0.00000  Uiso   1.00
H1287  H     0.33231   0.60937   0.61494   0.00000  Uiso   1.00
H1288  H     0.44382   0.59120   0.41677   0.00000  Uiso   1.00
N1289  N     0.00000   0.75000   0.61907   0.00000  Uiso   1.00
N1290  N     0.36712   0.79261   0.44282   0.00000  Uiso   1.00
N1291  N     0.42716   0.87211   0.57880   0.00000  Uiso   1.00
N1292  N     0.11068   0.65797   0.41403   0.00000  Uiso   1.00
N1293  N     0.17609   0.87270   0.42422   0.00000  Uiso   1.00
N1294  N     0.29610   0.64745   0.54610   0.00000  Uiso   1.00
N1295  N     0.37911   0.54449   0.44360   0.00000  Uiso   1.00
N1296  N     0.11428   0.96156   0.55241   0.00000  Uiso   1.00
N1297  N     0.37259   0.94745   0.56896   0.00000  Uiso   1.00
N1298  N     0.11565   0.55868   0.43887   0.00000  Uiso   1.00
N1299  N     0.17228   0.61676   0.58223   0.00000  Uiso   1.00
N1300  N     0.00000   0.75000   0.38093   0.00000  Uiso   1.00
N1301  N     0.29676   0.85207   0.45503   0.00000  Uiso   1.00
N1302  N     0.25000   0.50000   0.61907   0.00000  Uiso   1.00
N1303  N     0.25000   0.50000   0.38093   0.00000  Uiso   1.00
N1304  N     0.42850   0.62149   0.42566   0.00000  Uiso   1.00
N1305  N     0.04570   0.89801   0.54593   0.00000  Uiso   1.00
N1306  N     0.13098   0.79390   0.44695   0.00000  Uiso   1.00
N1307  N     0.36347   0.71227   0.55028   0.00000  Uiso   1.00
N1308  N     0.11769   0.69274   0.57685   0.00000  Uiso   1.00
O1309  O     0.04581   0.70419   0.53821   0.00000  Uiso   1.00
O1310  O     0.20420   0.54581   0.46179   0.00000  Uiso   1.00
O1311  O     0.20420   0.54581   0.53821   0.00000  Uiso   1.00
O1312  O     0.29581   0.95419   0.46179   0.00000  Uiso   1.00
O1313  O     0.20420   0.95419   0.46179   0.00000  Uiso   1.00
O1314  O     0.29581   0.54581   0.53821   0.00000  Uiso   1.00
O1315  O     0.29581   0.54581   0.46179   0.00000  Uiso   1.00
O1316  O     0.20420   0.95419   0.53821   0.00000  Uiso   1.00
O1317  O     0.47090   0.85348   0.39937   0.00000  Uiso   1.00
O1318  O     0.04355   0.85545   0.39558   0.00000  Uiso   1.00
O1319  O     0.02018   0.64678   0.59298   0.00000  Uiso   1.00
O1320  O     0.45420   0.79581   0.46179   0.00000  Uiso   1.00
O1321  O     0.44958   0.64666   0.61024   0.00000  Uiso   1.00
O1322  O     0.00216   0.65587   0.40781   0.00000  Uiso   1.00
O1323  O     0.04233   0.63617   0.34730   0.00000  Uiso   1.00
O1324  O     0.00718   0.86361   0.62381   0.00000  Uiso   1.00
O1325  O     0.07133   0.82686   0.62170   0.00000  Uiso   1.00
O1326  O     0.23103   0.60313   0.40688   0.00000  Uiso   1.00
O1327  O     0.30150   0.60301   0.38979   0.00000  Uiso   1.00
O1328  O     0.27710   0.89662   0.59823   0.00000  Uiso   1.00
O1329  O     0.20486   0.89487   0.60627   0.00000  Uiso   1.00
O1330  O     0.25084   0.90243   0.40245   0.00000  Uiso   1.00
O1331  O     0.45420   0.79581   0.53821   0.00000  Uiso   1.00
O1332  O     0.30642   0.89892   0.35404   0.00000  Uiso   1.00
O1333  O     0.25516   0.61271   0.62177   0.00000  Uiso   1.00
O1334  O     0.32069   0.57867   0.62190   0.00000  Uiso   1.00
O1335  O     0.04581   0.70419   0.46179   0.00000  Uiso   1.00
O1336  O     0.45420   0.70419   0.46179   0.00000  Uiso   1.00
O1337  O     0.04581   0.79581   0.53821   0.00000  Uiso   1.00
O1338  O     0.04581   0.79581   0.46179   0.00000  Uiso   1.00
O1339  O     0.45420   0.70419   0.53821   0.00000  Uiso   1.00
O1340  O     0.29581   0.95419   0.53821   0.00000  Uiso   1.00
Zn1341 Zn    0.00000   0.75000   0.55104   0.00000  Uiso   1.00
Zn1342 Zn    0.00000   0.75000   0.44896   0.00000  Uiso   1.00
Zn1343 Zn    0.25000   0.50000   0.55104   0.00000  Uiso   1.00
Zn1344 Zn    0.25000   0.50000   0.44896   0.00000  Uiso   1.00
C1345  C     0.56298   0.69361   0.49918   0.00000  Uiso   1.00
C1346  C     0.99732   0.71000   0.63940   0.00000  Uiso   1.00
C1347  C     0.50199   0.70973   0.35368   0.00000  Uiso   1.00
C1348  C     0.50624   0.78938   0.64612   0.00000  Uiso   1.00
C1349  C     0.75348   0.53999   0.36041   0.00000  Uiso   1.00
C1350  C     0.74820   0.96004   0.63956   0.00000  Uiso   1.00
C1351  C     0.75237   0.96016   0.35379   0.00000  Uiso   1.00
C1352  C     0.75658   0.53938   0.64601   0.00000  Uiso   1.00
C1353  C     0.90359   0.62213   0.46516   0.00000  Uiso   1.00
C1354  C     0.58619   0.88638   0.52655   0.00000  Uiso   1.00
C1355  C     0.62588   0.83685   0.47194   0.00000  Uiso   1.00
C1356  C     0.93951   0.80930   0.50109   0.00000  Uiso   1.00
C1357  C     0.86879   0.66884   0.52595   0.00000  Uiso   1.00
C1358  C     0.62369   0.66115   0.53849   0.00000  Uiso   1.00
C1359  C     0.87078   0.83361   0.47164   0.00000  Uiso   1.00
C1360  C     0.90208   0.87446   0.53891   0.00000  Uiso   1.00
C1361  C     0.61392   0.64079   0.45773   0.00000  Uiso   1.00
C1362  C     0.65236   0.87312   0.46456   0.00000  Uiso   1.00
C1363  C     0.83643   0.63614   0.52611   0.00000  Uiso   1.00
C1364  C     0.87642   0.58611   0.47163   0.00000  Uiso   1.00
C1365  C     0.61877   0.91889   0.52663   0.00000  Uiso   1.00
C1366  C     0.87376   0.91034   0.53493   0.00000  Uiso   1.00
C1367  C     0.93904   0.69105   0.49874   0.00000  Uiso   1.00
C1368  C     0.63302   0.59873   0.46266   0.00000  Uiso   1.00
C1369  C     0.65102   0.62405   0.54099   0.00000  Uiso   1.00
C1370  C     0.83771   0.86524   0.47306   0.00000  Uiso   1.00
C1371  C     0.59234   0.84399   0.50239   0.00000  Uiso   1.00
C1372  C     0.90303   0.66065   0.49607   0.00000  Uiso   1.00
C1373  C     0.90385   0.83970   0.50376   0.00000  Uiso   1.00
C1374  C     0.60195   0.66673   0.49762   0.00000  Uiso   1.00
C1375  C     0.84267   0.59361   0.50205   0.00000  Uiso   1.00
C1376  C     0.65250   0.91123   0.49597   0.00000  Uiso   1.00
C1377  C     0.65584   0.59331   0.50261   0.00000  Uiso   1.00
C1378  C     0.55958   0.81025   0.50112   0.00000  Uiso   1.00
C1379  C     0.84273   0.90623   0.50008   0.00000  Uiso   1.00
C1380  C     0.50395   0.83412   0.38737   0.00000  Uiso   1.00
C1381  C     0.99024   0.66652   0.61198   0.00000  Uiso   1.00
C1382  C     0.51498   0.66615   0.37184   0.00000  Uiso   1.00
C1383  C     0.52706   0.82850   0.62800   0.00000  Uiso   1.00
C1384  C     0.76074   0.58342   0.38774   0.00000  Uiso   1.00
C1385  C     0.74479   0.91598   0.61244   0.00000  Uiso   1.00
C1386  C     0.76915   0.91897   0.37210   0.00000  Uiso   1.00
C1387  C     0.77626   0.57868   0.62722   0.00000  Uiso   1.00
C1388  C     0.90651   0.63981   0.38809   0.00000  Uiso   1.00
C1389  C     0.81003   0.94017   0.49950   0.00000  Uiso   1.00
C1390  C     0.51455   0.91303   0.51402   0.00000  Uiso   1.00
C1391  C     0.66572   0.76590   0.46182   0.00000  Uiso   1.00
C1392  C     0.87101   0.71432   0.59835   0.00000  Uiso   1.00
C1393  C     0.63963   0.73583   0.57528   0.00000  Uiso   1.00
C1394  C     0.87633   0.79611   0.39574   0.00000  Uiso   1.00
C1395  C     0.90597   0.84830   0.61313   0.00000  Uiso   1.00
C1396  C     0.65022   0.65946   0.38915   0.00000  Uiso   1.00
C1397  C     0.65335   0.89277   0.38811   0.00000  Uiso   1.00
C1398  C     0.76413   0.66242   0.51505   0.00000  Uiso   1.00
C1399  C     0.91565   0.51524   0.45029   0.00000  Uiso   1.00
C1400  C     0.68894   0.55909   0.50093   0.00000  Uiso   1.00
C1401  C     0.62240   0.96157   0.60029   0.00000  Uiso   1.00
C1402  C     0.89387   0.98868   0.55824   0.00000  Uiso   1.00
C1403  C     0.62906   0.54624   0.39337   0.00000  Uiso   1.00
C1404  C     0.64909   0.58794   0.61083   0.00000  Uiso   1.00
C1405  C     0.76757   0.83695   0.48813   0.00000  Uiso   1.00
C1406  C     0.68888   0.94122   0.49872   0.00000  Uiso   1.00
C1407  C     0.80972   0.56009   0.50104   0.00000  Uiso   1.00
C1408  C     0.50189   0.79000   0.36032   0.00000  Uiso   1.00
H1409  H     0.54091   0.88641   0.41278   0.00000  Uiso   1.00
H1410  H     0.92901   0.64220   0.36003   0.00000  Uiso   1.00
H1411  H     0.89386   0.67449   0.39775   0.00000  Uiso   1.00
H1412  H     0.87996   0.61702   0.37583   0.00000  Uiso   1.00
H1413  H     0.54729   0.91999   0.57449   0.00000  Uiso   1.00
H1414  H     0.52694   0.94293   0.49758   0.00000  Uiso   1.00
H1415  H     0.98460   0.92330   0.53157   0.00000  Uiso   1.00
H1416  H     0.50679   0.88504   0.48814   0.00000  Uiso   1.00
H1417  H     0.62824   0.79446   0.41256   0.00000  Uiso   1.00
H1418  H     0.69108   0.76247   0.43597   0.00000  Uiso   1.00
H1419  H     0.65327   0.73166   0.46712   0.00000  Uiso   1.00
H1420  H     0.94860   0.61674   0.59092   0.00000  Uiso   1.00
H1421  H     0.68015   0.78015   0.49412   0.00000  Uiso   1.00
H1422  H     0.87483   0.74016   0.53521   0.00000  Uiso   1.00
H1423  H     0.90336   0.72843   0.60662   0.00000  Uiso   1.00
H1424  H     0.86849   0.68022   0.61159   0.00000  Uiso   1.00
H1425  H     0.84688   0.73713   0.61541   0.00000  Uiso   1.00
H1426  H     0.61929   0.67985   0.60786   0.00000  Uiso   1.00
H1427  H     0.63354   0.75757   0.60666   0.00000  Uiso   1.00
H1428  H     0.62738   0.75408   0.54670   0.00000  Uiso   1.00
H1429  H     0.67471   0.73029   0.57200   0.00000  Uiso   1.00
H1430  H     0.87744   0.76286   0.45555   0.00000  Uiso   1.00
H1431  H     0.54711   0.60675   0.36214   0.00000  Uiso   1.00
H1432  H     0.90573   0.77647   0.38637   0.00000  Uiso   1.00
H1433  H     0.88116   0.83208   0.38794   0.00000  Uiso   1.00
H1434  H     0.84924   0.78150   0.37500   0.00000  Uiso   1.00
H1435  H     0.94034   0.90271   0.59124   0.00000  Uiso   1.00
H1436  H     0.92744   0.84655   0.64275   0.00000  Uiso   1.00
H1437  H     0.89764   0.81299   0.60017   0.00000  Uiso   1.00
H1438  H     0.87616   0.86622   0.62422   0.00000  Uiso   1.00
H1439  H     0.59631   0.68911   0.41264   0.00000  Uiso   1.00
H1440  H     0.64512   0.67848   0.35882   0.00000  Uiso   1.00
H1441  H     0.66090   0.62514   0.37724   0.00000  Uiso   1.00
H1442  H     0.58368   0.85711   0.61431   0.00000  Uiso   1.00
H1443  H     0.67589   0.67675   0.41010   0.00000  Uiso   1.00
H1444  H     0.68942   0.84172   0.41364   0.00000  Uiso   1.00
H1445  H     0.67461   0.89405   0.35873   0.00000  Uiso   1.00
H1446  H     0.64313   0.92812   0.39880   0.00000  Uiso   1.00
H1447  H     0.62484   0.87191   0.37755   0.00000  Uiso   1.00
H1448  H     0.79787   0.66921   0.57480   0.00000  Uiso   1.00
H1449  H     0.73382   0.67023   0.53312   0.00000  Uiso   1.00
H1450  H     0.75754   0.63528   0.48798   0.00000  Uiso   1.00
H1451  H     0.77513   0.69375   0.50006   0.00000  Uiso   1.00
H1452  H     0.87088   0.54707   0.41038   0.00000  Uiso   1.00
H1453  H     0.80250   0.63292   0.40914   0.00000  Uiso   1.00
H1454  H     0.93606   0.51276   0.41996   0.00000  Uiso   1.00
H1455  H     0.90411   0.98041   0.45560   0.00000  Uiso   1.00
H1456  H     0.93554   0.52808   0.47971   0.00000  Uiso   1.00
H1457  H     0.62564   0.98988   0.53806   0.00000  Uiso   1.00
H1458  H     0.65445   0.97635   0.60883   0.00000  Uiso   1.00
H1459  H     0.62113   0.92668   0.61195   0.00000  Uiso   1.00
H1460  H     0.59785   0.98279   0.61862   0.00000  Uiso   1.00
H1461  H     0.87785   0.93957   0.60154   0.00000  Uiso   1.00
H1462  H     0.89195   0.51463   0.58724   0.00000  Uiso   1.00
H1463  H     0.87752   0.50277   0.52941   0.00000  Uiso   1.00
H1464  H     0.70654   0.86451   0.58779   0.00000  Uiso   1.00
H1465  H     0.92810   0.98180   0.55054   0.00000  Uiso   1.00
H1466  H     0.58292   0.55595   0.44235   0.00000  Uiso   1.00
H1467  H     0.61992   0.51026   0.38401   0.00000  Uiso   1.00
H1468  H     0.66420   0.54884   0.39008   0.00000  Uiso   1.00
H1469  H     0.61256   0.56768   0.36966   0.00000  Uiso   1.00
H1470  H     0.68409   0.64594   0.59940   0.00000  Uiso   1.00
H1471  H     0.67038   0.57852   0.63857   0.00000  Uiso   1.00
H1472  H     0.63834   0.55621   0.59156   0.00000  Uiso   1.00
H1473  H     0.62057   0.60587   0.62536   0.00000  Uiso   1.00
H1474  H     0.79739   0.82940   0.42697   0.00000  Uiso   1.00
H1475  H     0.81421   0.86948   0.36742   0.00000  Uiso   1.00
H1476  H     0.73701   0.82642   0.47157   0.00000  Uiso   1.00
H1477  H     0.76060   0.86494   0.51405   0.00000  Uiso   1.00
H1478  H     0.78118   0.80728   0.50429   0.00000  Uiso   1.00
H1479  H     0.83231   0.60937   0.61494   0.00000  Uiso   1.00
H1480  H     0.94382   0.59120   0.41677   0.00000  Uiso   1.00
N1481  N     0.50000   0.75000   0.61907   0.00000  Uiso   1.00
N1482  N     0.86712   0.79261   0.44282   0.00000  Uiso   1.00
N1483  N     0.92716   0.87211   0.57880   0.00000  Uiso   1.00
N1484  N     0.61068   0.65797   0.41403   0.00000  Uiso   1.00
N1485  N     0.67609   0.87270   0.42422   0.00000  Uiso   1.00
N1486  N     0.79610   0.64745   0.54610   0.00000  Uiso   1.00
N1487  N     0.87911   0.54449   0.44360   0.00000  Uiso   1.00
N1488  N     0.61428   0.96156   0.55241   0.00000  Uiso   1.00
N1489  N     0.87259   0.94745   0.56896   0.00000  Uiso   1.00
N1490  N     0.61565   0.55868   0.43887   0.00000  Uiso   1.00
N1491  N     0.67228   0.61676   0.58223   0.00000  Uiso   1.00
N1492  N     0.50000   0.75000   0.38093   0.00000  Uiso   1.00
N1493  N     0.79676   0.85207   0.45503   0.00000  Uiso   1.00
N1494  N     0.75000   0.50000   0.61907   0.00000  Uiso   1.00
N1495  N     0.75000   0.50000   0.38093   0.00000  Uiso   1.00
N1496  N     0.92850   0.62149   0.42566   0.00000  Uiso   1.00
N1497  N     0.54570   0.89801   0.54593   0.00000  Uiso   1.00
N1498  N     0.63098   0.79390   0.44695   0.00000  Uiso   1.00
N1499  N     0.86347   0.71227   0.55028   0.00000  Uiso   1.00
N1500  N     0.61769   0.69274   0.57685   0.00000  Uiso   1.00
O1501  O     0.54581   0.70419   0.53821   0.00000  Uiso   1.00
O1502  O     0.70420   0.54581   0.46179   0.00000  Uiso   1.00
O1503  O     0.70420   0.54581   0.53821   0.00000  Uiso   1.00
O1504  O     0.79581   0.95419   0.46179   0.00000  Uiso   1.00
O1505  O     0.70420   0.95419   0.46179   0.00000  Uiso   1.00
O1506  O     0.79581   0.54581   0.53821   0.00000  Uiso   1.00
O1507  O     0.79581   0.54581   0.46179   0.00000  Uiso   1.00
O1508  O     0.70420   0.95419   0.53821   0.00000  Uiso   1.00
O1509  O     0.97090   0.85348   0.39937   0.00000  Uiso   1.00
O1510  O     0.54355   0.85545   0.39558   0.00000  Uiso   1.00
O1511  O     0.52018   0.64678   0.59298   0.00000  Uiso   1.00
O1512  O     0.95420   0.79581   0.46179   0.00000  Uiso   1.00
O1513  O     0.94958   0.64666   0.61024   0.00000  Uiso   1.00
O1514  O     0.50216   0.65587   0.40781   0.00000  Uiso   1.00
O1515  O     0.54233   0.63617   0.34730   0.00000  Uiso   1.00
O1516  O     0.50718   0.86361   0.62381   0.00000  Uiso   1.00
O1517  O     0.57133   0.82686   0.62170   0.00000  Uiso   1.00
O1518  O     0.73103   0.60313   0.40688   0.00000  Uiso   1.00
O1519  O     0.80150   0.60301   0.38979   0.00000  Uiso   1.00
O1520  O     0.77710   0.89662   0.59823   0.00000  Uiso   1.00
O1521  O     0.70486   0.89487   0.60627   0.00000  Uiso   1.00
O1522  O     0.75084   0.90243   0.40245   0.00000  Uiso   1.00
O1523  O     0.95420   0.79581   0.53821   0.00000  Uiso   1.00
O1524  O     0.80642   0.89892   0.35404   0.00000  Uiso   1.00
O1525  O     0.75516   0.61271   0.62177   0.00000  Uiso   1.00
O1526  O     0.82069   0.57867   0.62190   0.00000  Uiso   1.00
O1527  O     0.54581   0.70419   0.46179   0.00000  Uiso   1.00
O1528  O     0.95420   0.70419   0.46179   0.00000  Uiso   1.00
O1529  O     0.54581   0.79581   0.53821   0.00000  Uiso   1.00
O1530  O     0.54581   0.79581   0.46179   0.00000  Uiso   1.00
O1531  O     0.95420   0.70419   0.53821   0.00000  Uiso   1.00
O1532  O     0.79581   0.95419   0.53821   0.00000  Uiso   1.00
Zn1533 Zn    0.50000   0.75000   0.55104   0.00000  Uiso   1.00
Zn1534 Zn    0.50000   0.75000   0.44896   0.00000  Uiso   1.00
Zn1535 Zn    0.75000   0.50000   0.55104   0.00000  Uiso   1.00
Zn1536 Zn    0.75000   0.50000   0.44896   0.00000  Uiso   1.00
C1537  C     0.06298   0.19361   0.83252   0.00000  Uiso   1.00
C1538  C     0.49732   0.21000   0.97273   0.00000  Uiso   1.00
C1539  C     0.00199   0.20973   0.68702   0.00000  Uiso   1.00
C1540  C     0.00624   0.28938   0.97945   0.00000  Uiso   1.00
C1541  C     0.25348   0.03999   0.69375   0.00000  Uiso   1.00
C1542  C     0.24820   0.46004   0.97289   0.00000  Uiso   1.00
C1543  C     0.25237   0.46016   0.68713   0.00000  Uiso   1.00
C1544  C     0.25658   0.03938   0.97934   0.00000  Uiso   1.00
C1545  C     0.40359   0.12213   0.79850   0.00000  Uiso   1.00
C1546  C     0.08619   0.38638   0.85989   0.00000  Uiso   1.00
C1547  C     0.12588   0.33685   0.80527   0.00000  Uiso   1.00
C1548  C     0.43951   0.30930   0.83442   0.00000  Uiso   1.00
C1549  C     0.36879   0.16884   0.85928   0.00000  Uiso   1.00
C1550  C     0.12369   0.16115   0.87182   0.00000  Uiso   1.00
C1551  C     0.37078   0.33361   0.80497   0.00000  Uiso   1.00
C1552  C     0.40208   0.37446   0.87224   0.00000  Uiso   1.00
C1553  C     0.11392   0.14079   0.79107   0.00000  Uiso   1.00
C1554  C     0.15236   0.37312   0.79789   0.00000  Uiso   1.00
C1555  C     0.33643   0.13614   0.85944   0.00000  Uiso   1.00
C1556  C     0.37642   0.08611   0.80497   0.00000  Uiso   1.00
C1557  C     0.11877   0.41889   0.85996   0.00000  Uiso   1.00
C1558  C     0.37376   0.41034   0.86827   0.00000  Uiso   1.00
C1559  C     0.43904   0.19105   0.83207   0.00000  Uiso   1.00
C1560  C     0.13302   0.09873   0.79599   0.00000  Uiso   1.00
C1561  C     0.15102   0.12405   0.87432   0.00000  Uiso   1.00
C1562  C     0.33771   0.36524   0.80639   0.00000  Uiso   1.00
C1563  C     0.09234   0.34399   0.83573   0.00000  Uiso   1.00
C1564  C     0.40303   0.16065   0.82941   0.00000  Uiso   1.00
C1565  C     0.40385   0.33970   0.83710   0.00000  Uiso   1.00
C1566  C     0.10195   0.16673   0.83095   0.00000  Uiso   1.00
C1567  C     0.34267   0.09361   0.83539   0.00000  Uiso   1.00
C1568  C     0.15250   0.41123   0.82930   0.00000  Uiso   1.00
C1569  C     0.15584   0.09331   0.83595   0.00000  Uiso   1.00
C1570  C     0.05958   0.31025   0.83446   0.00000  Uiso   1.00
C1571  C     0.34273   0.40623   0.83342   0.00000  Uiso   1.00
C1572  C     0.00395   0.33412   0.72071   0.00000  Uiso   1.00
C1573  C     0.49024   0.16652   0.94531   0.00000  Uiso   1.00
C1574  C     0.01498   0.16615   0.70518   0.00000  Uiso   1.00
C1575  C     0.02706   0.32850   0.96133   0.00000  Uiso   1.00
C1576  C     0.26074   0.08342   0.72107   0.00000  Uiso   1.00
C1577  C     0.24479   0.41598   0.94577   0.00000  Uiso   1.00
C1578  C     0.26915   0.41897   0.70543   0.00000  Uiso   1.00
C1579  C     0.27626   0.07868   0.96055   0.00000  Uiso   1.00
C1580  C     0.40651   0.13981   0.72142   0.00000  Uiso   1.00
C1581  C     0.31003   0.44017   0.83283   0.00000  Uiso   1.00
C1582  C     0.01455   0.41303   0.84735   0.00000  Uiso   1.00
C1583  C     0.16572   0.26590   0.79515   0.00000  Uiso   1.00
C1584  C     0.37101   0.21432   0.93168   0.00000  Uiso   1.00
C1585  C     0.13963   0.23583   0.90861   0.00000  Uiso   1.00
C1586  C     0.37633   0.29611   0.72908   0.00000  Uiso   1.00
C1587  C     0.40597   0.34830   0.94646   0.00000  Uiso   1.00
C1588  C     0.15022   0.15946   0.72249   0.00000  Uiso   1.00
C1589  C     0.15335   0.39277   0.72144   0.00000  Uiso   1.00
C1590  C     0.26413   0.16242   0.84838   0.00000  Uiso   1.00
C1591  C     0.41565   0.01524   0.78362   0.00000  Uiso   1.00
C1592  C     0.18894   0.05909   0.83426   0.00000  Uiso   1.00
C1593  C     0.12240   0.46157   0.93363   0.00000  Uiso   1.00
C1594  C     0.39387   0.48868   0.89157   0.00000  Uiso   1.00
C1595  C     0.12906   0.04624   0.72671   0.00000  Uiso   1.00
C1596  C     0.14909   0.08794   0.94416   0.00000  Uiso   1.00
C1597  C     0.26757   0.33695   0.82147   0.00000  Uiso   1.00
C1598  C     0.18888   0.44122   0.83205   0.00000  Uiso   1.00
C1599  C     0.30972   0.06009   0.83437   0.00000  Uiso   1.00
C1600  C     0.00189   0.29000   0.69366   0.00000  Uiso   1.00
H1601  H     0.04091   0.38641   0.74612   0.00000  Uiso   1.00
H1602  H     0.42901   0.14220   0.69337   0.00000  Uiso   1.00
H1603  H     0.39386   0.17449   0.73108   0.00000  Uiso   1.00
H1604  H     0.37996   0.11702   0.70916   0.00000  Uiso   1.00
H1605  H     0.04729   0.41999   0.90783   0.00000  Uiso   1.00
H1606  H     0.02694   0.44293   0.83091   0.00000  Uiso   1.00
H1607  H     0.48460   0.42330   0.86490   0.00000  Uiso   1.00
H1608  H     0.00679   0.38504   0.82147   0.00000  Uiso   1.00
H1609  H     0.12824   0.29446   0.74589   0.00000  Uiso   1.00
H1610  H     0.19108   0.26247   0.76930   0.00000  Uiso   1.00
H1611  H     0.15327   0.23166   0.80045   0.00000  Uiso   1.00
H1612  H     0.44860   0.11674   0.92426   0.00000  Uiso   1.00
H1613  H     0.18015   0.28015   0.82745   0.00000  Uiso   1.00
H1614  H     0.37483   0.24016   0.86854   0.00000  Uiso   1.00
H1615  H     0.40336   0.22843   0.93995   0.00000  Uiso   1.00
H1616  H     0.36849   0.18022   0.94493   0.00000  Uiso   1.00
H1617  H     0.34688   0.23713   0.94875   0.00000  Uiso   1.00
H1618  H     0.11929   0.17985   0.94120   0.00000  Uiso   1.00
H1619  H     0.13354   0.25757   0.93999   0.00000  Uiso   1.00
H1620  H     0.12738   0.25408   0.88004   0.00000  Uiso   1.00
H1621  H     0.17471   0.23029   0.90533   0.00000  Uiso   1.00
H1622  H     0.37744   0.26286   0.78888   0.00000  Uiso   1.00
H1623  H     0.04711   0.10675   0.69548   0.00000  Uiso   1.00
H1624  H     0.40573   0.27647   0.71970   0.00000  Uiso   1.00
H1625  H     0.38116   0.33208   0.72127   0.00000  Uiso   1.00
H1626  H     0.34924   0.28150   0.70834   0.00000  Uiso   1.00
H1627  H     0.44034   0.40271   0.92457   0.00000  Uiso   1.00
H1628  H     0.42744   0.34655   0.97608   0.00000  Uiso   1.00
H1629  H     0.39764   0.31299   0.93350   0.00000  Uiso   1.00
H1630  H     0.37616   0.36622   0.95756   0.00000  Uiso   1.00
H1631  H     0.09631   0.18911   0.74597   0.00000  Uiso   1.00
H1632  H     0.14512   0.17848   0.69215   0.00000  Uiso   1.00
H1633  H     0.16090   0.12514   0.71058   0.00000  Uiso   1.00
H1634  H     0.08368   0.35711   0.94764   0.00000  Uiso   1.00
H1635  H     0.17589   0.17675   0.74344   0.00000  Uiso   1.00
H1636  H     0.18942   0.34172   0.74697   0.00000  Uiso   1.00
H1637  H     0.17461   0.39405   0.69206   0.00000  Uiso   1.00
H1638  H     0.14313   0.42812   0.73213   0.00000  Uiso   1.00
H1639  H     0.12484   0.37191   0.71088   0.00000  Uiso   1.00
H1640  H     0.29787   0.16921   0.90813   0.00000  Uiso   1.00
H1641  H     0.23382   0.17023   0.86646   0.00000  Uiso   1.00
H1642  H     0.25754   0.13528   0.82132   0.00000  Uiso   1.00
H1643  H     0.27513   0.19375   0.83340   0.00000  Uiso   1.00
H1644  H     0.37088   0.04707   0.74372   0.00000  Uiso   1.00
H1645  H     0.30250   0.13292   0.74247   0.00000  Uiso   1.00
H1646  H     0.43606   0.01276   0.75329   0.00000  Uiso   1.00
H1647  H     0.40411   0.48041   0.78893   0.00000  Uiso   1.00
H1648  H     0.43554   0.02808   0.81304   0.00000  Uiso   1.00
H1649  H     0.12564   0.48988   0.87139   0.00000  Uiso   1.00
H1650  H     0.15445   0.47635   0.94216   0.00000  Uiso   1.00
H1651  H     0.12113   0.42668   0.94528   0.00000  Uiso   1.00
H1652  H     0.09785   0.48279   0.95195   0.00000  Uiso   1.00
H1653  H     0.37785   0.43957   0.93487   0.00000  Uiso   1.00
H1654  H     0.39195   0.01463   0.92057   0.00000  Uiso   1.00
H1655  H     0.37752   0.00277   0.86275   0.00000  Uiso   1.00
H1656  H     0.20654   0.36451   0.92112   0.00000  Uiso   1.00
H1657  H     0.42810   0.48180   0.88387   0.00000  Uiso   1.00
H1658  H     0.08292   0.05595   0.77568   0.00000  Uiso   1.00
H1659  H     0.11992   0.01026   0.71735   0.00000  Uiso   1.00
H1660  H     0.16420   0.04884   0.72342   0.00000  Uiso   1.00
H1661  H     0.11256   0.06768   0.70299   0.00000  Uiso   1.00
H1662  H     0.18409   0.14594   0.93274   0.00000  Uiso   1.00
H1663  H     0.17038   0.07852   0.97191   0.00000  Uiso   1.00
H1664  H     0.13834   0.05621   0.92489   0.00000  Uiso   1.00
H1665  H     0.12057   0.10587   0.95869   0.00000  Uiso   1.00
H1666  H     0.29739   0.32940   0.76030   0.00000  Uiso   1.00
H1667  H     0.31421   0.36948   0.70075   0.00000  Uiso   1.00
H1668  H     0.23701   0.32642   0.80491   0.00000  Uiso   1.00
H1669  H     0.26060   0.36494   0.84738   0.00000  Uiso   1.00
H1670  H     0.28118   0.30728   0.83762   0.00000  Uiso   1.00
H1671  H     0.33231   0.10937   0.94828   0.00000  Uiso   1.00
H1672  H     0.44382   0.09120   0.75010   0.00000  Uiso   1.00
N1673  N     0.00000   0.25000   0.95240   0.00000  Uiso   1.00
N1674  N     0.36712   0.29261   0.77615   0.00000  Uiso   1.00
N1675  N     0.42716   0.37211   0.91213   0.00000  Uiso   1.00
N1676  N     0.11068   0.15797   0.74737   0.00000  Uiso   1.00
N1677  N     0.17609   0.37270   0.75755   0.00000  Uiso   1.00
N1678  N     0.29610   0.14745   0.87944   0.00000  Uiso   1.00
N1679  N     0.37911   0.04449   0.77693   0.00000  Uiso   1.00
N1680  N     0.11428   0.46156   0.88574   0.00000  Uiso   1.00
N1681  N     0.37259   0.44745   0.90229   0.00000  Uiso   1.00
N1682  N     0.11565   0.05868   0.77220   0.00000  Uiso   1.00
N1683  N     0.17228   0.11676   0.91557   0.00000  Uiso   1.00
N1684  N     0.00000   0.25000   0.71427   0.00000  Uiso   1.00
N1685  N     0.29676   0.35207   0.78837   0.00000  Uiso   1.00
N1686  N     0.25000   0.00000   0.95240   0.00000  Uiso   1.00
N1687  N     0.25000   0.00000   0.71427   0.00000  Uiso   1.00
N1688  N     0.42850   0.12149   0.75900   0.00000  Uiso   1.00
N1689  N     0.04570   0.39801   0.87926   0.00000  Uiso   1.00
N1690  N     0.13098   0.29390   0.78028   0.00000  Uiso   1.00
N1691  N     0.36347   0.21227   0.88361   0.00000  Uiso   1.00
N1692  N     0.11769   0.19274   0.91019   0.00000  Uiso   1.00
O1693  O     0.04581   0.20419   0.87154   0.00000  Uiso   1.00
O1694  O     0.20420   0.04581   0.79513   0.00000  Uiso   1.00
O1695  O     0.20420   0.04581   0.87154   0.00000  Uiso   1.00
O1696  O     0.29581   0.45419   0.79513   0.00000  Uiso   1.00
O1697  O     0.20420   0.45419   0.79513   0.00000  Uiso   1.00
O1698  O     0.29581   0.04581   0.87154   0.00000  Uiso   1.00
O1699  O     0.29581   0.04581   0.79513   0.00000  Uiso   1.00
O1700  O     0.20420   0.45419   0.87154   0.00000  Uiso   1.00
O1701  O     0.47090   0.35348   0.73270   0.00000  Uiso   1.00
O1702  O     0.04355   0.35545   0.72891   0.00000  Uiso   1.00
O1703  O     0.02018   0.14678   0.92632   0.00000  Uiso   1.00
O1704  O     0.45420   0.29581   0.79513   0.00000  Uiso   1.00
O1705  O     0.44958   0.14666   0.94357   0.00000  Uiso   1.00
O1706  O     0.00216   0.15587   0.74115   0.00000  Uiso   1.00
O1707  O     0.04233   0.13617   0.68063   0.00000  Uiso   1.00
O1708  O     0.00718   0.36361   0.95715   0.00000  Uiso   1.00
O1709  O     0.07133   0.32686   0.95503   0.00000  Uiso   1.00
O1710  O     0.23103   0.10313   0.74021   0.00000  Uiso   1.00
O1711  O     0.30150   0.10301   0.72312   0.00000  Uiso   1.00
O1712  O     0.27710   0.39662   0.93156   0.00000  Uiso   1.00
O1713  O     0.20486   0.39487   0.93960   0.00000  Uiso   1.00
O1714  O     0.25084   0.40243   0.73578   0.00000  Uiso   1.00
O1715  O     0.45420   0.29581   0.87154   0.00000  Uiso   1.00
O1716  O     0.30642   0.39892   0.68738   0.00000  Uiso   1.00
O1717  O     0.25516   0.11271   0.95510   0.00000  Uiso   1.00
O1718  O     0.32069   0.07867   0.95523   0.00000  Uiso   1.00
O1719  O     0.04581   0.20419   0.79513   0.00000  Uiso   1.00
O1720  O     0.45420   0.20419   0.79513   0.00000  Uiso   1.00
O1721  O     0.04581   0.29581   0.87154   0.00000  Uiso   1.00
O1722  O     0.04581   0.29581   0.79513   0.00000  Uiso   1.00
O1723  O     0.45420   0.20419   0.87154   0.00000  Uiso   1.00
O1724  O     0.29581   0.45419   0.87154   0.00000  Uiso   1.00
Zn1725 Zn    0.00000   0.25000   0.88437   0.00000  Uiso   1.00
Zn1726 Zn    0.00000   0.25000   0.78229   0.00000  Uiso   1.00
Zn1727 Zn    0.25000   0.00000   0.88437   0.00000  Uiso   1.00
Zn1728 Zn    0.25000  -0.00000   0.78229   0.00000  Uiso   1.00
C1729  C     0.56298   0.19361   0.83252   0.00000  Uiso   1.00
C1730  C     0.99732   0.21000   0.97273   0.00000  Uiso   1.00
C1731  C     0.50199   0.20973   0.68702   0.00000  Uiso   1.00
C1732  C     0.50624   0.28938   0.97945   0.00000  Uiso   1.00
C1733  C     0.75348   0.03999   0.69375   0.00000  Uiso   1.00
C1734  C     0.74820   0.46004   0.97289   0.00000  Uiso   1.00
C1735  C     0.75237   0.46016   0.68713   0.00000  Uiso   1.00
C1736  C     0.75658   0.03938   0.97934   0.00000  Uiso   1.00
C1737  C     0.90359   0.12213   0.79850   0.00000  Uiso   1.00
C1738  C     0.58619   0.38638   0.85989   0.00000  Uiso   1.00
C1739  C     0.62588   0.33685   0.80527   0.00000  Uiso   1.00
C1740  C     0.93951   0.30930   0.83442   0.00000  Uiso   1.00
C1741  C     0.86879   0.16884   0.85928   0.00000  Uiso   1.00
C1742  C     0.62369   0.16115   0.87182   0.00000  Uiso   1.00
C1743  C     0.87078   0.33361   0.80497   0.00000  Uiso   1.00
C1744  C     0.90208   0.37446   0.87224   0.00000  Uiso   1.00
C1745  C     0.61392   0.14079   0.79107   0.00000  Uiso   1.00
C1746  C     0.65236   0.37312   0.79789   0.00000  Uiso   1.00
C1747  C     0.83643   0.13614   0.85944   0.00000  Uiso   1.00
C1748  C     0.87642   0.08611   0.80497   0.00000  Uiso   1.00
C1749  C     0.61877   0.41889   0.85996   0.00000  Uiso   1.00
C1750  C     0.87376   0.41034   0.86827   0.00000  Uiso   1.00
C1751  C     0.93904   0.19105   0.83207   0.00000  Uiso   1.00
C1752  C     0.63302   0.09873   0.79599   0.00000  Uiso   1.00
C1753  C     0.65102   0.12405   0.87432   0.00000  Uiso   1.00
C1754  C     0.83771   0.36524   0.80639   0.00000  Uiso   1.00
C1755  C     0.59234   0.34399   0.83573   0.00000  Uiso   1.00
C1756  C     0.90303   0.16065   0.82941   0.00000  Uiso   1.00
C1757  C     0.90385   0.33970   0.83710   0.00000  Uiso   1.00
C1758  C     0.60195   0.16673   0.83095   0.00000  Uiso   1.00
C1759  C     0.84267   0.09361   0.83539   0.00000  Uiso   1.00
C1760  C     0.65250   0.41123   0.82930   0.00000  Uiso   1.00
C1761  C     0.65584   0.09331   0.83595   0.00000  Uiso   1.00
C1762  C     0.55958   0.31025   0.83446   0.00000  Uiso   1.00
C1763  C     0.84273   0.40623   0.83342   0.00000  Uiso   1.00
C1764  C     0.50395   0.33412   0.72071   0.00000  Uiso   1.00
C1765  C     0.99024   0.16652   0.94531   0.00000  Uiso   1.00
C1766  C     0.51498   0.16615   0.70518   0.00000  Uiso   1.00
C1767  C     0.52706   0.32850   0.96133   0.00000  Uiso   1.00
C1768  C     0.76074   0.08342   0.72107   0.00000  Uiso   1.00
C1769  C     0.74479   0.41598   0.94577   0.00000  Uiso   1.00
C1770  C     0.76915   0.41897   0.70543   0.00000  Uiso   1.00
C1771  C     0.77626   0.07868   0.96055   0.00000  Uiso   1.00
C1772  C     0.90651   0.13981   0.72142   0.00000  Uiso   1.00
C1773  C     0.81003   0.44017   0.83283   0.00000  Uiso   1.00
C1774  C     0.51455   0.41303   0.84735   0.00000  Uiso   1.00
C1775  C     0.66572   0.26590   0.79515   0.00000  Uiso   1.00
C1776  C     0.87101   0.21432   0.93168   0.00000  Uiso   1.00
C1777  C     0.63963   0.23583   0.90861   0.00000  Uiso   1.00
C1778  C     0.87633   0.29611   0.72908   0.00000  Uiso   1.00
C1779  C     0.90597   0.34830   0.94646   0.00000  Uiso   1.00
C1780  C     0.65022   0.15946   0.72249   0.00000  Uiso   1.00
C1781  C     0.65335   0.39277   0.72144   0.00000  Uiso   1.00
C1782  C     0.76413   0.16242   0.84838   0.00000  Uiso   1.00
C1783  C     0.91565   0.01524   0.78362   0.00000  Uiso   1.00
C1784  C     0.68894   0.05909   0.83426   0.00000  Uiso   1.00
C1785  C     0.62240   0.46157   0.93363   0.00000  Uiso   1.00
C1786  C     0.89387   0.48868   0.89157   0.00000  Uiso   1.00
C1787  C     0.62906   0.04624   0.72671   0.00000  Uiso   1.00
C1788  C     0.64909   0.08794   0.94416   0.00000  Uiso   1.00
C1789  C     0.76757   0.33695   0.82147   0.00000  Uiso   1.00
C1790  C     0.68888   0.44122   0.83205   0.00000  Uiso   1.00
C1791  C     0.80972   0.06009   0.83437   0.00000  Uiso   1.00
C1792  C     0.50189   0.29000   0.69366   0.00000  Uiso   1.00
H1793  H     0.54091   0.38641   0.74612   0.00000  Uiso   1.00
H1794  H     0.92901   0.14220   0.69337   0.00000  Uiso   1.00
H1795  H     0.89386   0.17449   0.73108   0.00000  Uiso   1.00
H1796  H     0.87996   0.11702   0.70916   0.00000  Uiso   1.00
H1797  H     0.54729   0.41999   0.90783   0.00000  Uiso   1.00
H1798  H     0.52694   0.44293   0.83091   0.00000  Uiso   1.00
H1799  H     0.98460   0.42330   0.86490   0.00000  Uiso   1.00
H1800  H     0.50679   0.38504   0.82147   0.00000  Uiso   1.00
H1801  H     0.62824   0.29446   0.74589   0.00000  Uiso   1.00
H1802  H     0.69108   0.26247   0.76930   0.00000  Uiso   1.00
H1803  H     0.65327   0.23166   0.80045   0.00000  Uiso   1.00
H1804  H     0.94860   0.11674   0.92426   0.00000  Uiso   1.00
H1805  H     0.68015   0.28015   0.82745   0.00000  Uiso   1.00
H1806  H     0.87483   0.24016   0.86854   0.00000  Uiso   1.00
H1807  H     0.90336   0.22843   0.93995   0.00000  Uiso   1.00
H1808  H     0.86849   0.18022   0.94493   0.00000  Uiso   1.00
H1809  H     0.84688   0.23713   0.94875   0.00000  Uiso   1.00
H1810  H     0.61929   0.17985   0.94120   0.00000  Uiso   1.00
H1811  H     0.63354   0.25757   0.93999   0.00000  Uiso   1.00
H1812  H     0.62738   0.25408   0.88004   0.00000  Uiso   1.00
H1813  H     0.67471   0.23029   0.90533   0.00000  Uiso   1.00
H1814  H     0.87744   0.26286   0.78888   0.00000  Uiso   1.00
H1815  H     0.54711   0.10675   0.69548   0.00000  Uiso   1.00
H1816  H     0.90573   0.27647   0.71970   0.00000  Uiso   1.00
H1817  H     0.88116   0.33208   0.72127   0.00000  Uiso   1.00
H1818  H     0.84924   0.28150   0.70834   0.00000  Uiso   1.00
H1819  H     0.94034   0.40271   0.92457   0.00000  Uiso   1.00
H1820  H     0.92744   0.34655   0.97608   0.00000  Uiso   1.00
H1821  H     0.89764   0.31299   0.93350   0.00000  Uiso   1.00
H1822  H     0.87616   0.36622   0.95756   0.00000  Uiso   1.00
H1823  H     0.59631   0.18911   0.74597   0.00000  Uiso   1.00
H1824  H     0.64512   0.17848   0.69215   0.00000  Uiso   1.00
H1825  H     0.66090   0.12514   0.71058   0.00000  Uiso   1.00
H1826  H     0.58368   0.35711   0.94764   0.00000  Uiso   1.00
H1827  H     0.67589   0.17675   0.74344   0.00000  Uiso   1.00
H1828  H     0.68942   0.34172   0.74697   0.00000  Uiso   1.00
H1829  H     0.67461   0.39405   0.69206   0.00000  Uiso   1.00
H1830  H     0.64313   0.42812   0.73213   0.00000  Uiso   1.00
H1831  H     0.62484   0.37191   0.71088   0.00000  Uiso   1.00
H1832  H     0.79787   0.16921   0.90813   0.00000  Uiso   1.00
H1833  H     0.73382   0.17023   0.86646   0.00000  Uiso   1.00
H1834  H     0.75754   0.13528   0.82132   0.00000  Uiso   1.00
H1835  H     0.77513   0.19375   0.83340   0.00000  Uiso   1.00
H1836  H     0.87088   0.04707   0.74372   0.00000  Uiso   1.00
H1837  H     0.80250   0.13292   0.74247   0.00000  Uiso   1.00
H1838  H     0.93606   0.01276   0.75329   0.00000  Uiso   1.00
H1839  H     0.90411   0.48041   0.78893   0.00000  Uiso   1.00
H1840  H     0.93554   0.02808   0.81304   0.00000  Uiso   1.00
H1841  H     0.62564   0.48988   0.87139   0.00000  Uiso   1.00
H1842  H     0.65445   0.47635   0.94216   0.00000  Uiso   1.00
H1843  H     0.62113   0.42668   0.94528   0.00000  Uiso   1.00
H1844  H     0.59785   0.48279   0.95195   0.00000  Uiso   1.00
H1845  H     0.87785   0.43957   0.93487   0.00000  Uiso   1.00
H1846  H     0.89195   0.01463   0.92057   0.00000  Uiso   1.00
H1847  H     0.87752   0.00277   0.86275   0.00000  Uiso   1.00
H1848  H     0.70654   0.36451   0.92112   0.00000  Uiso   1.00
H1849  H     0.92810   0.48180   0.88387   0.00000  Uiso   1.00
H1850  H     0.58292   0.05595   0.77568   0.00000  Uiso   1.00
H1851  H     0.61992   0.01026   0.71735   0.00000  Uiso   1.00
H1852  H     0.66420   0.04884   0.72342   0.00000  Uiso   1.00
H1853  H     0.61256   0.06768   0.70299   0.00000  Uiso   1.00
H1854  H     0.68409   0.14594   0.93274   0.00000  Uiso   1.00
H1855  H     0.67038   0.07852   0.97191   0.00000  Uiso   1.00
H1856  H     0.63834   0.05621   0.92489   0.00000  Uiso   1.00
H1857  H     0.62057   0.10587   0.95869   0.00000  Uiso   1.00
H1858  H     0.79739   0.32940   0.76030   0.00000  Uiso   1.00
H1859  H     0.81421   0.36948   0.70075   0.00000  Uiso   1.00
H1860  H     0.73701   0.32642   0.80491   0.00000  Uiso   1.00
H1861  H     0.76060   0.36494   0.84738   0.00000  Uiso   1.00
H1862  H     0.78118   0.30728   0.83762   0.00000  Uiso   1.00
H1863  H     0.83231   0.10937   0.94828   0.00000  Uiso   1.00
H1864  H     0.94382   0.09120   0.75010   0.00000  Uiso   1.00
N1865  N     0.50000   0.25000   0.95240   0.00000  Uiso   1.00
N1866  N     0.86712   0.29261   0.77615   0.00000  Uiso   1.00
N1867  N     0.92716   0.37211   0.91213   0.00000  Uiso   1.00
N1868  N     0.61068   0.15797   0.74737   0.00000  Uiso   1.00
N1869  N     0.67609   0.37270   0.75755   0.00000  Uiso   1.00
N1870  N     0.79610   0.14745   0.87944   0.00000  Uiso   1.00
N1871  N     0.87911   0.04449   0.77693   0.00000  Uiso   1.00
N1872  N     0.61428   0.46156   0.88574   0.00000  Uiso   1.00
N1873  N     0.87259   0.44745   0.90229   0.00000  Uiso   1.00
N1874  N     0.61565   0.05868   0.77220   0.00000  Uiso   1.00
N1875  N     0.67228   0.11676   0.91557   0.00000  Uiso   1.00
N1876  N     0.50000   0.25000   0.71427   0.00000  Uiso   1.00
N1877  N     0.79676   0.35207   0.78837   0.00000  Uiso   1.00
N1878  N     0.75000   0.00000   0.95240   0.00000  Uiso   1.00
N1879  N     0.75000   0.00000   0.71427   0.00000  Uiso   1.00
N1880  N     0.92850   0.12149   0.75900   0.00000  Uiso   1.00
N1881  N     0.54570   0.39801   0.87926   0.00000  Uiso   1.00
N1882  N     0.63098   0.29390   0.78028   0.00000  Uiso   1.00
N1883  N     0.86347   0.21227   0.88361   0.00000  Uiso   1.00
N1884  N     0.61769   0.19274   0.91019   0.00000  Uiso   1.00
O1885  O     0.54581   0.20419   0.87154   0.00000  Uiso   1.00
O1886  O     0.70420   0.04581   0.79513   0.00000  Uiso   1.00
O1887  O     0.70420   0.04581   0.87154   0.00000  Uiso   1.00
O1888  O     0.79581   0.45419   0.79513   0.00000  Uiso   1.00
O1889  O     0.70420   0.45419   0.79513   0.00000  Uiso   1.00
O1890  O     0.79581   0.04581   0.87154   0.00000  Uiso   1.00
O1891  O     0.79581   0.04581   0.79513   0.00000  Uiso   1.00
O1892  O     0.70420   0.45419   0.87154   0.00000  Uiso   1.00
O1893  O     0.97090   0.35348   0.73270   0.00000  Uiso   1.00
O1894  O     0.54355   0.35545   0.72891   0.00000  Uiso   1.00
O1895  O     0.52018   0.14678   0.92632   0.00000  Uiso   1.00
O1896  O     0.95420   0.29581   0.79513   0.00000  Uiso   1.00
O1897  O     0.94958   0.14666   0.94357   0.00000  Uiso   1.00
O1898  O     0.50216   0.15587   0.74115   0.00000  Uiso   1.00
O1899  O     0.54233   0.13617   0.68063   0.00000  Uiso   1.00
O1900  O     0.50718   0.36361   0.95715   0.00000  Uiso   1.00
O1901  O     0.57133   0.32686   0.95503   0.00000  Uiso   1.00
O1902  O     0.73103   0.10313   0.74021   0.00000  Uiso   1.00
O1903  O     0.80150   0.10301   0.72312   0.00000  Uiso   1.00
O1904  O     0.77710   0.39662   0.93156   0.00000  Uiso   1.00
O1905  O     0.70486   0.39487   0.93960   0.00000  Uiso   1.00
O1906  O     0.75084   0.40243   0.73578   0.00000  Uiso   1.00
O1907  O     0.95420   0.29581   0.87154   0.00000  Uiso   1.00
O1908  O     0.80642   0.39892   0.68738   0.00000  Uiso   1.00
O1909  O     0.75516   0.11271   0.95510   0.00000  Uiso   1.00
O1910  O     0.82069   0.07867   0.95523   0.00000  Uiso   1.00
O1911  O     0.54581   0.20419   0.79513   0.00000  Uiso   1.00
O1912  O     0.95420   0.20419   0.79513   0.00000  Uiso   1.00
O1913  O     0.54581   0.29581   0.87154   0.00000  Uiso   1.00
O1914  O     0.54581   0.29581   0.79513   0.00000  Uiso   1.00
O1915  O     0.95420   0.20419   0.87154   0.00000  Uiso   1.00
O1916  O     0.79581   0.45419   0.87154   0.00000  Uiso   1.00
Zn1917 Zn    0.50000   0.25000   0.88437   0.00000  Uiso   1.00
Zn1918 Zn    0.50000   0.25000   0.78229   0.00000  Uiso   1.00
Zn1919 Zn    0.75000   0.00000   0.88437   0.00000  Uiso   1.00
Zn1920 Zn    0.75000  -0.00000   0.78229   0.00000  Uiso   1.00
C1921  C     0.06298   0.69361   0.83252   0.00000  Uiso   1.00
C1922  C     0.49732   0.71000   0.97273   0.00000  Uiso   1.00
C1923  C     0.00199   0.70973   0.68702   0.00000  Uiso   1.00
C1924  C     0.00624   0.78938   0.97945   0.00000  Uiso   1.00
C1925  C     0.25348   0.53999   0.69375   0.00000  Uiso   1.00
C1926  C     0.24820   0.96004   0.97289   0.00000  Uiso   1.00
C1927  C     0.25237   0.96016   0.68713   0.00000  Uiso   1.00
C1928  C     0.25658   0.53938   0.97934   0.00000  Uiso   1.00
C1929  C     0.40359   0.62213   0.79850   0.00000  Uiso   1.00
C1930  C     0.08619   0.88638   0.85989   0.00000  Uiso   1.00
C1931  C     0.12588   0.83685   0.80527   0.00000  Uiso   1.00
C1932  C     0.43951   0.80930   0.83442   0.00000  Uiso   1.00
C1933  C     0.36879   0.66884   0.85928   0.00000  Uiso   1.00
C1934  C     0.12369   0.66115   0.87182   0.00000  Uiso   1.00
C1935  C     0.37078   0.83361   0.80497   0.00000  Uiso   1.00
C1936  C     0.40208   0.87446   0.87224   0.00000  Uiso   1.00
C1937  C     0.11392   0.64079   0.79107   0.00000  Uiso   1.00
C1938  C     0.15236   0.87312   0.79789   0.00000  Uiso   1.00
C1939  C     0.33643   0.63614   0.85944   0.00000  Uiso   1.00
C1940  C     0.37642   0.58611   0.80497   0.00000  Uiso   1.00
C1941  C     0.11877   0.91889   0.85996   0.00000  Uiso   1.00
C1942  C     0.37376   0.91034   0.86827   0.00000  Uiso   1.00
C1943  C     0.43904   0.69105   0.83207   0.00000  Uiso   1.00
C1944  C     0.13302   0.59873   0.79599   0.00000  Uiso   1.00
C1945  C     0.15102   0.62405   0.87432   0.00000  Uiso   1.00
C1946  C     0.33771   0.86524   0.80639   0.00000  Uiso   1.00
C1947  C     0.09234   0.84399   0.83573   0.00000  Uiso   1.00
C1948  C     0.40303   0.66065   0.82941   0.00000  Uiso   1.00
C1949  C     0.40385   0.83970   0.83710   0.00000  Uiso   1.00
C1950  C     0.10195   0.66673   0.83095   0.00000  Uiso   1.00
C1951  C     0.34267   0.59361   0.83539   0.00000  Uiso   1.00
C1952  C     0.15250   0.91123   0.82930   0.00000  Uiso   1.00
C1953  C     0.15584   0.59331   0.83595   0.00000  Uiso   1.00
C1954  C     0.05958   0.81025   0.83446   0.00000  Uiso   1.00
C1955  C     0.34273   0.90623   0.83342   0.00000  Uiso   1.00
C1956  C     0.00395   0.83412   0.72071   0.00000  Uiso   1.00
C1957  C     0.49024   0.66652   0.94531   0.00000  Uiso   1.00
C1958  C     0.01498   0.66615   0.70518   0.00000  Uiso   1.00
C1959  C     0.02706   0.82850   0.96133   0.00000  Uiso   1.00
C1960  C     0.26074   0.58342   0.72107   0.00000  Uiso   1.00
C1961  C     0.24479   0.91598   0.94577   0.00000  Uiso   1.00
C1962  C     0.26915   0.91897   0.70543   0.00000  Uiso   1.00
C1963  C     0.27626   0.57868   0.96055   0.00000  Uiso   1.00
C1964  C     0.40651   0.63981   0.72142   0.00000  Uiso   1.00
C1965  C     0.31003   0.94017   0.83283   0.00000  Uiso   1.00
C1966  C     0.01455   0.91303   0.84735   0.00000  Uiso   1.00
C1967  C     0.16572   0.76590   0.79515   0.00000  Uiso   1.00
C1968  C     0.37101   0.71432   0.93168   0.00000  Uiso   1.00
C1969  C     0.13963   0.73583   0.90861   0.00000  Uiso   1.00
C1970  C     0.37633   0.79611   0.72908   0.00000  Uiso   1.00
C1971  C     0.40597   0.84830   0.94646   0.00000  Uiso   1.00
C1972  C     0.15022   0.65946   0.72249   0.00000  Uiso   1.00
C1973  C     0.15335   0.89277   0.72144   0.00000  Uiso   1.00
C1974  C     0.26413   0.66242   0.84838   0.00000  Uiso   1.00
C1975  C     0.41565   0.51524   0.78362   0.00000  Uiso   1.00
C1976  C     0.18894   0.55909   0.83426   0.00000  Uiso   1.00
C1977  C     0.12240   0.96157   0.93363   0.00000  Uiso   1.00
C1978  C     0.39387   0.98868   0.89157   0.00000  Uiso   1.00
C1979  C     0.12906   0.54624   0.72671   0.00000  Uiso   1.00
C1980  C     0.14909   0.58794   0.94416   0.00000  Uiso   1.00
C1981  C     0.26757   0.83695   0.82147   0.00000  Uiso   1.00
C1982  C     0.18888   0.94122   0.83205   0.00000  Uiso   1.00
C1983  C     0.30972   0.56009   0.83437   0.00000  Uiso   1.00
C1984  C     0.00189   0.79000   0.69366   0.00000  Uiso   1.00
H1985  H     0.04091   0.88641   0.74612   0.00000  Uiso   1.00
H1986  H     0.42901   0.64220   0.69337   0.00000  Uiso   1.00
H1987  H     0.39386   0.67449   0.73108   0.00000  Uiso   1.00
H1988  H     0.37996   0.61702   0.70916   0.00000  Uiso   1.00
H1989  H     0.04729   0.91999   0.90783   0.00000  Uiso   1.00
H1990  H     0.02694   0.94293   0.83091   0.00000  Uiso   1.00
H1991  H     0.48460   0.92330   0.86490   0.00000  Uiso   1.00
H1992  H     0.00679   0.88504   0.82147   0.00000  Uiso   1.00
H1993  H     0.12824   0.79446   0.74589   0.00000  Uiso   1.00
H1994  H     0.19108   0.76247   0.76930   0.00000  Uiso   1.00
H1995  H     0.15327   0.73166   0.80045   0.00000  Uiso   1.00
H1996  H     0.44860   0.61674   0.92426   0.00000  Uiso   1.00
H1997  H     0.18015   0.78015   0.82745   0.00000  Uiso   1.00
H1998  H     0.37483   0.74016   0.86854   0.00000  Uiso   1.00
H1999  H     0.40336   0.72843   0.93995   0.00000  Uiso   1.00
H2000  H     0.36849   0.68022   0.94493   0.00000  Uiso   1.00
H2001  H     0.34688   0.73713   0.94875   0.00000  Uiso   1.00
H2002  H     0.11929   0.67985   0.94120   0.00000  Uiso   1.00
H2003  H     0.13354   0.75757   0.93999   0.00000  Uiso   1.00
H2004  H     0.12738   0.75408   0.88004   0.00000  Uiso   1.00
H2005  H     0.17471   0.73029   0.90533   0.00000  Uiso   1.00
H2006  H     0.37744   0.76286   0.78888   0.00000  Uiso   1.00
H2007  H     0.04711   0.60675   0.69548   0.00000  Uiso   1.00
H2008  H     0.40573   0.77647   0.71970   0.00000  Uiso   1.00
H2009  H     0.38116   0.83208   0.72127   0.00000  Uiso   1.00
H2010  H     0.34924   0.78150   0.70834   0.00000  Uiso   1.00
H2011  H     0.44034   0.90271   0.92457   0.00000  Uiso   1.00
H2012  H     0.42744   0.84655   0.97608   0.00000  Uiso   1.00
H2013  H     0.39764   0.81299   0.93350   0.00000  Uiso   1.00
H2014  H     0.37616   0.86622   0.95756   0.00000  Uiso   1.00
H2015  H     0.09631   0.68911   0.74597   0.00000  Uiso   1.00
H2016  H     0.14512   0.67848   0.69215   0.00000  Uiso   1.00
H2017  H     0.16090   0.62514   0.71058   0.00000  Uiso   1.00
H2018  H     0.08368   0.85711   0.94764   0.00000  Uiso   1.00
H2019  H     0.17589   0.67675   0.74344   0.00000  Uiso   1.00
H2020  H     0.18942   0.84172   0.74697   0.00000  Uiso   1.00
H2021  H     0.17461   0.89405   0.69206   0.00000  Uiso   1.00
H2022  H     0.14313   0.92812   0.73213   0.00000  Uiso   1.00
H2023  H     0.12484   0.87191   0.71088   0.00000  Uiso   1.00
H2024  H     0.29787   0.66921   0.90813   0.00000  Uiso   1.00
H2025  H     0.23382   0.67023   0.86646   0.00000  Uiso   1.00
H2026  H     0.25754   0.63528   0.82132   0.00000  Uiso   1.00
H2027  H     0.27513   0.69375   0.83340   0.00000  Uiso   1.00
H2028  H     0.37088   0.54707   0.74372   0.00000  Uiso   1.00
H2029  H     0.30250   0.63292   0.74247   0.00000  Uiso   1.00
H2030  H     0.43606   0.51276   0.75329   0.00000  Uiso   1.00
H2031  H     0.40411   0.98041   0.78893   0.00000  Uiso   1.00
H2032  H     0.43554   0.52808   0.81304   0.00000  Uiso   1.00
H2033  H     0.12564   0.98988   0.87139   0.00000  Uiso   1.00
H2034  H     0.15445   0.97635   0.94216   0.00000  Uiso   1.00
H2035  H     0.12113   0.92668   0.94528   0.00000  Uiso   1.00
H2036  H     0.09785   0.98279   0.95195   0.00000  Uiso   1.00
H2037  H     0.37785   0.93957   0.93487   0.00000  Uiso   1.00
H2038  H     0.39195   0.51463   0.92057   0.00000  Uiso   1.00
H2039  H     0.37752   0.50277   0.86275   0.00000  Uiso   1.00
H2040  H     0.20654   0.86451   0.92112   0.00000  Uiso   1.00
H2041  H     0.42810   0.98180   0.88387   0.00000  Uiso   1.00
H2042  H     0.08292   0.55595   0.77568   0.00000  Uiso   1.00
H2043  H     0.11992   0.51026   0.71735   0.00000  Uiso   1.00
H2044  H     0.16420   0.54884   0.72342   0.00000  Uiso   1.00
H2045  H     0.11256   0.56768   0.70299   0.00000  Uiso   1.00
H2046  H     0.18409   0.64594   0.93274   0.00000  Uiso   1.00
H2047  H     0.17038   0.57852   0.97191   0.00000  Uiso   1.00
H2048  H     0.13834   0.55621   0.92489   0.00000  Uiso   1.00
H2049  H     0.12057   0.60587   0.95869   0.00000  Uiso   1.00
H2050  H     0.29739   0.82940   0.76030   0.00000  Uiso   1.00
H2051  H     0.31421   0.86948   0.70075   0.00000  Uiso   1.00
H2052  H     0.23701   0.82642   0.80491   0.00000  Uiso   1.00
H2053  H     0.26060   0.86494   0.84738   0.00000  Uiso   1.00
H2054  H     0.28118   0.80728   0.83762   0.00000  Uiso   1.00
H2055  H     0.33231   0.60937   0.94828   0.00000  Uiso   1.00
H2056  H     0.44382   0.59120   0.75010   0.00000  Uiso   1.00
N2057  N     0.00000   0.75000   0.95240   0.00000  Uiso   1.00
N2058  N     0.36712   0.79261   0.77615   0.00000  Uiso   1.00
N2059  N     0.42716   0.87211   0.91213   0.00000  Uiso   1.00
N2060  N     0.11068   0.65797   0.74737   0.00000  Uiso   1.00
N2061  N     0.17609   0.87270   0.75755   0.00000  Uiso   1.00
N2062  N     0.29610   0.64745   0.87944   0.00000  Uiso   1.00
N2063  N     0.37911   0.54449   0.77693   0.00000  Uiso   1.00
N2064  N     0.11428   0.96156   0.88574   0.00000  Uiso   1.00
N2065  N     0.37259   0.94745   0.90229   0.00000  Uiso   1.00
N2066  N     0.11565   0.55868   0.77220   0.00000  Uiso   1.00
N2067  N     0.17228   0.61676   0.91557   0.00000  Uiso   1.00
N2068  N     0.00000   0.75000   0.71427   0.00000  Uiso   1.00
N2069  N     0.29676   0.85207   0.78837   0.00000  Uiso   1.00
N2070  N     0.25000   0.50000   0.95240   0.00000  Uiso   1.00
N2071  N     0.25000   0.50000   0.71427   0.00000  Uiso   1.00
N2072  N     0.42850   0.62149   0.75900   0.00000  Uiso   1.00
N2073  N     0.04570   0.89801   0.87926   0.00000  Uiso   1.00
N2074  N     0.13098   0.79390   0.78028   0.00000  Uiso   1.00
N2075  N     0.36347   0.71227   0.88361   0.00000  Uiso   1.00
N2076  N     0.11769   0.69274   0.91019   0.00000  Uiso   1.00
O2077  O     0.04581   0.70419   0.87154   0.00000  Uiso   1.00
O2078  O     0.20420   0.54581   0.79513   0.00000  Uiso   1.00
O2079  O     0.20420   0.54581   0.87154   0.00000  Uiso   1.00
O2080  O     0.29581   0.95419   0.79513   0.00000  Uiso   1.00
O2081  O     0.20420   0.95419   0.79513   0.00000  Uiso   1.00
O2082  O     0.29581   0.54581   0.87154   0.00000  Uiso   1.00
O2083  O     0.29581   0.54581   0.79513   0.00000  Uiso   1.00
O2084  O     0.20420   0.95419   0.87154   0.00000  Uiso   1.00
O2085  O     0.47090   0.85348   0.73270   0.00000  Uiso   1.00
O2086  O     0.04355   0.85545   0.72891   0.00000  Uiso   1.00
O2087  O     0.02018   0.64678   0.92632   0.00000  Uiso   1.00
O2088  O     0.45420   0.79581   0.79513   0.00000  Uiso   1.00
O2089  O     0.44958   0.64666   0.94357   0.00000  Uiso   1.00
O2090  O     0.00216   0.65587   0.74115   0.00000  Uiso   1.00
O2091  O     0.04233   0.63617   0.68063   0.00000  Uiso   1.00
O2092  O     0.00718   0.86361   0.95715   0.00000  Uiso   1.00
O2093  O     0.07133   0.82686   0.95503   0.00000  Uiso   1.00
O2094  O     0.23103   0.60313   0.74021   0.00000  Uiso   1.00
O2095  O     0.30150   0.60301   0.72312   0.00000  Uiso   1.00
O2096  O     0.27710   0.89662   0.93156   0.00000  Uiso   1.00
O2097  O     0.20486   0.89487   0.93960   0.00000  Uiso   1.00
O2098  O     0.25084   0.90243   0.73578   0.00000  Uiso   1.00
O2099  O     0.45420   0.79581   0.87154   0.00000  Uiso   1.00
O2100  O     0.30642   0.89892   0.68738   0.00000  Uiso   1.00
O2101  O     0.25516   0.61271   0.95510   0.00000  Uiso   1.00
O2102  O     0.32069   0.57867   0.95523   0.00000  Uiso   1.00
O2103  O     0.04581   0.70419   0.79513   0.00000  Uiso   1.00
O2104  O     0.45420   0.70419   0.79513   0.00000  Uiso   1.00
O2105  O     0.04581   0.79581   0.87154   0.00000  Uiso   1.00
O2106  O     0.04581   0.79581   0.79513   0.00000  Uiso   1.00
O2107  O     0.45420   0.70419   0.87154   0.00000  Uiso   1.00
O2108  O     0.29581   0.95419   0.87154   0.00000  Uiso   1.00
Zn2109 Zn    0.00000   0.75000   0.88437   0.00000  Uiso   1.00
Zn2110 Zn    0.00000   0.75000   0.78229   0.00000  Uiso   1.00
Zn2111 Zn    0.25000   0.50000   0.88437   0.00000  Uiso   1.00
Zn2112 Zn    0.25000   0.50000   0.78229   0.00000  Uiso   1.00
C2113  C     0.56298   0.69361   0.83252   0.00000  Uiso   1.00
C2114  C     0.99732   0.71000   0.97273   0.00000  Uiso   1.00
C2115  C     0.50199   0.70973   0.68702   0.00000  Uiso   1.00
C2116  C     0.50624   0.78938   0.97945   0.00000  Uiso   1.00
C2117  C     0.75348   0.53999   0.69375   0.00000  Uiso   1.00
C2118  C     0.74820   0.96004   0.97289   0.00000  Uiso   1.00
C2119  C     0.75237   0.96016   0.68713   0.00000  Uiso   1.00
C2120  C     0.75658   0.53938   0.97934   0.00000  Uiso   1.00
C2121  C     0.90359   0.62213   0.79850   0.00000  Uiso   1.00
C2122  C     0.58619   0.88638   0.85989   0.00000  Uiso   1.00
C2123  C     0.62588   0.83685   0.80527   0.00000  Uiso   1.00
C2124  C     0.93951   0.80930   0.83442   0.00000  Uiso   1.00
C2125  C     0.86879   0.66884   0.85928   0.00000  Uiso   1.00
C2126  C     0.62369   0.66115   0.87182   0.00000  Uiso   1.00
C2127  C     0.87078   0.83361   0.80497   0.00000  Uiso   1.00
C2128  C     0.90208   0.87446   0.87224   0.00000  Uiso   1.00
C2129  C     0.61392   0.64079   0.79107   0.00000  Uiso   1.00
C2130  C     0.65236   0.87312   0.79789   0.00000  Uiso   1.00
C2131  C     0.83643   0.63614   0.85944   0.00000  Uiso   1.00
C2132  C     0.87642   0.58611   0.80497   0.00000  Uiso   1.00
C2133  C     0.61877   0.91889   0.85996   0.00000  Uiso   1.00
C2134  C     0.87376   0.91034   0.86827   0.00000  Uiso   1.00
C2135  C     0.93904   0.69105   0.83207   0.00000  Uiso   1.00
C2136  C     0.63302   0.59873   0.79599   0.00000  Uiso   1.00
C2137  C     0.65102   0.62405   0.87432   0.00000  Uiso   1.00
C2138  C     0.83771   0.86524   0.80639   0.00000  Uiso   1.00
C2139  C     0.59234   0.84399   0.83573   0.00000  Uiso   1.00
C2140  C     0.90303   0.66065   0.82941   0.00000  Uiso   1.00
C2141  C     0.90385   0.83970   0.83710   0.00000  Uiso   1.00
C2142  C     0.60195   0.66673   0.83095   0.00000  Uiso   1.00
C2143  C     0.84267   0.59361   0.83539   0.00000  Uiso   1.00
C2144  C     0.65250   0.91123   0.82930   0.00000  Uiso   1.00
C2145  C     0.65584   0.59331   0.83595   0.00000  Uiso   1.00
C2146  C     0.55958   0.81025   0.83446   0.00000  Uiso   1.00
C2147  C     0.84273   0.90623   0.83342   0.00000  Uiso   1.00
C2148  C     0.50395   0.83412   0.72071   0.00000  Uiso   1.00
C2149  C     0.99024   0.66652   0.94531   0.00000  Uiso   1.00
C2150  C     0.51498   0.66615   0.70518   0.00000  Uiso   1.00
C2151  C     0.52706   0.82850   0.96133   0.00000  Uiso   1.00
C2152  C     0.76074   0.58342   0.72107   0.00000  Uiso   1.00
C2153  C     0.74479   0.91598   0.94577   0.00000  Uiso   1.00
C2154  C     0.76915   0.91897   0.70543   0.00000  Uiso   1.00
C2155  C     0.77626   0.57868   0.96055   0.00000  Uiso   1.00
C2156  C     0.90651   0.63981   0.72142   0.00000  Uiso   1.00
C2157  C     0.81003   0.94017   0.83283   0.00000  Uiso   1.00
C2158  C     0.51455   0.91303   0.84735   0.00000  Uiso   1.00
C2159  C     0.66572   0.76590   0.79515   0.00000  Uiso   1.00
C2160  C     0.87101   0.71432   0.93168   0.00000  Uiso   1.00
C2161  C     0.63963   0.73583   0.90861   0.00000  Uiso   1.00
C2162  C     0.87633   0.79611   0.72908   0.00000  Uiso   1.00
C2163  C     0.90597   0.84830   0.94646   0.00000  Uiso   1.00
C2164  C     0.65022   0.65946   0.72249   0.00000  Uiso   1.00
C2165  C     0.65335   0.89277   0.72144   0.00000  Uiso   1.00
C2166  C     0.76413   0.66242   0.84838   0.00000  Uiso   1.00
C2167  C     0.91565   0.51524   0.78362   0.00000  Uiso   1.00
C2168  C     0.68894   0.55909   0.83426   0.00000  Uiso   1.00
C2169  C     0.62240   0.96157   0.93363   0.00000  Uiso   1.00
C2170  C     0.89387   0.98868   0.89157   0.00000  Uiso   1.00
C2171  C     0.62906   0.54624   0.72671   0.00000  Uiso   1.00
C2172  C     0.64909   0.58794   0.94416   0.00000  Uiso   1.00
C2173  C     0.76757   0.83695   0.82147   0.00000  Uiso   1.00
C2174  C     0.68888   0.94122   0.83205   0.00000  Uiso   1.00
C2175  C     0.80972   0.56009   0.83437   0.00000  Uiso   1.00
C2176  C     0.50189   0.79000   0.69366   0.00000  Uiso   1.00
H2177  H     0.54091   0.88641   0.74612   0.00000  Uiso   1.00
H2178  H     0.92901   0.64220   0.69337   0.00000  Uiso   1.00
H2179  H     0.89386   0.67449   0.73108   0.00000  Uiso   1.00
H2180  H     0.87996   0.61702   0.70916   0.00000  Uiso   1.00
H2181  H     0.54729   0.91999   0.90783   0.00000  Uiso   1.00
H2182  H     0.52694   0.94293   0.83091   0.00000  Uiso   1.00
H2183  H     0.98460   0.92330   0.86490   0.00000  Uiso   1.00
H2184  H     0.50679   0.88504   0.82147   0.00000  Uiso   1.00
H2185  H     0.62824   0.79446   0.74589   0.00000  Uiso   1.00
H2186  H     0.69108   0.76247   0.76930   0.00000  Uiso   1.00
H2187  H     0.65327   0.73166   0.80045   0.00000  Uiso   1.00
H2188  H     0.94860   0.61674   0.92426   0.00000  Uiso   1.00
H2189  H     0.68015   0.78015   0.82745   0.00000  Uiso   1.00
H2190  H     0.87483   0.74016   0.86854   0.00000  Uiso   1.00
H2191  H     0.90336   0.72843   0.93995   0.00000  Uiso   1.00
H2192  H     0.86849   0.68022   0.94493   0.00000  Uiso   1.00
H2193  H     0.84688   0.73713   0.94875   0.00000  Uiso   1.00
H2194  H     0.61929   0.67985   0.94120   0.00000  Uiso   1.00
H2195  H     0.63354   0.75757   0.93999   0.00000  Uiso   1.00
H2196  H     0.62738   0.75408   0.88004   0.00000  Uiso   1.00
H2197  H     0.67471   0.73029   0.90533   0.00000  Uiso   1.00
H2198  H     0.87744   0.76286   0.78888   0.00000  Uiso   1.00
H2199  H     0.54711   0.60675   0.69548   0.00000  Uiso   1.00
H2200  H     0.90573   0.77647   0.71970   0.00000  Uiso   1.00
H2201  H     0.88116   0.83208   0.72127   0.00000  Uiso   1.00
H2202  H     0.84924   0.78150   0.70834   0.00000  Uiso   1.00
H2203  H     0.94034   0.90271   0.92457   0.00000  Uiso   1.00
H2204  H     0.92744   0.84655   0.97608   0.00000  Uiso   1.00
H2205  H     0.89764   0.81299   0.93350   0.00000  Uiso   1.00
H2206  H     0.87616   0.86622   0.95756   0.00000  Uiso   1.00
H2207  H     0.59631   0.68911   0.74597   0.00000  Uiso   1.00
H2208  H     0.64512   0.67848   0.69215   0.00000  Uiso   1.00
H2209  H     0.66090   0.62514   0.71058   0.00000  Uiso   1.00
H2210  H     0.58368   0.85711   0.94764   0.00000  Uiso   1.00
H2211  H     0.67589   0.67675   0.74344   0.00000  Uiso   1.00
H2212  H     0.68942   0.84172   0.74697   0.00000  Uiso   1.00
H2213  H     0.67461   0.89405   0.69206   0.00000  Uiso   1.00
H2214  H     0.64313   0.92812   0.73213   0.00000  Uiso   1.00
H2215  H     0.62484   0.87191   0.71088   0.00000  Uiso   1.00
H2216  H     0.79787   0.66921   0.90813   0.00000  Uiso   1.00
H2217  H     0.73382   0.67023   0.86646   0.00000  Uiso   1.00
H2218  H     0.75754   0.63528   0.82132   0.00000  Uiso   1.00
H2219  H     0.77513   0.69375   0.83340   0.00000  Uiso   1.00
H2220  H     0.87088   0.54707   0.74372   0.00000  Uiso   1.00
H2221  H     0.80250   0.63292   0.74247   0.00000  Uiso   1.00
H2222  H     0.93606   0.51276   0.75329   0.00000  Uiso   1.00
H2223  H     0.90411   0.98041   0.78893   0.00000  Uiso   1.00
H2224  H     0.93554   0.52808   0.81304   0.00000  Uiso   1.00
H2225  H     0.62564   0.98988   0.87139   0.00000  Uiso   1.00
H2226  H     0.65445   0.97635   0.94216   0.00000  Uiso   1.00
H2227  H     0.62113   0.92668   0.94528   0.00000  Uiso   1.00
H2228  H     0.59785   0.98279   0.95195   0.00000  Uiso   1.00
H2229  H     0.87785   0.93957   0.93487   0.00000  Uiso   1.00
H2230  H     0.89195   0.51463   0.92057   0.00000  Uiso   1.00
H2231  H     0.87752   0.50277   0.86275   0.00000  Uiso   1.00
H2232  H     0.70654   0.86451   0.92112   0.00000  Uiso   1.00
H2233  H     0.92810   0.98180   0.88387   0.00000  Uiso   1.00
H2234  H     0.58292   0.55595   0.77568   0.00000  Uiso   1.00
H2235  H     0.61992   0.51026   0.71735   0.00000  Uiso   1.00
H2236  H     0.66420   0.54884   0.72342   0.00000  Uiso   1.00
H2237  H     0.61256   0.56768   0.70299   0.00000  Uiso   1.00
H2238  H     0.68409   0.64594   0.93274   0.00000  Uiso   1.00
H2239  H     0.67038   0.57852   0.97191   0.00000  Uiso   1.00
H2240  H     0.63834   0.55621   0.92489   0.00000  Uiso   1.00
H2241  H     0.62057   0.60587   0.95869   0.00000  Uiso   1.00
H2242  H     0.79739   0.82940   0.76030   0.00000  Uiso   1.00
H2243  H     0.81421   0.86948   0.70075   0.00000  Uiso   1.00
H2244  H     0.73701   0.82642   0.80491   0.00000  Uiso   1.00
H2245  H     0.76060   0.86494   0.84738   0.00000  Uiso   1.00
H2246  H     0.78118   0.80728   0.83762   0.00000  Uiso   1.00
H2247  H     0.83231   0.60937   0.94828   0.00000  Uiso   1.00
H2248  H     0.94382   0.59120   0.75010   0.00000  Uiso   1.00
N2249  N     0.50000   0.75000   0.95240   0.00000  Uiso   1.00
N2250  N     0.86712   0.79261   0.77615   0.00000  Uiso   1.00
N2251  N     0.92716   0.87211   0.91213   0.00000  Uiso   1.00
N2252  N     0.61068   0.65797   0.74737   0.00000  Uiso   1.00
N2253  N     0.67609   0.87270   0.75755   0.00000  Uiso   1.00
N2254  N     0.79610   0.64745   0.87944   0.00000  Uiso   1.00
N2255  N     0.87911   0.54449   0.77693   0.00000  Uiso   1.00
N2256  N     0.61428   0.96156   0.88574   0.00000  Uiso   1.00
N2257  N     0.87259   0.94745   0.90229   0.00000  Uiso   1.00
N2258  N     0.61565   0.55868   0.77220   0.00000  Uiso   1.00
N2259  N     0.67228   0.61676   0.91557   0.00000  Uiso   1.00
N2260  N     0.50000   0.75000   0.71427   0.00000  Uiso   1.00
N2261  N     0.79676   0.85207   0.78837   0.00000  Uiso   1.00
N2262  N     0.75000   0.50000   0.95240   0.00000  Uiso   1.00
N2263  N     0.75000   0.50000   0.71427   0.00000  Uiso   1.00
N2264  N     0.92850   0.62149   0.75900   0.00000  Uiso   1.00
N2265  N     0.54570   0.89801   0.87926   0.00000  Uiso   1.00
N2266  N     0.63098   0.79390   0.78028   0.00000  Uiso   1.00
N2267  N     0.86347   0.71227   0.88361   0.00000  Uiso   1.00
N2268  N     0.61769   0.69274   0.91019   0.00000  Uiso   1.00
O2269  O     0.54581   0.70419   0.87154   0.00000  Uiso   1.00
O2270  O     0.70420   0.54581   0.79513   0.00000  Uiso   1.00
O2271  O     0.70420   0.54581   0.87154   0.00000  Uiso   1.00
O2272  O     0.79581   0.95419   0.79513   0.00000  Uiso   1.00
O2273  O     0.70420   0.95419   0.79513   0.00000  Uiso   1.00
O2274  O     0.79581   0.54581   0.87154   0.00000  Uiso   1.00
O2275  O     0.79581   0.54581   0.79513   0.00000  Uiso   1.00
O2276  O     0.70420   0.95419   0.87154   0.00000  Uiso   1.00
O2277  O     0.97090   0.85348   0.73270   0.00000  Uiso   1.00
O2278  O     0.54355   0.85545   0.72891   0.00000  Uiso   1.00
O2279  O     0.52018   0.64678   0.92632   0.00000  Uiso   1.00
O2280  O     0.95420   0.79581   0.79513   0.00000  Uiso   1.00
O2281  O     0.94958   0.64666   0.94357   0.00000  Uiso   1.00
O2282  O     0.50216   0.65587   0.74115   0.00000  Uiso   1.00
O2283  O     0.54233   0.63617   0.68063   0.00000  Uiso   1.00
O2284  O     0.50718   0.86361   0.95715   0.00000  Uiso   1.00
O2285  O     0.57133   0.82686   0.95503   0.00000  Uiso   1.00
O2286  O     0.73103   0.60313   0.74021   0.00000  Uiso   1.00
O2287  O     0.80150   0.60301   0.72312   0.00000  Uiso   1.00
O2288  O     0.77710   0.89662   0.93156   0.00000  Uiso   1.00
O2289  O     0.70486   0.89487   0.93960   0.00000  Uiso   1.00
O2290  O     0.75084   0.90243   0.73578   0.00000  Uiso   1.00
O2291  O     0.95420   0.79581   0.87154   0.00000  Uiso   1.00
O2292  O     0.80642   0.89892   0.68738   0.00000  Uiso   1.00
O2293  O     0.75516   0.61271   0.95510   0.00000  Uiso   1.00
O2294  O     0.82069   0.57867   0.95523   0.00000  Uiso   1.00
O2295  O     0.54581   0.70419   0.79513   0.00000  Uiso   1.00
O2296  O     0.95420   0.70419   0.79513   0.00000  Uiso   1.00
O2297  O     0.54581   0.79581   0.87154   0.00000  Uiso   1.00
O2298  O     0.54581   0.79581   0.79513   0.00000  Uiso   1.00
O2299  O     0.95420   0.70419   0.87154   0.00000  Uiso   1.00
O2300  O     0.79581   0.95419   0.87154   0.00000  Uiso   1.00
Zn2301 Zn    0.50000   0.75000   0.88437   0.00000  Uiso   1.00
Zn2302 Zn    0.50000   0.75000   0.78229   0.00000  Uiso   1.00
Zn2303 Zn    0.75000   0.50000   0.88437   0.00000  Uiso   1.00
Zn2304 Zn    0.75000   0.50000   0.78229   0.00000  Uiso   1.00
loop_
_geom_bond_atom_site_label_1
_geom_bond_atom_site_label_2
_geom_bond_distance
_geom_bond_site_symmetry_2
_ccdc_geom_bond_type
C1     O183    1.293   .     A
C1     C30     1.450   .     S
C1     O157    1.303   .     A
C2     C37     1.479   .     S
C2     C963    1.429   .     S
C2     N329    1.369   .     S
C3     C38     1.485   .     S
C3     N148    1.385   .     A
C3     C1730   1.429   1_454 S
C4     N137    1.372   .     A
C4     C39     1.465   .     S
C4     C832    1.427   .     S
C5     N151    1.373   .     A
C5     C40     1.477   .     S
C5     C1544   1.429   1_554 S
C6     C41     1.477   .     S
C6     C775    1.425   .     S
C6     N534    1.369   .     S
C7     C42     1.462   .     S
C7     C1542   1.425   1_554 S
C7     N535    1.374   .     S
C8     C43     1.462   .     S
C8     N150    1.372   .     A
C8     C773    1.429   .     S
C9     N152    1.419   .     S
C9     C20     1.384   .     A
C9     C28     1.404   .     A
C10    C27     1.405   .     A
C10    C21     1.396   .     A
C10    N153    1.426   .     S
C11    C18     1.383   .     A
C11    N154    1.426   .     S
C11    C27     1.399   .     A
C12    C29     1.427   .     S
C12    O168    1.297   .     A
C12    O179    1.286   .     A
C13    N155    1.430   .     S
C13    C28     1.408   .     A
C13    C19     1.395   .     A
C14    C30     1.411   .     A
C14    N156    1.431   .     S
C14    C25     1.391   .     A
C15    C29     1.404   .     A
C15    N138    1.430   .     S
C15    C26     1.388   .     A
C16    C29     1.408   .     A
C16    N139    1.425   .     S
C16    C22     1.388   .     A
C17    C30     1.417   .     A
C17    C24     1.391   .     A
C17    N140    1.439   .     S
C18    C32     1.404   .     A
C18    N141    1.420   .     S
C19    C31     1.407   .     A
C19    N142    1.427   .     S
C20    N143    1.431   .     S
C20    C31     1.405   .     A
C21    N144    1.428   .     S
C21    C32     1.409   .     A
C22    C35     1.412   .     A
C22    N145    1.433   .     S
C23    C28     1.434   .     S
C23    O184    1.292   .     A
C23    O187    1.296   .     A
C24    C33     1.403   .     A
C24    N146    1.431   .     S
C25    N147    1.424   .     S
C25    C33     1.412   .     A
C26    C35     1.405   .     A
C26    N149    1.424   .     S
C27    C34     1.423   .     S
C31    C63     1.423   .     S
C32    C62     1.436   .     S
C33    C56     1.441   .     S
C34    O186    1.287   .     A
C34    O185    1.295   .     A
C35    C45     1.428   .     S
C36    O166    1.397   .     S
C36    C64     1.475   .     S
C36    O357    1.221   1_455 S
C37    O169    1.396   .     S
C37    O359    1.221   .     S
C38    O171    1.398   .     S
C38    O170    1.211   .     D
C39    O173    1.397   .     S
C39    O172    1.219   .     D
C40    O174    1.217   .     D
C40    O175    1.396   .     S
C41    O177    1.397   .     S
C41    O176    1.222   .     D
C42    O178    1.211   .     D
C42    O180    1.398   .     S
C43    O181    1.219   .     D
C43    O182    1.398   .     S
C44    H66     1.106   .     S
C44    N152    1.449   .     S
C44    H68     1.107   .     S
C44    H67     1.112   .     S
C45    O160    1.303   .     A
C45    O188    1.281   .     A
C46    H72     1.109   .     S
C46    H70     1.112   .     S
C46    N153    1.448   .     S
C46    H263    1.107   1_455 S
C47    H77     1.112   .     S
C47    H74     1.111   .     S
C47    N154    1.448   .     S
C47    H75     1.103   .     S
C48    H79     1.110   .     S
C48    H81     1.110   .     S
C48    N155    1.449   .     S
C48    H80     1.110   .     S
C49    N156    1.445   .     S
C49    H85     1.111   .     S
C49    H84     1.108   .     S
C49    H83     1.110   .     S
C50    H89     1.112   .     S
C50    H90     1.110   .     S
C50    H88     1.111   .     S
C50    N138    1.450   .     S
C51    H92     1.109   .     S
C51    H93     1.109   .     S
C51    H94     1.110   .     S
C51    N139    1.451   .     S
C52    H97     1.097   .     S
C52    H99     1.110   .     S
C52    N140    1.450   .     S
C52    H96     1.112   .     S
C53    N141    1.449   .     S
C53    H101    1.109   .     S
C53    H102    1.111   .     S
C53    H103    1.110   .     S
C54    H107    1.112   .     S
C54    H106    1.108   .     S
C54    N142    1.447   .     S
C54    H105    1.109   .     S
C55    H112    1.112   .     S
C55    N143    1.450   .     S
C55    H110    1.111   .     S
C55    H495    1.110   1_545 S
C56    O159    1.295   .     A
C56    O158    1.298   .     A
C57    H115    1.110   .     S
C57    H116    1.110   .     S
C57    N144    1.450   .     S
C57    H114    1.110   .     S
C58    N145    1.442   .     S
C58    H121    1.110   .     S
C58    H502    1.111   .     S
C58    H503    1.105   .     S
C59    H123    1.110   .     S
C59    H124    1.105   .     S
C59    H125    1.108   .     S
C59    N146    1.446   .     S
C60    N147    1.449   .     S
C60    H127    1.109   .     S
C60    H128    1.108   .     S
C60    H129    1.110   .     S
C61    H133    1.108   .     S
C61    H132    1.103   .     S
C61    H134    1.112   .     S
C61    N149    1.447   .     S
C62    O161    1.292   .     A
C62    O164    1.297   .     A
C63    O162    1.297   .     A
C63    O163    1.285   .     A
C64    N148    1.372   .     A
C64    C1540   1.427   1_554 S
H65    O166    1.014   .     S
H69    N153    1.030   .     S
H71    C238    1.107   .     S
H73    N154    1.031   .     S
H76    O169    1.014   .     S
H78    N155    1.031   .     S
H82    N156    1.029   .     S
H86    N138    1.031   .     S
H87    O171    1.013   .     S
H91    N139    1.030   .     S
H95    N140    1.023   .     S
H98    O173    1.011   .     S
H100   N141    1.030   .     S
H104   N142    1.030   .     S
H108   N143    1.031   .     S
H109   O175    1.014   .     S
H111   C439    1.110   .     S
H113   N144    1.031   .     S
H117   N145    1.029   .     S
H118   C442    1.111   1_545 S
H119   C442    1.105   1_545 S
H120   O177    1.014   .     S
H122   N146    1.032   .     S
H126   N147    1.031   .     S
H130   N149    1.030   .     S
H131   O180    1.010   .     S
H135   O182    1.010   .     S
H136   N152    1.029   .     S
N137   Zn189   2.032   .     S
N137   C194    1.369   1_455 S
N148   Zn190   2.032   .     S
N150   Zn191   2.032   .     S
N150   C390    1.369   1_545 S
N151   C391    1.374   1_545 S
N151   Zn192   2.032   .     S
O157   Zn189   1.984   .     S
O158   Zn192   1.984   .     S
O159   Zn191   2.019   .     S
O160   Zn576   2.019   .     S
O161   Zn576   2.025   .     S
O162   Zn191   2.025   .     S
O163   Zn192   1.979   .     S
O164   Zn575   1.979   .     S
O165   C228    1.221   .     S
O167   C229    1.221   1_455 S
O168   Zn382   1.984   .     S
O179   Zn381   2.019   .     S
O183   Zn190   2.019   .     S
O184   Zn382   2.025   .     S
O185   Zn189   2.025   .     S
O186   Zn190   1.979   .     S
O187   Zn381   1.979   .     S
O188   Zn575   1.984   .     S
Zn189  O379    1.979   1_455 S
Zn189  O371    2.019   1_455 S
Zn190  O360    1.984   1_455 S
Zn190  O376    2.025   1_455 S
Zn191  O548    1.979   1_545 S
Zn191  O572    1.984   1_545 S
Zn192  O545    2.025   1_545 S
Zn192  O544    2.019   1_545 S
C193   O375    1.293   .     A
C193   C222    1.450   .     S
C193   O349    1.303   .     A
C194   C229    1.479   .     S
C194   C771    1.429   1_655 S
C194   N137    1.369   1_655 S
C195   C230    1.485   .     S
C195   N340    1.385   .     A
C195   C1538   1.429   1_554 S
C196   N329    1.372   .     A
C196   C231    1.465   .     S
C196   C1024   1.427   .     S
C197   N343    1.373   .     A
C197   C232    1.477   .     S
C197   C1736   1.429   1_554 S
C198   C233    1.477   .     S
C198   C967    1.425   .     S
C198   N726    1.369   .     S
C199   C234    1.462   .     S
C199   C1734   1.425   1_554 S
C199   N727    1.374   .     S
C200   C235    1.462   .     S
C200   N342    1.372   .     A
C200   C965    1.429   .     S
C201   N344    1.419   .     S
C201   C212    1.384   .     A
C201   C220    1.404   .     A
C202   C219    1.405   .     A
C202   C213    1.396   .     A
C202   N345    1.426   .     S
C203   C210    1.383   .     A
C203   N346    1.426   .     S
C203   C219    1.399   .     A
C204   C221    1.427   .     S
C204   O360    1.297   .     A
C204   O371    1.286   .     A
C205   N347    1.430   .     S
C205   C220    1.408   .     A
C205   C211    1.395   .     A
C206   C222    1.411   .     A
C206   N348    1.431   .     S
C206   C217    1.391   .     A
C207   C221    1.404   .     A
C207   N330    1.430   .     S
C207   C218    1.388   .     A
C208   C221    1.408   .     A
C208   N331    1.425   .     S
C208   C214    1.388   .     A
C209   C222    1.417   .     A
C209   C216    1.391   .     A
C209   N332    1.439   .     S
C210   C224    1.404   .     A
C210   N333    1.420   .     S
C211   C223    1.407   .     A
C211   N334    1.427   .     S
C212   N335    1.431   .     S
C212   C223    1.405   .     A
C213   N336    1.428   .     S
C213   C224    1.409   .     A
C214   C227    1.412   .     A
C214   N337    1.433   .     S
C215   C220    1.434   .     S
C215   O376    1.292   .     A
C215   O379    1.296   .     A
C216   C225    1.403   .     A
C216   N338    1.431   .     S
C217   N339    1.424   .     S
C217   C225    1.412   .     A
C218   C227    1.405   .     A
C218   N341    1.424   .     S
C219   C226    1.423   .     S
C223   C255    1.423   .     S
C224   C254    1.436   .     S
C225   C248    1.441   .     S
C226   O378    1.287   .     A
C226   O377    1.295   .     A
C227   C237    1.428   .     S
C228   O358    1.397   .     S
C228   C256    1.475   .     S
C229   O361    1.396   .     S
C229   O167    1.221   1_655 S
C230   O363    1.398   .     S
C230   O362    1.211   .     D
C231   O365    1.397   .     S
C231   O364    1.219   .     D
C232   O366    1.217   .     D
C232   O367    1.396   .     S
C233   O369    1.397   .     S
C233   O368    1.222   .     D
C234   O370    1.211   .     D
C234   O372    1.398   .     S
C235   O373    1.219   .     D
C235   O374    1.398   .     S
C236   H258    1.106   .     S
C236   N344    1.449   .     S
C236   H260    1.107   .     S
C236   H259    1.112   .     S
C237   O352    1.303   .     A
C237   O380    1.281   .     A
C238   H264    1.109   .     S
C238   H262    1.112   .     S
C238   N345    1.448   .     S
C239   H269    1.112   .     S
C239   H266    1.111   .     S
C239   N346    1.448   .     S
C239   H267    1.103   .     S
C240   H271    1.110   .     S
C240   H273    1.110   .     S
C240   N347    1.449   .     S
C240   H272    1.110   .     S
C241   N348    1.445   .     S
C241   H277    1.111   .     S
C241   H276    1.108   .     S
C241   H275    1.110   .     S
C242   H281    1.112   .     S
C242   H282    1.110   .     S
C242   H280    1.111   .     S
C242   N330    1.450   .     S
C243   H284    1.109   .     S
C243   H285    1.109   .     S
C243   H286    1.110   .     S
C243   N331    1.451   .     S
C244   H289    1.097   .     S
C244   H291    1.110   .     S
C244   N332    1.450   .     S
C244   H288    1.112   .     S
C245   N333    1.449   .     S
C245   H293    1.109   .     S
C245   H294    1.111   .     S
C245   H295    1.110   .     S
C246   H299    1.112   .     S
C246   H298    1.108   .     S
C246   N334    1.447   .     S
C246   H297    1.109   .     S
C247   H304    1.112   .     S
C247   N335    1.450   .     S
C247   H302    1.111   .     S
C247   H687    1.110   1_545 S
C248   O351    1.295   .     A
C248   O350    1.298   .     A
C249   H307    1.110   .     S
C249   H308    1.110   .     S
C249   N336    1.450   .     S
C249   H306    1.110   .     S
C250   N337    1.442   .     S
C250   H313    1.110   .     S
C250   H694    1.111   .     S
C250   H695    1.105   .     S
C251   H315    1.110   .     S
C251   H316    1.105   .     S
C251   H317    1.108   .     S
C251   N338    1.446   .     S
C252   N339    1.449   .     S
C252   H319    1.109   .     S
C252   H320    1.108   .     S
C252   H321    1.110   .     S
C253   H325    1.108   .     S
C253   H324    1.103   .     S
C253   H326    1.112   .     S
C253   N341    1.447   .     S
C254   O353    1.292   .     A
C254   O356    1.297   .     A
C255   O354    1.297   .     A
C255   O355    1.285   .     A
C256   N340    1.372   .     A
C256   C1732   1.427   1_554 S
H257   O358    1.014   .     S
H261   N345    1.030   .     S
H263   C46     1.107   1_655 S
H265   N346    1.031   .     S
H268   O361    1.014   .     S
H270   N347    1.031   .     S
H274   N348    1.029   .     S
H278   N330    1.031   .     S
H279   O363    1.013   .     S
H283   N331    1.030   .     S
H287   N332    1.023   .     S
H290   O365    1.011   .     S
H292   N333    1.030   .     S
H296   N334    1.030   .     S
H300   N335    1.031   .     S
H301   O367    1.014   .     S
H303   C631    1.110   .     S
H305   N336    1.031   .     S
H309   N337    1.029   .     S
H310   C634    1.111   1_545 S
H311   C634    1.105   1_545 S
H312   O369    1.014   .     S
H314   N338    1.032   .     S
H318   N339    1.031   .     S
H322   N341    1.030   .     S
H323   O372    1.010   .     S
H327   O374    1.010   .     S
H328   N344    1.029   .     S
N329   Zn381   2.032   .     S
N340   Zn382   2.032   .     S
N342   Zn383   2.032   .     S
N342   C582    1.369   1_545 S
N343   C583    1.374   1_545 S
N343   Zn384   2.032   .     S
O349   Zn381   1.984   .     S
O350   Zn384   1.984   .     S
O351   Zn383   2.019   .     S
O352   Zn768   2.019   .     S
O353   Zn768   2.025   .     S
O354   Zn383   2.025   .     S
O355   Zn384   1.979   .     S
O356   Zn767   1.979   .     S
O357   C36     1.221   1_655 S
O360   Zn190   1.984   1_655 S
O371   Zn189   2.019   1_655 S
O375   Zn382   2.019   .     S
O376   Zn190   2.025   1_655 S
O377   Zn381   2.025   .     S
O378   Zn382   1.979   .     S
O379   Zn189   1.979   1_655 S
O380   Zn767   1.984   .     S
Zn383  O740    1.979   1_545 S
Zn383  O764    1.984   1_545 S
Zn384  O737    2.025   1_545 S
Zn384  O736    2.019   1_545 S
C385   O567    1.293   .     A
C385   C414    1.450   .     S
C385   O541    1.303   .     A
C386   C421    1.479   .     S
C386   C1347   1.429   .     S
C386   N713    1.369   .     S
C387   C422    1.485   .     S
C387   N532    1.385   .     A
C387   C2114   1.429   1_454 S
C388   N521    1.372   .     A
C388   C423    1.465   .     S
C388   C1216   1.427   .     S
C389   N535    1.373   .     A
C389   C424    1.477   .     S
C389   C1928   1.429   1_554 S
C390   C425    1.477   .     S
C390   C1159   1.425   .     S
C390   N150    1.369   1_565 S
C391   C426    1.462   .     S
C391   C1926   1.425   1_554 S
C391   N151    1.374   1_565 S
C392   C427    1.462   .     S
C392   N534    1.372   .     A
C392   C1157   1.429   .     S
C393   N536    1.419   .     S
C393   C404    1.384   .     A
C393   C412    1.404   .     A
C394   C411    1.405   .     A
C394   C405    1.396   .     A
C394   N537    1.426   .     S
C395   C402    1.383   .     A
C395   N538    1.426   .     S
C395   C411    1.399   .     A
C396   C413    1.427   .     S
C396   O552    1.297   .     A
C396   O563    1.286   .     A
C397   N539    1.430   .     S
C397   C412    1.408   .     A
C397   C403    1.395   .     A
C398   C414    1.411   .     A
C398   N540    1.431   .     S
C398   C409    1.391   .     A
C399   C413    1.404   .     A
C399   N522    1.430   .     S
C399   C410    1.388   .     A
C400   C413    1.408   .     A
C400   N523    1.425   .     S
C400   C406    1.388   .     A
C401   C414    1.417   .     A
C401   C408    1.391   .     A
C401   N524    1.439   .     S
C402   C416    1.404   .     A
C402   N525    1.420   .     S
C403   C415    1.407   .     A
C403   N526    1.427   .     S
C404   N527    1.431   .     S
C404   C415    1.405   .     A
C405   N528    1.428   .     S
C405   C416    1.409   .     A
C406   C419    1.412   .     A
C406   N529    1.433   .     S
C407   C412    1.434   .     S
C407   O568    1.292   .     A
C407   O571    1.296   .     A
C408   C417    1.403   .     A
C408   N530    1.431   .     S
C409   N531    1.424   .     S
C409   C417    1.412   .     A
C410   C419    1.405   .     A
C410   N533    1.424   .     S
C411   C418    1.423   .     S
C415   C447    1.423   .     S
C416   C446    1.436   .     S
C417   C440    1.441   .     S
C418   O570    1.287   .     A
C418   O569    1.295   .     A
C419   C429    1.428   .     S
C420   O550    1.397   .     S
C420   C448    1.475   .     S
C420   O741    1.221   1_455 S
C421   O553    1.396   .     S
C421   O743    1.221   .     S
C422   O555    1.398   .     S
C422   O554    1.211   .     D
C423   O557    1.397   .     S
C423   O556    1.219   .     D
C424   O558    1.217   .     D
C424   O559    1.396   .     S
C425   O561    1.397   .     S
C425   O560    1.222   .     D
C426   O562    1.211   .     D
C426   O564    1.398   .     S
C427   O565    1.219   .     D
C427   O566    1.398   .     S
C428   H450    1.106   .     S
C428   N536    1.449   .     S
C428   H452    1.107   .     S
C428   H451    1.112   .     S
C429   O544    1.303   .     A
C429   O572    1.281   .     A
C430   H456    1.109   .     S
C430   H454    1.112   .     S
C430   N537    1.448   .     S
C430   H647    1.107   1_455 S
C431   H461    1.112   .     S
C431   H458    1.111   .     S
C431   N538    1.448   .     S
C431   H459    1.103   .     S
C432   H463    1.110   .     S
C432   H465    1.110   .     S
C432   N539    1.449   .     S
C432   H464    1.110   .     S
C433   N540    1.445   .     S
C433   H469    1.111   .     S
C433   H468    1.108   .     S
C433   H467    1.110   .     S
C434   H473    1.112   .     S
C434   H474    1.110   .     S
C434   H472    1.111   .     S
C434   N522    1.450   .     S
C435   H476    1.109   .     S
C435   H477    1.109   .     S
C435   H478    1.110   .     S
C435   N523    1.451   .     S
C436   H481    1.097   .     S
C436   H483    1.110   .     S
C436   N524    1.450   .     S
C436   H480    1.112   .     S
C437   N525    1.449   .     S
C437   H485    1.109   .     S
C437   H486    1.111   .     S
C437   H487    1.110   .     S
C438   H491    1.112   .     S
C438   H490    1.108   .     S
C438   N526    1.447   .     S
C438   H489    1.109   .     S
C439   H496    1.112   .     S
C439   N527    1.450   .     S
C439   H494    1.111   .     S
C440   O543    1.295   .     A
C440   O542    1.298   .     A
C441   H499    1.110   .     S
C441   H500    1.110   .     S
C441   N528    1.450   .     S
C441   H498    1.110   .     S
C442   N529    1.442   .     S
C442   H505    1.110   .     S
C442   H118    1.111   1_565 S
C442   H119    1.105   1_565 S
C443   H507    1.110   .     S
C443   H508    1.105   .     S
C443   H509    1.108   .     S
C443   N530    1.446   .     S
C444   N531    1.449   .     S
C444   H511    1.109   .     S
C444   H512    1.108   .     S
C444   H513    1.110   .     S
C445   H517    1.108   .     S
C445   H516    1.103   .     S
C445   H518    1.112   .     S
C445   N533    1.447   .     S
C446   O545    1.292   .     A
C446   O548    1.297   .     A
C447   O546    1.297   .     A
C447   O547    1.285   .     A
C448   N532    1.372   .     A
C448   C1924   1.427   1_554 S
H449   O550    1.014   .     S
H453   N537    1.030   .     S
H455   C622    1.107   .     S
H457   N538    1.031   .     S
H460   O553    1.014   .     S
H462   N539    1.031   .     S
H466   N540    1.029   .     S
H470   N522    1.031   .     S
H471   O555    1.013   .     S
H475   N523    1.030   .     S
H479   N524    1.023   .     S
H482   O557    1.011   .     S
H484   N525    1.030   .     S
H488   N526    1.030   .     S
H492   N527    1.031   .     S
H493   O559    1.014   .     S
H495   C55     1.110   1_565 S
H497   N528    1.031   .     S
H501   N529    1.029   .     S
H504   O561    1.014   .     S
H506   N530    1.032   .     S
H510   N531    1.031   .     S
H514   N533    1.030   .     S
H515   O564    1.010   .     S
H519   O566    1.010   .     S
H520   N536    1.029   .     S
N521   Zn573   2.032   .     S
N521   C578    1.369   1_455 S
N532   Zn574   2.032   .     S
N534   Zn575   2.032   .     S
N535   Zn576   2.032   .     S
O541   Zn573   1.984   .     S
O542   Zn576   1.984   .     S
O543   Zn575   2.019   .     S
O544   Zn192   2.019   1_565 S
O545   Zn192   2.025   1_565 S
O546   Zn575   2.025   .     S
O547   Zn576   1.979   .     S
O548   Zn191   1.979   1_565 S
O549   C612    1.221   .     S
O551   C613    1.221   1_455 S
O552   Zn766   1.984   .     S
O563   Zn765   2.019   .     S
O567   Zn574   2.019   .     S
O568   Zn766   2.025   .     S
O569   Zn573   2.025   .     S
O570   Zn574   1.979   .     S
O571   Zn765   1.979   .     S
O572   Zn191   1.984   1_565 S
Zn573  O763    1.979   1_455 S
Zn573  O755    2.019   1_455 S
Zn574  O744    1.984   1_455 S
Zn574  O760    2.025   1_455 S
C577   O759    1.293   .     A
C577   C606    1.450   .     S
C577   O733    1.303   .     A
C578   C613    1.479   .     S
C578   C1155   1.429   1_655 S
C578   N521    1.369   1_655 S
C579   C614    1.485   .     S
C579   N724    1.385   .     A
C579   C1922   1.429   1_554 S
C580   N713    1.372   .     A
C580   C615    1.465   .     S
C580   C1408   1.427   .     S
C581   N727    1.373   .     A
C581   C616    1.477   .     S
C581   C2120   1.429   1_554 S
C582   C617    1.477   .     S
C582   C1351   1.425   .     S
C582   N342    1.369   1_565 S
C583   C618    1.462   .     S
C583   C2118   1.425   1_554 S
C583   N343    1.374   1_565 S
C584   C619    1.462   .     S
C584   N726    1.372   .     A
C584   C1349   1.429   .     S
C585   N728    1.419   .     S
C585   C596    1.384   .     A
C585   C604    1.404   .     A
C586   C603    1.405   .     A
C586   C597    1.396   .     A
C586   N729    1.426   .     S
C587   C594    1.383   .     A
C587   N730    1.426   .     S
C587   C603    1.399   .     A
C588   C605    1.427   .     S
C588   O744    1.297   .     A
C588   O755    1.286   .     A
C589   N731    1.430   .     S
C589   C604    1.408   .     A
C589   C595    1.395   .     A
C590   C606    1.411   .     A
C590   N732    1.431   .     S
C590   C601    1.391   .     A
C591   C605    1.404   .     A
C591   N714    1.430   .     S
C591   C602    1.388   .     A
C592   C605    1.408   .     A
C592   N715    1.425   .     S
C592   C598    1.388   .     A
C593   C606    1.417   .     A
C593   C600    1.391   .     A
C593   N716    1.439   .     S
C594   C608    1.404   .     A
C594   N717    1.420   .     S
C595   C607    1.407   .     A
C595   N718    1.427   .     S
C596   N719    1.431   .     S
C596   C607    1.405   .     A
C597   N720    1.428   .     S
C597   C608    1.409   .     A
C598   C611    1.412   .     A
C598   N721    1.433   .     S
C599   C604    1.434   .     S
C599   O760    1.292   .     A
C599   O763    1.296   .     A
C600   C609    1.403   .     A
C600   N722    1.431   .     S
C601   N723    1.424   .     S
C601   C609    1.412   .     A
C602   C611    1.405   .     A
C602   N725    1.424   .     S
C603   C610    1.423   .     S
C607   C639    1.423   .     S
C608   C638    1.436   .     S
C609   C632    1.441   .     S
C610   O762    1.287   .     A
C610   O761    1.295   .     A
C611   C621    1.428   .     S
C612   O742    1.397   .     S
C612   C640    1.475   .     S
C613   O745    1.396   .     S
C613   O551    1.221   1_655 S
C614   O747    1.398   .     S
C614   O746    1.211   .     D
C615   O749    1.397   .     S
C615   O748    1.219   .     D
C616   O750    1.217   .     D
C616   O751    1.396   .     S
C617   O753    1.397   .     S
C617   O752    1.222   .     D
C618   O754    1.211   .     D
C618   O756    1.398   .     S
C619   O757    1.219   .     D
C619   O758    1.398   .     S
C620   H642    1.106   .     S
C620   N728    1.449   .     S
C620   H644    1.107   .     S
C620   H643    1.112   .     S
C621   O736    1.303   .     A
C621   O764    1.281   .     A
C622   H648    1.109   .     S
C622   H646    1.112   .     S
C622   N729    1.448   .     S
C623   H653    1.112   .     S
C623   H650    1.111   .     S
C623   N730    1.448   .     S
C623   H651    1.103   .     S
C624   H655    1.110   .     S
C624   H657    1.110   .     S
C624   N731    1.449   .     S
C624   H656    1.110   .     S
C625   N732    1.445   .     S
C625   H661    1.111   .     S
C625   H660    1.108   .     S
C625   H659    1.110   .     S
C626   H665    1.112   .     S
C626   H666    1.110   .     S
C626   H664    1.111   .     S
C626   N714    1.450   .     S
C627   H668    1.109   .     S
C627   H669    1.109   .     S
C627   H670    1.110   .     S
C627   N715    1.451   .     S
C628   H673    1.097   .     S
C628   H675    1.110   .     S
C628   N716    1.450   .     S
C628   H672    1.112   .     S
C629   N717    1.449   .     S
C629   H677    1.109   .     S
C629   H678    1.111   .     S
C629   H679    1.110   .     S
C630   H683    1.112   .     S
C630   H682    1.108   .     S
C630   N718    1.447   .     S
C630   H681    1.109   .     S
C631   H688    1.112   .     S
C631   N719    1.450   .     S
C631   H686    1.111   .     S
C632   O735    1.295   .     A
C632   O734    1.298   .     A
C633   H691    1.110   .     S
C633   H692    1.110   .     S
C633   N720    1.450   .     S
C633   H690    1.110   .     S
C634   N721    1.442   .     S
C634   H697    1.110   .     S
C634   H310    1.111   1_565 S
C634   H311    1.105   1_565 S
C635   H699    1.110   .     S
C635   H700    1.105   .     S
C635   H701    1.108   .     S
C635   N722    1.446   .     S
C636   N723    1.449   .     S
C636   H703    1.109   .     S
C636   H704    1.108   .     S
C636   H705    1.110   .     S
C637   H709    1.108   .     S
C637   H708    1.103   .     S
C637   H710    1.112   .     S
C637   N725    1.447   .     S
C638   O737    1.292   .     A
C638   O740    1.297   .     A
C639   O738    1.297   .     A
C639   O739    1.285   .     A
C640   N724    1.372   .     A
C640   C2116   1.427   1_554 S
H641   O742    1.014   .     S
H645   N729    1.030   .     S
H647   C430    1.107   1_655 S
H649   N730    1.031   .     S
H652   O745    1.014   .     S
H654   N731    1.031   .     S
H658   N732    1.029   .     S
H662   N714    1.031   .     S
H663   O747    1.013   .     S
H667   N715    1.030   .     S
H671   N716    1.023   .     S
H674   O749    1.011   .     S
H676   N717    1.030   .     S
H680   N718    1.030   .     S
H684   N719    1.031   .     S
H685   O751    1.014   .     S
H687   C247    1.110   1_565 S
H689   N720    1.031   .     S
H693   N721    1.029   .     S
H696   O753    1.014   .     S
H698   N722    1.032   .     S
H702   N723    1.031   .     S
H706   N725    1.030   .     S
H707   O756    1.010   .     S
H711   O758    1.010   .     S
H712   N728    1.029   .     S
N713   Zn765   2.032   .     S
N724   Zn766   2.032   .     S
N726   Zn767   2.032   .     S
N727   Zn768   2.032   .     S
O733   Zn765   1.984   .     S
O734   Zn768   1.984   .     S
O735   Zn767   2.019   .     S
O736   Zn384   2.019   1_565 S
O737   Zn384   2.025   1_565 S
O738   Zn767   2.025   .     S
O739   Zn768   1.979   .     S
O740   Zn383   1.979   1_565 S
O741   C420    1.221   1_655 S
O744   Zn574   1.984   1_655 S
O755   Zn573   2.019   1_655 S
O759   Zn766   2.019   .     S
O760   Zn574   2.025   1_655 S
O761   Zn765   2.025   .     S
O762   Zn766   1.979   .     S
O763   Zn573   1.979   1_655 S
O764   Zn383   1.984   1_565 S
C769   O951    1.293   .     A
C769   C798    1.450   .     S
C769   O925    1.303   .     A
C770   C805    1.479   .     S
C770   C1731   1.429   .     S
C770   N1097   1.369   .     S
C771   C806    1.485   .     S
C771   N916    1.385   .     A
C771   C194    1.429   1_455 S
C772   N905    1.372   .     A
C772   C807    1.465   .     S
C772   C1600   1.427   .     S
C773   N919    1.373   .     A
C773   C808    1.477   .     S
C774   C809    1.477   .     S
C774   C1543   1.425   .     S
C774   N1302   1.369   .     S
C775   C810    1.462   .     S
C775   N1303   1.374   .     S
C776   C811    1.462   .     S
C776   N918    1.372   .     A
C776   C1541   1.429   .     S
C777   N920    1.419   .     S
C777   C788    1.384   .     A
C777   C796    1.404   .     A
C778   C795    1.405   .     A
C778   C789    1.396   .     A
C778   N921    1.426   .     S
C779   C786    1.383   .     A
C779   N922    1.426   .     S
C779   C795    1.399   .     A
C780   C797    1.427   .     S
C780   O936    1.297   .     A
C780   O947    1.286   .     A
C781   N923    1.430   .     S
C781   C796    1.408   .     A
C781   C787    1.395   .     A
C782   C798    1.411   .     A
C782   N924    1.431   .     S
C782   C793    1.391   .     A
C783   C797    1.404   .     A
C783   N906    1.430   .     S
C783   C794    1.388   .     A
C784   C797    1.408   .     A
C784   N907    1.425   .     S
C784   C790    1.388   .     A
C785   C798    1.417   .     A
C785   C792    1.391   .     A
C785   N908    1.439   .     S
C786   C800    1.404   .     A
C786   N909    1.420   .     S
C787   C799    1.407   .     A
C787   N910    1.427   .     S
C788   N911    1.431   .     S
C788   C799    1.405   .     A
C789   N912    1.428   .     S
C789   C800    1.409   .     A
C790   C803    1.412   .     A
C790   N913    1.433   .     S
C791   C796    1.434   .     S
C791   O952    1.292   .     A
C791   O955    1.296   .     A
C792   C801    1.403   .     A
C792   N914    1.431   .     S
C793   N915    1.424   .     S
C793   C801    1.412   .     A
C794   C803    1.405   .     A
C794   N917    1.424   .     S
C795   C802    1.423   .     S
C799   C831    1.423   .     S
C800   C830    1.436   .     S
C801   C824    1.441   .     S
C802   O954    1.287   .     A
C802   O953    1.295   .     A
C803   C813    1.428   .     S
C804   O934    1.397   .     S
C804   C832    1.475   .     S
C804   O1125   1.221   1_455 S
C805   O937    1.396   .     S
C805   O1127   1.221   .     S
C806   O939    1.398   .     S
C806   O938    1.211   .     D
C807   O941    1.397   .     S
C807   O940    1.219   .     D
C808   O942    1.217   .     D
C808   O943    1.396   .     S
C809   O945    1.397   .     S
C809   O944    1.222   .     D
C810   O946    1.211   .     D
C810   O948    1.398   .     S
C811   O949    1.219   .     D
C811   O950    1.398   .     S
C812   H834    1.106   .     S
C812   N920    1.449   .     S
C812   H836    1.107   .     S
C812   H835    1.112   .     S
C813   O928    1.303   .     A
C813   O956    1.281   .     A
C814   H840    1.109   .     S
C814   H838    1.112   .     S
C814   N921    1.448   .     S
C814   H1031   1.107   1_455 S
C815   H845    1.112   .     S
C815   H842    1.111   .     S
C815   N922    1.448   .     S
C815   H843    1.103   .     S
C816   H847    1.110   .     S
C816   H849    1.110   .     S
C816   N923    1.449   .     S
C816   H848    1.110   .     S
C817   N924    1.445   .     S
C817   H853    1.111   .     S
C817   H852    1.108   .     S
C817   H851    1.110   .     S
C818   H857    1.112   .     S
C818   H858    1.110   .     S
C818   H856    1.111   .     S
C818   N906    1.450   .     S
C819   H860    1.109   .     S
C819   H861    1.109   .     S
C819   H862    1.110   .     S
C819   N907    1.451   .     S
C820   H865    1.097   .     S
C820   H867    1.110   .     S
C820   N908    1.450   .     S
C820   H864    1.112   .     S
C821   N909    1.449   .     S
C821   H869    1.109   .     S
C821   H870    1.111   .     S
C821   H871    1.110   .     S
C822   H875    1.112   .     S
C822   H874    1.108   .     S
C822   N910    1.447   .     S
C822   H873    1.109   .     S
C823   H880    1.112   .     S
C823   N911    1.450   .     S
C823   H878    1.111   .     S
C823   H1263   1.110   1_545 S
C824   O927    1.295   .     A
C824   O926    1.298   .     A
C825   H883    1.110   .     S
C825   H884    1.110   .     S
C825   N912    1.450   .     S
C825   H882    1.110   .     S
C826   N913    1.442   .     S
C826   H889    1.110   .     S
C826   H1270   1.111   .     S
C826   H1271   1.105   .     S
C827   H891    1.110   .     S
C827   H892    1.105   .     S
C827   H893    1.108   .     S
C827   N914    1.446   .     S
C828   N915    1.449   .     S
C828   H895    1.109   .     S
C828   H896    1.108   .     S
C828   H897    1.110   .     S
C829   H901    1.108   .     S
C829   H900    1.103   .     S
C829   H902    1.112   .     S
C829   N917    1.447   .     S
C830   O929    1.292   .     A
C830   O932    1.297   .     A
C831   O930    1.297   .     A
C831   O931    1.285   .     A
C832   N916    1.372   .     A
H833   O934    1.014   .     S
H837   N921    1.030   .     S
H839   C1006   1.107   .     S
H841   N922    1.031   .     S
H844   O937    1.014   .     S
H846   N923    1.031   .     S
H850   N924    1.029   .     S
H854   N906    1.031   .     S
H855   O939    1.013   .     S
H859   N907    1.030   .     S
H863   N908    1.023   .     S
H866   O941    1.011   .     S
H868   N909    1.030   .     S
H872   N910    1.030   .     S
H876   N911    1.031   .     S
H877   O943    1.014   .     S
H879   C1207   1.110   .     S
H881   N912    1.031   .     S
H885   N913    1.029   .     S
H886   C1210   1.111   1_545 S
H887   C1210   1.105   1_545 S
H888   O945    1.014   .     S
H890   N914    1.032   .     S
H894   N915    1.031   .     S
H898   N917    1.030   .     S
H899   O948    1.010   .     S
H903   O950    1.010   .     S
H904   N920    1.029   .     S
N905   Zn957   2.032   .     S
N905   C962    1.369   1_455 S
N916   Zn958   2.032   .     S
N918   Zn959   2.032   .     S
N918   C1158   1.369   1_545 S
N919   C1159   1.374   1_545 S
N919   Zn960   2.032   .     S
O925   Zn957   1.984   .     S
O926   Zn960   1.984   .     S
O927   Zn959   2.019   .     S
O928   Zn1344  2.019   .     S
O929   Zn1344  2.025   .     S
O930   Zn959   2.025   .     S
O931   Zn960   1.979   .     S
O932   Zn1343  1.979   .     S
O933   C996    1.221   .     S
O935   C997    1.221   1_455 S
O936   Zn1150  1.984   .     S
O947   Zn1149  2.019   .     S
O951   Zn958   2.019   .     S
O952   Zn1150  2.025   .     S
O953   Zn957   2.025   .     S
O954   Zn958   1.979   .     S
O955   Zn1149  1.979   .     S
O956   Zn1343  1.984   .     S
Zn957  O1147   1.979   1_455 S
Zn957  O1139   2.019   1_455 S
Zn958  O1128   1.984   1_455 S
Zn958  O1144   2.025   1_455 S
Zn959  O1316   1.979   1_545 S
Zn959  O1340   1.984   1_545 S
Zn960  O1313   2.025   1_545 S
Zn960  O1312   2.019   1_545 S
C961   O1143   1.293   .     A
C961   C990    1.450   .     S
C961   O1117   1.303   .     A
C962   C997    1.479   .     S
C962   C1539   1.429   1_655 S
C962   N905    1.369   1_655 S
C963   C998    1.485   .     S
C963   N1108   1.385   .     A
C964   N1097   1.372   .     A
C964   C999    1.465   .     S
C964   C1792   1.427   .     S
C965   N1111   1.373   .     A
C965   C1000   1.477   .     S
C966   C1001   1.477   .     S
C966   C1735   1.425   .     S
C966   N1494   1.369   .     S
C967   C1002   1.462   .     S
C967   N1495   1.374   .     S
C968   C1003   1.462   .     S
C968   N1110   1.372   .     A
C968   C1733   1.429   .     S
C969   N1112   1.419   .     S
C969   C980    1.384   .     A
C969   C988    1.404   .     A
C970   C987    1.405   .     A
C970   C981    1.396   .     A
C970   N1113   1.426   .     S
C971   C978    1.383   .     A
C971   N1114   1.426   .     S
C971   C987    1.399   .     A
C972   C989    1.427   .     S
C972   O1128   1.297   .     A
C972   O1139   1.286   .     A
C973   N1115   1.430   .     S
C973   C988    1.408   .     A
C973   C979    1.395   .     A
C974   C990    1.411   .     A
C974   N1116   1.431   .     S
C974   C985    1.391   .     A
C975   C989    1.404   .     A
C975   N1098   1.430   .     S
C975   C986    1.388   .     A
C976   C989    1.408   .     A
C976   N1099   1.425   .     S
C976   C982    1.388   .     A
C977   C990    1.417   .     A
C977   C984    1.391   .     A
C977   N1100   1.439   .     S
C978   C992    1.404   .     A
C978   N1101   1.420   .     S
C979   C991    1.407   .     A
C979   N1102   1.427   .     S
C980   N1103   1.431   .     S
C980   C991    1.405   .     A
C981   N1104   1.428   .     S
C981   C992    1.409   .     A
C982   C995    1.412   .     A
C982   N1105   1.433   .     S
C983   C988    1.434   .     S
C983   O1144   1.292   .     A
C983   O1147   1.296   .     A
C984   C993    1.403   .     A
C984   N1106   1.431   .     S
C985   N1107   1.424   .     S
C985   C993    1.412   .     A
C986   C995    1.405   .     A
C986   N1109   1.424   .     S
C987   C994    1.423   .     S
C991   C1023   1.423   .     S
C992   C1022   1.436   .     S
C993   C1016   1.441   .     S
C994   O1146   1.287   .     A
C994   O1145   1.295   .     A
C995   C1005   1.428   .     S
C996   O1126   1.397   .     S
C996   C1024   1.475   .     S
C997   O1129   1.396   .     S
C997   O935    1.221   1_655 S
C998   O1131   1.398   .     S
C998   O1130   1.211   .     D
C999   O1133   1.397   .     S
C999   O1132   1.219   .     D
C1000  O1134   1.217   .     D
C1000  O1135   1.396   .     S
C1001  O1137   1.397   .     S
C1001  O1136   1.222   .     D
C1002  O1138   1.211   .     D
C1002  O1140   1.398   .     S
C1003  O1141   1.219   .     D
C1003  O1142   1.398   .     S
C1004  H1026   1.106   .     S
C1004  N1112   1.449   .     S
C1004  H1028   1.107   .     S
C1004  H1027   1.112   .     S
C1005  O1120   1.303   .     A
C1005  O1148   1.281   .     A
C1006  H1032   1.109   .     S
C1006  H1030   1.112   .     S
C1006  N1113   1.448   .     S
C1007  H1037   1.112   .     S
C1007  H1034   1.111   .     S
C1007  N1114   1.448   .     S
C1007  H1035   1.103   .     S
C1008  H1039   1.110   .     S
C1008  H1041   1.110   .     S
C1008  N1115   1.449   .     S
C1008  H1040   1.110   .     S
C1009  N1116   1.445   .     S
C1009  H1045   1.111   .     S
C1009  H1044   1.108   .     S
C1009  H1043   1.110   .     S
C1010  H1049   1.112   .     S
C1010  H1050   1.110   .     S
C1010  H1048   1.111   .     S
C1010  N1098   1.450   .     S
C1011  H1052   1.109   .     S
C1011  H1053   1.109   .     S
C1011  H1054   1.110   .     S
C1011  N1099   1.451   .     S
C1012  H1057   1.097   .     S
C1012  H1059   1.110   .     S
C1012  N1100   1.450   .     S
C1012  H1056   1.112   .     S
C1013  N1101   1.449   .     S
C1013  H1061   1.109   .     S
C1013  H1062   1.111   .     S
C1013  H1063   1.110   .     S
C1014  H1067   1.112   .     S
C1014  H1066   1.108   .     S
C1014  N1102   1.447   .     S
C1014  H1065   1.109   .     S
C1015  H1072   1.112   .     S
C1015  N1103   1.450   .     S
C1015  H1070   1.111   .     S
C1015  H1455   1.110   1_545 S
C1016  O1119   1.295   .     A
C1016  O1118   1.298   .     A
C1017  H1075   1.110   .     S
C1017  H1076   1.110   .     S
C1017  N1104   1.450   .     S
C1017  H1074   1.110   .     S
C1018  N1105   1.442   .     S
C1018  H1081   1.110   .     S
C1018  H1462   1.111   .     S
C1018  H1463   1.105   .     S
C1019  H1083   1.110   .     S
C1019  H1084   1.105   .     S
C1019  H1085   1.108   .     S
C1019  N1106   1.446   .     S
C1020  N1107   1.449   .     S
C1020  H1087   1.109   .     S
C1020  H1088   1.108   .     S
C1020  H1089   1.110   .     S
C1021  H1093   1.108   .     S
C1021  H1092   1.103   .     S
C1021  H1094   1.112   .     S
C1021  N1109   1.447   .     S
C1022  O1121   1.292   .     A
C1022  O1124   1.297   .     A
C1023  O1122   1.297   .     A
C1023  O1123   1.285   .     A
C1024  N1108   1.372   .     A
H1025  O1126   1.014   .     S
H1029  N1113   1.030   .     S
H1031  C814    1.107   1_655 S
H1033  N1114   1.031   .     S
H1036  O1129   1.014   .     S
H1038  N1115   1.031   .     S
H1042  N1116   1.029   .     S
H1046  N1098   1.031   .     S
H1047  O1131   1.013   .     S
H1051  N1099   1.030   .     S
H1055  N1100   1.023   .     S
H1058  O1133   1.011   .     S
H1060  N1101   1.030   .     S
H1064  N1102   1.030   .     S
H1068  N1103   1.031   .     S
H1069  O1135   1.014   .     S
H1071  C1399   1.110   .     S
H1073  N1104   1.031   .     S
H1077  N1105   1.029   .     S
H1078  C1402   1.111   1_545 S
H1079  C1402   1.105   1_545 S
H1080  O1137   1.014   .     S
H1082  N1106   1.032   .     S
H1086  N1107   1.031   .     S
H1090  N1109   1.030   .     S
H1091  O1140   1.010   .     S
H1095  O1142   1.010   .     S
H1096  N1112   1.029   .     S
N1097  Zn1149  2.032   .     S
N1108  Zn1150  2.032   .     S
N1110  Zn1151  2.032   .     S
N1110  C1350   1.369   1_545 S
N1111  C1351   1.374   1_545 S
N1111  Zn1152  2.032   .     S
O1117  Zn1149  1.984   .     S
O1118  Zn1152  1.984   .     S
O1119  Zn1151  2.019   .     S
O1120  Zn1536  2.019   .     S
O1121  Zn1536  2.025   .     S
O1122  Zn1151  2.025   .     S
O1123  Zn1152  1.979   .     S
O1124  Zn1535  1.979   .     S
O1125  C804    1.221   1_655 S
O1128  Zn958   1.984   1_655 S
O1139  Zn957   2.019   1_655 S
O1143  Zn1150  2.019   .     S
O1144  Zn958   2.025   1_655 S
O1145  Zn1149  2.025   .     S
O1146  Zn1150  1.979   .     S
O1147  Zn957   1.979   1_655 S
O1148  Zn1535  1.984   .     S
Zn1151 O1508   1.979   1_545 S
Zn1151 O1532   1.984   1_545 S
Zn1152 O1505   2.025   1_545 S
Zn1152 O1504   2.019   1_545 S
C1153  O1335   1.293   .     A
C1153  C1182   1.450   .     S
C1153  O1309   1.303   .     A
C1154  C1189   1.479   .     S
C1154  C2115   1.429   .     S
C1154  N1481   1.369   .     S
C1155  C1190   1.485   .     S
C1155  N1300   1.385   .     A
C1155  C578    1.429   1_455 S
C1156  N1289   1.372   .     A
C1156  C1191   1.465   .     S
C1156  C1984   1.427   .     S
C1157  N1303   1.373   .     A
C1157  C1192   1.477   .     S
C1158  C1193   1.477   .     S
C1158  C1927   1.425   .     S
C1158  N918    1.369   1_565 S
C1159  C1194   1.462   .     S
C1159  N919    1.374   1_565 S
C1160  C1195   1.462   .     S
C1160  N1302   1.372   .     A
C1160  C1925   1.429   .     S
C1161  N1304   1.419   .     S
C1161  C1172   1.384   .     A
C1161  C1180   1.404   .     A
C1162  C1179   1.405   .     A
C1162  C1173   1.396   .     A
C1162  N1305   1.426   .     S
C1163  C1170   1.383   .     A
C1163  N1306   1.426   .     S
C1163  C1179   1.399   .     A
C1164  C1181   1.427   .     S
C1164  O1320   1.297   .     A
C1164  O1331   1.286   .     A
C1165  N1307   1.430   .     S
C1165  C1180   1.408   .     A
C1165  C1171   1.395   .     A
C1166  C1182   1.411   .     A
C1166  N1308   1.431   .     S
C1166  C1177   1.391   .     A
C1167  C1181   1.404   .     A
C1167  N1290   1.430   .     S
C1167  C1178   1.388   .     A
C1168  C1181   1.408   .     A
C1168  N1291   1.425   .     S
C1168  C1174   1.388   .     A
C1169  C1182   1.417   .     A
C1169  C1176   1.391   .     A
C1169  N1292   1.439   .     S
C1170  C1184   1.404   .     A
C1170  N1293   1.420   .     S
C1171  C1183   1.407   .     A
C1171  N1294   1.427   .     S
C1172  N1295   1.431   .     S
C1172  C1183   1.405   .     A
C1173  N1296   1.428   .     S
C1173  C1184   1.409   .     A
C1174  C1187   1.412   .     A
C1174  N1297   1.433   .     S
C1175  C1180   1.434   .     S
C1175  O1336   1.292   .     A
C1175  O1339   1.296   .     A
C1176  C1185   1.403   .     A
C1176  N1298   1.431   .     S
C1177  N1299   1.424   .     S
C1177  C1185   1.412   .     A
C1178  C1187   1.405   .     A
C1178  N1301   1.424   .     S
C1179  C1186   1.423   .     S
C1183  C1215   1.423   .     S
C1184  C1214   1.436   .     S
C1185  C1208   1.441   .     S
C1186  O1338   1.287   .     A
C1186  O1337   1.295   .     A
C1187  C1197   1.428   .     S
C1188  O1318   1.397   .     S
C1188  C1216   1.475   .     S
C1188  O1509   1.221   1_455 S
C1189  O1321   1.396   .     S
C1189  O1511   1.221   .     S
C1190  O1323   1.398   .     S
C1190  O1322   1.211   .     D
C1191  O1325   1.397   .     S
C1191  O1324   1.219   .     D
C1192  O1326   1.217   .     D
C1192  O1327   1.396   .     S
C1193  O1329   1.397   .     S
C1193  O1328   1.222   .     D
C1194  O1330   1.211   .     D
C1194  O1332   1.398   .     S
C1195  O1333   1.219   .     D
C1195  O1334   1.398   .     S
C1196  H1218   1.106   .     S
C1196  N1304   1.449   .     S
C1196  H1220   1.107   .     S
C1196  H1219   1.112   .     S
C1197  O1312   1.303   .     A
C1197  O1340   1.281   .     A
C1198  H1224   1.109   .     S
C1198  H1222   1.112   .     S
C1198  N1305   1.448   .     S
C1198  H1415   1.107   1_455 S
C1199  H1229   1.112   .     S
C1199  H1226   1.111   .     S
C1199  N1306   1.448   .     S
C1199  H1227   1.103   .     S
C1200  H1231   1.110   .     S
C1200  H1233   1.110   .     S
C1200  N1307   1.449   .     S
C1200  H1232   1.110   .     S
C1201  N1308   1.445   .     S
C1201  H1237   1.111   .     S
C1201  H1236   1.108   .     S
C1201  H1235   1.110   .     S
C1202  H1241   1.112   .     S
C1202  H1242   1.110   .     S
C1202  H1240   1.111   .     S
C1202  N1290   1.450   .     S
C1203  H1244   1.109   .     S
C1203  H1245   1.109   .     S
C1203  H1246   1.110   .     S
C1203  N1291   1.451   .     S
C1204  H1249   1.097   .     S
C1204  H1251   1.110   .     S
C1204  N1292   1.450   .     S
C1204  H1248   1.112   .     S
C1205  N1293   1.449   .     S
C1205  H1253   1.109   .     S
C1205  H1254   1.111   .     S
C1205  H1255   1.110   .     S
C1206  H1259   1.112   .     S
C1206  H1258   1.108   .     S
C1206  N1294   1.447   .     S
C1206  H1257   1.109   .     S
C1207  H1264   1.112   .     S
C1207  N1295   1.450   .     S
C1207  H1262   1.111   .     S
C1208  O1311   1.295   .     A
C1208  O1310   1.298   .     A
C1209  H1267   1.110   .     S
C1209  H1268   1.110   .     S
C1209  N1296   1.450   .     S
C1209  H1266   1.110   .     S
C1210  N1297   1.442   .     S
C1210  H1273   1.110   .     S
C1210  H886    1.111   1_565 S
C1210  H887    1.105   1_565 S
C1211  H1275   1.110   .     S
C1211  H1276   1.105   .     S
C1211  H1277   1.108   .     S
C1211  N1298   1.446   .     S
C1212  N1299   1.449   .     S
C1212  H1279   1.109   .     S
C1212  H1280   1.108   .     S
C1212  H1281   1.110   .     S
C1213  H1285   1.108   .     S
C1213  H1284   1.103   .     S
C1213  H1286   1.112   .     S
C1213  N1301   1.447   .     S
C1214  O1313   1.292   .     A
C1214  O1316   1.297   .     A
C1215  O1314   1.297   .     A
C1215  O1315   1.285   .     A
C1216  N1300   1.372   .     A
H1217  O1318   1.014   .     S
H1221  N1305   1.030   .     S
H1223  C1390   1.107   .     S
H1225  N1306   1.031   .     S
H1228  O1321   1.014   .     S
H1230  N1307   1.031   .     S
H1234  N1308   1.029   .     S
H1238  N1290   1.031   .     S
H1239  O1323   1.013   .     S
H1243  N1291   1.030   .     S
H1247  N1292   1.023   .     S
H1250  O1325   1.011   .     S
H1252  N1293   1.030   .     S
H1256  N1294   1.030   .     S
H1260  N1295   1.031   .     S
H1261  O1327   1.014   .     S
H1263  C823    1.110   1_565 S
H1265  N1296   1.031   .     S
H1269  N1297   1.029   .     S
H1272  O1329   1.014   .     S
H1274  N1298   1.032   .     S
H1278  N1299   1.031   .     S
H1282  N1301   1.030   .     S
H1283  O1332   1.010   .     S
H1287  O1334   1.010   .     S
H1288  N1304   1.029   .     S
N1289  Zn1341  2.032   .     S
N1289  C1346   1.369   1_455 S
N1300  Zn1342  2.032   .     S
N1302  Zn1343  2.032   .     S
N1303  Zn1344  2.032   .     S
O1309  Zn1341  1.984   .     S
O1310  Zn1344  1.984   .     S
O1311  Zn1343  2.019   .     S
O1312  Zn960   2.019   1_565 S
O1313  Zn960   2.025   1_565 S
O1314  Zn1343  2.025   .     S
O1315  Zn1344  1.979   .     S
O1316  Zn959   1.979   1_565 S
O1317  C1380   1.221   .     S
O1319  C1381   1.221   1_455 S
O1320  Zn1534  1.984   .     S
O1331  Zn1533  2.019   .     S
O1335  Zn1342  2.019   .     S
O1336  Zn1534  2.025   .     S
O1337  Zn1341  2.025   .     S
O1338  Zn1342  1.979   .     S
O1339  Zn1533  1.979   .     S
O1340  Zn959   1.984   1_565 S
Zn1341 O1531   1.979   1_455 S
Zn1341 O1523   2.019   1_455 S
Zn1342 O1512   1.984   1_455 S
Zn1342 O1528   2.025   1_455 S
C1345  O1527   1.293   .     A
C1345  C1374   1.450   .     S
C1345  O1501   1.303   .     A
C1346  C1381   1.479   .     S
C1346  C1923   1.429   1_655 S
C1346  N1289   1.369   1_655 S
C1347  C1382   1.485   .     S
C1347  N1492   1.385   .     A
C1348  N1481   1.372   .     A
C1348  C1383   1.465   .     S
C1348  C2176   1.427   .     S
C1349  N1495   1.373   .     A
C1349  C1384   1.477   .     S
C1350  C1385   1.477   .     S
C1350  C2119   1.425   .     S
C1350  N1110   1.369   1_565 S
C1351  C1386   1.462   .     S
C1351  N1111   1.374   1_565 S
C1352  C1387   1.462   .     S
C1352  N1494   1.372   .     A
C1352  C2117   1.429   .     S
C1353  N1496   1.419   .     S
C1353  C1364   1.384   .     A
C1353  C1372   1.404   .     A
C1354  C1371   1.405   .     A
C1354  C1365   1.396   .     A
C1354  N1497   1.426   .     S
C1355  C1362   1.383   .     A
C1355  N1498   1.426   .     S
C1355  C1371   1.399   .     A
C1356  C1373   1.427   .     S
C1356  O1512   1.297   .     A
C1356  O1523   1.286   .     A
C1357  N1499   1.430   .     S
C1357  C1372   1.408   .     A
C1357  C1363   1.395   .     A
C1358  C1374   1.411   .     A
C1358  N1500   1.431   .     S
C1358  C1369   1.391   .     A
C1359  C1373   1.404   .     A
C1359  N1482   1.430   .     S
C1359  C1370   1.388   .     A
C1360  C1373   1.408   .     A
C1360  N1483   1.425   .     S
C1360  C1366   1.388   .     A
C1361  C1374   1.417   .     A
C1361  C1368   1.391   .     A
C1361  N1484   1.439   .     S
C1362  C1376   1.404   .     A
C1362  N1485   1.420   .     S
C1363  C1375   1.407   .     A
C1363  N1486   1.427   .     S
C1364  N1487   1.431   .     S
C1364  C1375   1.405   .     A
C1365  N1488   1.428   .     S
C1365  C1376   1.409   .     A
C1366  C1379   1.412   .     A
C1366  N1489   1.433   .     S
C1367  C1372   1.434   .     S
C1367  O1528   1.292   .     A
C1367  O1531   1.296   .     A
C1368  C1377   1.403   .     A
C1368  N1490   1.431   .     S
C1369  N1491   1.424   .     S
C1369  C1377   1.412   .     A
C1370  C1379   1.405   .     A
C1370  N1493   1.424   .     S
C1371  C1378   1.423   .     S
C1375  C1407   1.423   .     S
C1376  C1406   1.436   .     S
C1377  C1400   1.441   .     S
C1378  O1530   1.287   .     A
C1378  O1529   1.295   .     A
C1379  C1389   1.428   .     S
C1380  O1510   1.397   .     S
C1380  C1408   1.475   .     S
C1381  O1513   1.396   .     S
C1381  O1319   1.221   1_655 S
C1382  O1515   1.398   .     S
C1382  O1514   1.211   .     D
C1383  O1517   1.397   .     S
C1383  O1516   1.219   .     D
C1384  O1518   1.217   .     D
C1384  O1519   1.396   .     S
C1385  O1521   1.397   .     S
C1385  O1520   1.222   .     D
C1386  O1522   1.211   .     D
C1386  O1524   1.398   .     S
C1387  O1525   1.219   .     D
C1387  O1526   1.398   .     S
C1388  H1410   1.106   .     S
C1388  N1496   1.449   .     S
C1388  H1412   1.107   .     S
C1388  H1411   1.112   .     S
C1389  O1504   1.303   .     A
C1389  O1532   1.281   .     A
C1390  H1416   1.109   .     S
C1390  H1414   1.112   .     S
C1390  N1497   1.448   .     S
C1391  H1421   1.112   .     S
C1391  H1418   1.111   .     S
C1391  N1498   1.448   .     S
C1391  H1419   1.103   .     S
C1392  H1423   1.110   .     S
C1392  H1425   1.110   .     S
C1392  N1499   1.449   .     S
C1392  H1424   1.110   .     S
C1393  N1500   1.445   .     S
C1393  H1429   1.111   .     S
C1393  H1428   1.108   .     S
C1393  H1427   1.110   .     S
C1394  H1433   1.112   .     S
C1394  H1434   1.110   .     S
C1394  H1432   1.111   .     S
C1394  N1482   1.450   .     S
C1395  H1436   1.109   .     S
C1395  H1437   1.109   .     S
C1395  H1438   1.110   .     S
C1395  N1483   1.451   .     S
C1396  H1441   1.097   .     S
C1396  H1443   1.110   .     S
C1396  N1484   1.450   .     S
C1396  H1440   1.112   .     S
C1397  N1485   1.449   .     S
C1397  H1445   1.109   .     S
C1397  H1446   1.111   .     S
C1397  H1447   1.110   .     S
C1398  H1451   1.112   .     S
C1398  H1450   1.108   .     S
C1398  N1486   1.447   .     S
C1398  H1449   1.109   .     S
C1399  H1456   1.112   .     S
C1399  N1487   1.450   .     S
C1399  H1454   1.111   .     S
C1400  O1503   1.295   .     A
C1400  O1502   1.298   .     A
C1401  H1459   1.110   .     S
C1401  H1460   1.110   .     S
C1401  N1488   1.450   .     S
C1401  H1458   1.110   .     S
C1402  N1489   1.442   .     S
C1402  H1465   1.110   .     S
C1402  H1078   1.111   1_565 S
C1402  H1079   1.105   1_565 S
C1403  H1467   1.110   .     S
C1403  H1468   1.105   .     S
C1403  H1469   1.108   .     S
C1403  N1490   1.446   .     S
C1404  N1491   1.449   .     S
C1404  H1471   1.109   .     S
C1404  H1472   1.108   .     S
C1404  H1473   1.110   .     S
C1405  H1477   1.108   .     S
C1405  H1476   1.103   .     S
C1405  H1478   1.112   .     S
C1405  N1493   1.447   .     S
C1406  O1505   1.292   .     A
C1406  O1508   1.297   .     A
C1407  O1506   1.297   .     A
C1407  O1507   1.285   .     A
C1408  N1492   1.372   .     A
H1409  O1510   1.014   .     S
H1413  N1497   1.030   .     S
H1415  C1198   1.107   1_655 S
H1417  N1498   1.031   .     S
H1420  O1513   1.014   .     S
H1422  N1499   1.031   .     S
H1426  N1500   1.029   .     S
H1430  N1482   1.031   .     S
H1431  O1515   1.013   .     S
H1435  N1483   1.030   .     S
H1439  N1484   1.023   .     S
H1442  O1517   1.011   .     S
H1444  N1485   1.030   .     S
H1448  N1486   1.030   .     S
H1452  N1487   1.031   .     S
H1453  O1519   1.014   .     S
H1455  C1015   1.110   1_565 S
H1457  N1488   1.031   .     S
H1461  N1489   1.029   .     S
H1464  O1521   1.014   .     S
H1466  N1490   1.032   .     S
H1470  N1491   1.031   .     S
H1474  N1493   1.030   .     S
H1475  O1524   1.010   .     S
H1479  O1526   1.010   .     S
H1480  N1496   1.029   .     S
N1481  Zn1533  2.032   .     S
N1492  Zn1534  2.032   .     S
N1494  Zn1535  2.032   .     S
N1495  Zn1536  2.032   .     S
O1501  Zn1533  1.984   .     S
O1502  Zn1536  1.984   .     S
O1503  Zn1535  2.019   .     S
O1504  Zn1152  2.019   1_565 S
O1505  Zn1152  2.025   1_565 S
O1506  Zn1535  2.025   .     S
O1507  Zn1536  1.979   .     S
O1508  Zn1151  1.979   1_565 S
O1509  C1188   1.221   1_655 S
O1512  Zn1342  1.984   1_655 S
O1523  Zn1341  2.019   1_655 S
O1527  Zn1534  2.019   .     S
O1528  Zn1342  2.025   1_655 S
O1529  Zn1533  2.025   .     S
O1530  Zn1534  1.979   .     S
O1531  Zn1341  1.979   1_655 S
O1532  Zn1151  1.984   1_565 S
C1537  O1719   1.293   .     A
C1537  C1566   1.450   .     S
C1537  O1693   1.303   .     A
C1538  C1573   1.479   .     S
C1538  C195    1.429   1_556 S
C1538  N1865   1.369   .     S
C1539  C1574   1.485   .     S
C1539  N1684   1.385   .     A
C1539  C962    1.429   1_455 S
C1540  N1673   1.372   .     A
C1540  C1575   1.465   .     S
C1540  C64     1.427   1_556 S
C1541  N1687   1.373   .     A
C1541  C1576   1.477   .     S
C1542  C1577   1.477   .     S
C1542  C7      1.425   1_556 S
C1542  N2070   1.369   .     S
C1543  C1578   1.462   .     S
C1543  N2071   1.374   .     S
C1544  C1579   1.462   .     S
C1544  N1686   1.372   .     A
C1544  C5      1.429   1_556 S
C1545  N1688   1.419   .     S
C1545  C1556   1.384   .     A
C1545  C1564   1.404   .     A
C1546  C1563   1.405   .     A
C1546  C1557   1.396   .     A
C1546  N1689   1.426   .     S
C1547  C1554   1.383   .     A
C1547  N1690   1.426   .     S
C1547  C1563   1.399   .     A
C1548  C1565   1.427   .     S
C1548  O1704   1.297   .     A
C1548  O1715   1.286   .     A
C1549  N1691   1.430   .     S
C1549  C1564   1.408   .     A
C1549  C1555   1.395   .     A
C1550  C1566   1.411   .     A
C1550  N1692   1.431   .     S
C1550  C1561   1.391   .     A
C1551  C1565   1.404   .     A
C1551  N1674   1.430   .     S
C1551  C1562   1.388   .     A
C1552  C1565   1.408   .     A
C1552  N1675   1.425   .     S
C1552  C1558   1.388   .     A
C1553  C1566   1.417   .     A
C1553  C1560   1.391   .     A
C1553  N1676   1.439   .     S
C1554  C1568   1.404   .     A
C1554  N1677   1.420   .     S
C1555  C1567   1.407   .     A
C1555  N1678   1.427   .     S
C1556  N1679   1.431   .     S
C1556  C1567   1.405   .     A
C1557  N1680   1.428   .     S
C1557  C1568   1.409   .     A
C1558  C1571   1.412   .     A
C1558  N1681   1.433   .     S
C1559  C1564   1.434   .     S
C1559  O1720   1.292   .     A
C1559  O1723   1.296   .     A
C1560  C1569   1.403   .     A
C1560  N1682   1.431   .     S
C1561  N1683   1.424   .     S
C1561  C1569   1.412   .     A
C1562  C1571   1.405   .     A
C1562  N1685   1.424   .     S
C1563  C1570   1.423   .     S
C1567  C1599   1.423   .     S
C1568  C1598   1.436   .     S
C1569  C1592   1.441   .     S
C1570  O1722   1.287   .     A
C1570  O1721   1.295   .     A
C1571  C1581   1.428   .     S
C1572  O1702   1.397   .     S
C1572  C1600   1.475   .     S
C1572  O1893   1.221   1_455 S
C1573  O1705   1.396   .     S
C1573  O1895   1.221   .     S
C1574  O1707   1.398   .     S
C1574  O1706   1.211   .     D
C1575  O1709   1.397   .     S
C1575  O1708   1.219   .     D
C1576  O1710   1.217   .     D
C1576  O1711   1.396   .     S
C1577  O1713   1.397   .     S
C1577  O1712   1.222   .     D
C1578  O1714   1.211   .     D
C1578  O1716   1.398   .     S
C1579  O1717   1.219   .     D
C1579  O1718   1.398   .     S
C1580  H1602   1.106   .     S
C1580  N1688   1.449   .     S
C1580  H1604   1.107   .     S
C1580  H1603   1.112   .     S
C1581  O1696   1.303   .     A
C1581  O1724   1.281   .     A
C1582  H1608   1.109   .     S
C1582  H1606   1.112   .     S
C1582  N1689   1.448   .     S
C1582  H1799   1.107   1_455 S
C1583  H1613   1.112   .     S
C1583  H1610   1.111   .     S
C1583  N1690   1.448   .     S
C1583  H1611   1.103   .     S
C1584  H1615   1.110   .     S
C1584  H1617   1.110   .     S
C1584  N1691   1.449   .     S
C1584  H1616   1.110   .     S
C1585  N1692   1.445   .     S
C1585  H1621   1.111   .     S
C1585  H1620   1.108   .     S
C1585  H1619   1.110   .     S
C1586  H1625   1.112   .     S
C1586  H1626   1.110   .     S
C1586  H1624   1.111   .     S
C1586  N1674   1.450   .     S
C1587  H1628   1.109   .     S
C1587  H1629   1.109   .     S
C1587  H1630   1.110   .     S
C1587  N1675   1.451   .     S
C1588  H1633   1.097   .     S
C1588  H1635   1.110   .     S
C1588  N1676   1.450   .     S
C1588  H1632   1.112   .     S
C1589  N1677   1.449   .     S
C1589  H1637   1.109   .     S
C1589  H1638   1.111   .     S
C1589  H1639   1.110   .     S
C1590  H1643   1.112   .     S
C1590  H1642   1.108   .     S
C1590  N1678   1.447   .     S
C1590  H1641   1.109   .     S
C1591  H1648   1.112   .     S
C1591  N1679   1.450   .     S
C1591  H1646   1.111   .     S
C1591  H2031   1.110   1_545 S
C1592  O1695   1.295   .     A
C1592  O1694   1.298   .     A
C1593  H1651   1.110   .     S
C1593  H1652   1.110   .     S
C1593  N1680   1.450   .     S
C1593  H1650   1.110   .     S
C1594  N1681   1.442   .     S
C1594  H1657   1.110   .     S
C1594  H2038   1.111   .     S
C1594  H2039   1.105   .     S
C1595  H1659   1.110   .     S
C1595  H1660   1.105   .     S
C1595  H1661   1.108   .     S
C1595  N1682   1.446   .     S
C1596  N1683   1.449   .     S
C1596  H1663   1.109   .     S
C1596  H1664   1.108   .     S
C1596  H1665   1.110   .     S
C1597  H1669   1.108   .     S
C1597  H1668   1.103   .     S
C1597  H1670   1.112   .     S
C1597  N1685   1.447   .     S
C1598  O1697   1.292   .     A
C1598  O1700   1.297   .     A
C1599  O1698   1.297   .     A
C1599  O1699   1.285   .     A
C1600  N1684   1.372   .     A
H1601  O1702   1.014   .     S
H1605  N1689   1.030   .     S
H1607  C1774   1.107   .     S
H1609  N1690   1.031   .     S
H1612  O1705   1.014   .     S
H1614  N1691   1.031   .     S
H1618  N1692   1.029   .     S
H1622  N1674   1.031   .     S
H1623  O1707   1.013   .     S
H1627  N1675   1.030   .     S
H1631  N1676   1.023   .     S
H1634  O1709   1.011   .     S
H1636  N1677   1.030   .     S
H1640  N1678   1.030   .     S
H1644  N1679   1.031   .     S
H1645  O1711   1.014   .     S
H1647  C1975   1.110   .     S
H1649  N1680   1.031   .     S
H1653  N1681   1.029   .     S
H1654  C1978   1.111   1_545 S
H1655  C1978   1.105   1_545 S
H1656  O1713   1.014   .     S
H1658  N1682   1.032   .     S
H1662  N1683   1.031   .     S
H1666  N1685   1.030   .     S
H1667  O1716   1.010   .     S
H1671  O1718   1.010   .     S
H1672  N1688   1.029   .     S
N1673  Zn1725  2.032   .     S
N1673  C1730   1.369   1_455 S
N1684  Zn1726  2.032   .     S
N1686  Zn1727  2.032   .     S
N1686  C1926   1.369   1_545 S
N1687  C1927   1.374   1_545 S
N1687  Zn1728  2.032   .     S
O1693  Zn1725  1.984   .     S
O1694  Zn1728  1.984   .     S
O1695  Zn1727  2.019   .     S
O1696  Zn2112  2.019   .     S
O1697  Zn2112  2.025   .     S
O1698  Zn1727  2.025   .     S
O1699  Zn1728  1.979   .     S
O1700  Zn2111  1.979   .     S
O1701  C1764   1.221   .     S
O1703  C1765   1.221   1_455 S
O1704  Zn1918  1.984   .     S
O1715  Zn1917  2.019   .     S
O1719  Zn1726  2.019   .     S
O1720  Zn1918  2.025   .     S
O1721  Zn1725  2.025   .     S
O1722  Zn1726  1.979   .     S
O1723  Zn1917  1.979   .     S
O1724  Zn2111  1.984   .     S
Zn1725 O1915   1.979   1_455 S
Zn1725 O1907   2.019   1_455 S
Zn1726 O1896   1.984   1_455 S
Zn1726 O1912   2.025   1_455 S
Zn1727 O2084   1.979   1_545 S
Zn1727 O2108   1.984   1_545 S
Zn1728 O2081   2.025   1_545 S
Zn1728 O2080   2.019   1_545 S
C1729  O1911   1.293   .     A
C1729  C1758   1.450   .     S
C1729  O1885   1.303   .     A
C1730  C1765   1.479   .     S
C1730  C3      1.429   1_656 S
C1730  N1673   1.369   1_655 S
C1731  C1766   1.485   .     S
C1731  N1876   1.385   .     A
C1732  N1865   1.372   .     A
C1732  C1767   1.465   .     S
C1732  C256    1.427   1_556 S
C1733  N1879   1.373   .     A
C1733  C1768   1.477   .     S
C1734  C1769   1.477   .     S
C1734  C199    1.425   1_556 S
C1734  N2262   1.369   .     S
C1735  C1770   1.462   .     S
C1735  N2263   1.374   .     S
C1736  C1771   1.462   .     S
C1736  N1878   1.372   .     A
C1736  C197    1.429   1_556 S
C1737  N1880   1.419   .     S
C1737  C1748   1.384   .     A
C1737  C1756   1.404   .     A
C1738  C1755   1.405   .     A
C1738  C1749   1.396   .     A
C1738  N1881   1.426   .     S
C1739  C1746   1.383   .     A
C1739  N1882   1.426   .     S
C1739  C1755   1.399   .     A
C1740  C1757   1.427   .     S
C1740  O1896   1.297   .     A
C1740  O1907   1.286   .     A
C1741  N1883   1.430   .     S
C1741  C1756   1.408   .     A
C1741  C1747   1.395   .     A
C1742  C1758   1.411   .     A
C1742  N1884   1.431   .     S
C1742  C1753   1.391   .     A
C1743  C1757   1.404   .     A
C1743  N1866   1.430   .     S
C1743  C1754   1.388   .     A
C1744  C1757   1.408   .     A
C1744  N1867   1.425   .     S
C1744  C1750   1.388   .     A
C1745  C1758   1.417   .     A
C1745  C1752   1.391   .     A
C1745  N1868   1.439   .     S
C1746  C1760   1.404   .     A
C1746  N1869   1.420   .     S
C1747  C1759   1.407   .     A
C1747  N1870   1.427   .     S
C1748  N1871   1.431   .     S
C1748  C1759   1.405   .     A
C1749  N1872   1.428   .     S
C1749  C1760   1.409   .     A
C1750  C1763   1.412   .     A
C1750  N1873   1.433   .     S
C1751  C1756   1.434   .     S
C1751  O1912   1.292   .     A
C1751  O1915   1.296   .     A
C1752  C1761   1.403   .     A
C1752  N1874   1.431   .     S
C1753  N1875   1.424   .     S
C1753  C1761   1.412   .     A
C1754  C1763   1.405   .     A
C1754  N1877   1.424   .     S
C1755  C1762   1.423   .     S
C1759  C1791   1.423   .     S
C1760  C1790   1.436   .     S
C1761  C1784   1.441   .     S
C1762  O1914   1.287   .     A
C1762  O1913   1.295   .     A
C1763  C1773   1.428   .     S
C1764  O1894   1.397   .     S
C1764  C1792   1.475   .     S
C1765  O1897   1.396   .     S
C1765  O1703   1.221   1_655 S
C1766  O1899   1.398   .     S
C1766  O1898   1.211   .     D
C1767  O1901   1.397   .     S
C1767  O1900   1.219   .     D
C1768  O1902   1.217   .     D
C1768  O1903   1.396   .     S
C1769  O1905   1.397   .     S
C1769  O1904   1.222   .     D
C1770  O1906   1.211   .     D
C1770  O1908   1.398   .     S
C1771  O1909   1.219   .     D
C1771  O1910   1.398   .     S
C1772  H1794   1.106   .     S
C1772  N1880   1.449   .     S
C1772  H1796   1.107   .     S
C1772  H1795   1.112   .     S
C1773  O1888   1.303   .     A
C1773  O1916   1.281   .     A
C1774  H1800   1.109   .     S
C1774  H1798   1.112   .     S
C1774  N1881   1.448   .     S
C1775  H1805   1.112   .     S
C1775  H1802   1.111   .     S
C1775  N1882   1.448   .     S
C1775  H1803   1.103   .     S
C1776  H1807   1.110   .     S
C1776  H1809   1.110   .     S
C1776  N1883   1.449   .     S
C1776  H1808   1.110   .     S
C1777  N1884   1.445   .     S
C1777  H1813   1.111   .     S
C1777  H1812   1.108   .     S
C1777  H1811   1.110   .     S
C1778  H1817   1.112   .     S
C1778  H1818   1.110   .     S
C1778  H1816   1.111   .     S
C1778  N1866   1.450   .     S
C1779  H1820   1.109   .     S
C1779  H1821   1.109   .     S
C1779  H1822   1.110   .     S
C1779  N1867   1.451   .     S
C1780  H1825   1.097   .     S
C1780  H1827   1.110   .     S
C1780  N1868   1.450   .     S
C1780  H1824   1.112   .     S
C1781  N1869   1.449   .     S
C1781  H1829   1.109   .     S
C1781  H1830   1.111   .     S
C1781  H1831   1.110   .     S
C1782  H1835   1.112   .     S
C1782  H1834   1.108   .     S
C1782  N1870   1.447   .     S
C1782  H1833   1.109   .     S
C1783  H1840   1.112   .     S
C1783  N1871   1.450   .     S
C1783  H1838   1.111   .     S
C1783  H2223   1.110   1_545 S
C1784  O1887   1.295   .     A
C1784  O1886   1.298   .     A
C1785  H1843   1.110   .     S
C1785  H1844   1.110   .     S
C1785  N1872   1.450   .     S
C1785  H1842   1.110   .     S
C1786  N1873   1.442   .     S
C1786  H1849   1.110   .     S
C1786  H2230   1.111   .     S
C1786  H2231   1.105   .     S
C1787  H1851   1.110   .     S
C1787  H1852   1.105   .     S
C1787  H1853   1.108   .     S
C1787  N1874   1.446   .     S
C1788  N1875   1.449   .     S
C1788  H1855   1.109   .     S
C1788  H1856   1.108   .     S
C1788  H1857   1.110   .     S
C1789  H1861   1.108   .     S
C1789  H1860   1.103   .     S
C1789  H1862   1.112   .     S
C1789  N1877   1.447   .     S
C1790  O1889   1.292   .     A
C1790  O1892   1.297   .     A
C1791  O1890   1.297   .     A
C1791  O1891   1.285   .     A
C1792  N1876   1.372   .     A
H1793  O1894   1.014   .     S
H1797  N1881   1.030   .     S
H1799  C1582   1.107   1_655 S
H1801  N1882   1.031   .     S
H1804  O1897   1.014   .     S
H1806  N1883   1.031   .     S
H1810  N1884   1.029   .     S
H1814  N1866   1.031   .     S
H1815  O1899   1.013   .     S
H1819  N1867   1.030   .     S
H1823  N1868   1.023   .     S
H1826  O1901   1.011   .     S
H1828  N1869   1.030   .     S
H1832  N1870   1.030   .     S
H1836  N1871   1.031   .     S
H1837  O1903   1.014   .     S
H1839  C2167   1.110   .     S
H1841  N1872   1.031   .     S
H1845  N1873   1.029   .     S
H1846  C2170   1.111   1_545 S
H1847  C2170   1.105   1_545 S
H1848  O1905   1.014   .     S
H1850  N1874   1.032   .     S
H1854  N1875   1.031   .     S
H1858  N1877   1.030   .     S
H1859  O1908   1.010   .     S
H1863  O1910   1.010   .     S
H1864  N1880   1.029   .     S
N1865  Zn1917  2.032   .     S
N1876  Zn1918  2.032   .     S
N1878  Zn1919  2.032   .     S
N1878  C2118   1.369   1_545 S
N1879  C2119   1.374   1_545 S
N1879  Zn1920  2.032   .     S
O1885  Zn1917  1.984   .     S
O1886  Zn1920  1.984   .     S
O1887  Zn1919  2.019   .     S
O1888  Zn2304  2.019   .     S
O1889  Zn2304  2.025   .     S
O1890  Zn1919  2.025   .     S
O1891  Zn1920  1.979   .     S
O1892  Zn2303  1.979   .     S
O1893  C1572   1.221   1_655 S
O1896  Zn1726  1.984   1_655 S
O1907  Zn1725  2.019   1_655 S
O1911  Zn1918  2.019   .     S
O1912  Zn1726  2.025   1_655 S
O1913  Zn1917  2.025   .     S
O1914  Zn1918  1.979   .     S
O1915  Zn1725  1.979   1_655 S
O1916  Zn2303  1.984   .     S
Zn1919 O2276   1.979   1_545 S
Zn1919 O2300   1.984   1_545 S
Zn1920 O2273   2.025   1_545 S
Zn1920 O2272   2.019   1_545 S
C1921  O2103   1.293   .     A
C1921  C1950   1.450   .     S
C1921  O2077   1.303   .     A
C1922  C1957   1.479   .     S
C1922  C579    1.429   1_556 S
C1922  N2249   1.369   .     S
C1923  C1958   1.485   .     S
C1923  N2068   1.385   .     A
C1923  C1346   1.429   1_455 S
C1924  N2057   1.372   .     A
C1924  C1959   1.465   .     S
C1924  C448    1.427   1_556 S
C1925  N2071   1.373   .     A
C1925  C1960   1.477   .     S
C1926  C1961   1.477   .     S
C1926  C391    1.425   1_556 S
C1926  N1686   1.369   1_565 S
C1927  C1962   1.462   .     S
C1927  N1687   1.374   1_565 S
C1928  C1963   1.462   .     S
C1928  N2070   1.372   .     A
C1928  C389    1.429   1_556 S
C1929  N2072   1.419   .     S
C1929  C1940   1.384   .     A
C1929  C1948   1.404   .     A
C1930  C1947   1.405   .     A
C1930  C1941   1.396   .     A
C1930  N2073   1.426   .     S
C1931  C1938   1.383   .     A
C1931  N2074   1.426   .     S
C1931  C1947   1.399   .     A
C1932  C1949   1.427   .     S
C1932  O2088   1.297   .     A
C1932  O2099   1.286   .     A
C1933  N2075   1.430   .     S
C1933  C1948   1.408   .     A
C1933  C1939   1.395   .     A
C1934  C1950   1.411   .     A
C1934  N2076   1.431   .     S
C1934  C1945   1.391   .     A
C1935  C1949   1.404   .     A
C1935  N2058   1.430   .     S
C1935  C1946   1.388   .     A
C1936  C1949   1.408   .     A
C1936  N2059   1.425   .     S
C1936  C1942   1.388   .     A
C1937  C1950   1.417   .     A
C1937  C1944   1.391   .     A
C1937  N2060   1.439   .     S
C1938  C1952   1.404   .     A
C1938  N2061   1.420   .     S
C1939  C1951   1.407   .     A
C1939  N2062   1.427   .     S
C1940  N2063   1.431   .     S
C1940  C1951   1.405   .     A
C1941  N2064   1.428   .     S
C1941  C1952   1.409   .     A
C1942  C1955   1.412   .     A
C1942  N2065   1.433   .     S
C1943  C1948   1.434   .     S
C1943  O2104   1.292   .     A
C1943  O2107   1.296   .     A
C1944  C1953   1.403   .     A
C1944  N2066   1.431   .     S
C1945  N2067   1.424   .     S
C1945  C1953   1.412   .     A
C1946  C1955   1.405   .     A
C1946  N2069   1.424   .     S
C1947  C1954   1.423   .     S
C1951  C1983   1.423   .     S
C1952  C1982   1.436   .     S
C1953  C1976   1.441   .     S
C1954  O2106   1.287   .     A
C1954  O2105   1.295   .     A
C1955  C1965   1.428   .     S
C1956  O2086   1.397   .     S
C1956  C1984   1.475   .     S
C1956  O2277   1.221   1_455 S
C1957  O2089   1.396   .     S
C1957  O2279   1.221   .     S
C1958  O2091   1.398   .     S
C1958  O2090   1.211   .     D
C1959  O2093   1.397   .     S
C1959  O2092   1.219   .     D
C1960  O2094   1.217   .     D
C1960  O2095   1.396   .     S
C1961  O2097   1.397   .     S
C1961  O2096   1.222   .     D
C1962  O2098   1.211   .     D
C1962  O2100   1.398   .     S
C1963  O2101   1.219   .     D
C1963  O2102   1.398   .     S
C1964  H1986   1.106   .     S
C1964  N2072   1.449   .     S
C1964  H1988   1.107   .     S
C1964  H1987   1.112   .     S
C1965  O2080   1.303   .     A
C1965  O2108   1.281   .     A
C1966  H1992   1.109   .     S
C1966  H1990   1.112   .     S
C1966  N2073   1.448   .     S
C1966  H2183   1.107   1_455 S
C1967  H1997   1.112   .     S
C1967  H1994   1.111   .     S
C1967  N2074   1.448   .     S
C1967  H1995   1.103   .     S
C1968  H1999   1.110   .     S
C1968  H2001   1.110   .     S
C1968  N2075   1.449   .     S
C1968  H2000   1.110   .     S
C1969  N2076   1.445   .     S
C1969  H2005   1.111   .     S
C1969  H2004   1.108   .     S
C1969  H2003   1.110   .     S
C1970  H2009   1.112   .     S
C1970  H2010   1.110   .     S
C1970  H2008   1.111   .     S
C1970  N2058   1.450   .     S
C1971  H2012   1.109   .     S
C1971  H2013   1.109   .     S
C1971  H2014   1.110   .     S
C1971  N2059   1.451   .     S
C1972  H2017   1.097   .     S
C1972  H2019   1.110   .     S
C1972  N2060   1.450   .     S
C1972  H2016   1.112   .     S
C1973  N2061   1.449   .     S
C1973  H2021   1.109   .     S
C1973  H2022   1.111   .     S
C1973  H2023   1.110   .     S
C1974  H2027   1.112   .     S
C1974  H2026   1.108   .     S
C1974  N2062   1.447   .     S
C1974  H2025   1.109   .     S
C1975  H2032   1.112   .     S
C1975  N2063   1.450   .     S
C1975  H2030   1.111   .     S
C1976  O2079   1.295   .     A
C1976  O2078   1.298   .     A
C1977  H2035   1.110   .     S
C1977  H2036   1.110   .     S
C1977  N2064   1.450   .     S
C1977  H2034   1.110   .     S
C1978  N2065   1.442   .     S
C1978  H2041   1.110   .     S
C1978  H1654   1.111   1_565 S
C1978  H1655   1.105   1_565 S
C1979  H2043   1.110   .     S
C1979  H2044   1.105   .     S
C1979  H2045   1.108   .     S
C1979  N2066   1.446   .     S
C1980  N2067   1.449   .     S
C1980  H2047   1.109   .     S
C1980  H2048   1.108   .     S
C1980  H2049   1.110   .     S
C1981  H2053   1.108   .     S
C1981  H2052   1.103   .     S
C1981  H2054   1.112   .     S
C1981  N2069   1.447   .     S
C1982  O2081   1.292   .     A
C1982  O2084   1.297   .     A
C1983  O2082   1.297   .     A
C1983  O2083   1.285   .     A
C1984  N2068   1.372   .     A
H1985  O2086   1.014   .     S
H1989  N2073   1.030   .     S
H1991  C2158   1.107   .     S
H1993  N2074   1.031   .     S
H1996  O2089   1.014   .     S
H1998  N2075   1.031   .     S
H2002  N2076   1.029   .     S
H2006  N2058   1.031   .     S
H2007  O2091   1.013   .     S
H2011  N2059   1.030   .     S
H2015  N2060   1.023   .     S
H2018  O2093   1.011   .     S
H2020  N2061   1.030   .     S
H2024  N2062   1.030   .     S
H2028  N2063   1.031   .     S
H2029  O2095   1.014   .     S
H2031  C1591   1.110   1_565 S
H2033  N2064   1.031   .     S
H2037  N2065   1.029   .     S
H2040  O2097   1.014   .     S
H2042  N2066   1.032   .     S
H2046  N2067   1.031   .     S
H2050  N2069   1.030   .     S
H2051  O2100   1.010   .     S
H2055  O2102   1.010   .     S
H2056  N2072   1.029   .     S
N2057  Zn2109  2.032   .     S
N2057  C2114   1.369   1_455 S
N2068  Zn2110  2.032   .     S
N2070  Zn2111  2.032   .     S
N2071  Zn2112  2.032   .     S
O2077  Zn2109  1.984   .     S
O2078  Zn2112  1.984   .     S
O2079  Zn2111  2.019   .     S
O2080  Zn1728  2.019   1_565 S
O2081  Zn1728  2.025   1_565 S
O2082  Zn2111  2.025   .     S
O2083  Zn2112  1.979   .     S
O2084  Zn1727  1.979   1_565 S
O2085  C2148   1.221   .     S
O2087  C2149   1.221   1_455 S
O2088  Zn2302  1.984   .     S
O2099  Zn2301  2.019   .     S
O2103  Zn2110  2.019   .     S
O2104  Zn2302  2.025   .     S
O2105  Zn2109  2.025   .     S
O2106  Zn2110  1.979   .     S
O2107  Zn2301  1.979   .     S
O2108  Zn1727  1.984   1_565 S
Zn2109 O2299   1.979   1_455 S
Zn2109 O2291   2.019   1_455 S
Zn2110 O2280   1.984   1_455 S
Zn2110 O2296   2.025   1_455 S
C2113  O2295   1.293   .     A
C2113  C2142   1.450   .     S
C2113  O2269   1.303   .     A
C2114  C2149   1.479   .     S
C2114  C387    1.429   1_656 S
C2114  N2057   1.369   1_655 S
C2115  C2150   1.485   .     S
C2115  N2260   1.385   .     A
C2116  N2249   1.372   .     A
C2116  C2151   1.465   .     S
C2116  C640    1.427   1_556 S
C2117  N2263   1.373   .     A
C2117  C2152   1.477   .     S
C2118  C2153   1.477   .     S
C2118  C583    1.425   1_556 S
C2118  N1878   1.369   1_565 S
C2119  C2154   1.462   .     S
C2119  N1879   1.374   1_565 S
C2120  C2155   1.462   .     S
C2120  N2262   1.372   .     A
C2120  C581    1.429   1_556 S
C2121  N2264   1.419   .     S
C2121  C2132   1.384   .     A
C2121  C2140   1.404   .     A
C2122  C2139   1.405   .     A
C2122  C2133   1.396   .     A
C2122  N2265   1.426   .     S
C2123  C2130   1.383   .     A
C2123  N2266   1.426   .     S
C2123  C2139   1.399   .     A
C2124  C2141   1.427   .     S
C2124  O2280   1.297   .     A
C2124  O2291   1.286   .     A
C2125  N2267   1.430   .     S
C2125  C2140   1.408   .     A
C2125  C2131   1.395   .     A
C2126  C2142   1.411   .     A
C2126  N2268   1.431   .     S
C2126  C2137   1.391   .     A
C2127  C2141   1.404   .     A
C2127  N2250   1.430   .     S
C2127  C2138   1.388   .     A
C2128  C2141   1.408   .     A
C2128  N2251   1.425   .     S
C2128  C2134   1.388   .     A
C2129  C2142   1.417   .     A
C2129  C2136   1.391   .     A
C2129  N2252   1.439   .     S
C2130  C2144   1.404   .     A
C2130  N2253   1.420   .     S
C2131  C2143   1.407   .     A
C2131  N2254   1.427   .     S
C2132  N2255   1.431   .     S
C2132  C2143   1.405   .     A
C2133  N2256   1.428   .     S
C2133  C2144   1.409   .     A
C2134  C2147   1.412   .     A
C2134  N2257   1.433   .     S
C2135  C2140   1.434   .     S
C2135  O2296   1.292   .     A
C2135  O2299   1.296   .     A
C2136  C2145   1.403   .     A
C2136  N2258   1.431   .     S
C2137  N2259   1.424   .     S
C2137  C2145   1.412   .     A
C2138  C2147   1.405   .     A
C2138  N2261   1.424   .     S
C2139  C2146   1.423   .     S
C2143  C2175   1.423   .     S
C2144  C2174   1.436   .     S
C2145  C2168   1.441   .     S
C2146  O2298   1.287   .     A
C2146  O2297   1.295   .     A
C2147  C2157   1.428   .     S
C2148  O2278   1.397   .     S
C2148  C2176   1.475   .     S
C2149  O2281   1.396   .     S
C2149  O2087   1.221   1_655 S
C2150  O2283   1.398   .     S
C2150  O2282   1.211   .     D
C2151  O2285   1.397   .     S
C2151  O2284   1.219   .     D
C2152  O2286   1.217   .     D
C2152  O2287   1.396   .     S
C2153  O2289   1.397   .     S
C2153  O2288   1.222   .     D
C2154  O2290   1.211   .     D
C2154  O2292   1.398   .     S
C2155  O2293   1.219   .     D
C2155  O2294   1.398   .     S
C2156  H2178   1.106   .     S
C2156  N2264   1.449   .     S
C2156  H2180   1.107   .     S
C2156  H2179   1.112   .     S
C2157  O2272   1.303   .     A
C2157  O2300   1.281   .     A
C2158  H2184   1.109   .     S
C2158  H2182   1.112   .     S
C2158  N2265   1.448   .     S
C2159  H2189   1.112   .     S
C2159  H2186   1.111   .     S
C2159  N2266   1.448   .     S
C2159  H2187   1.103   .     S
C2160  H2191   1.110   .     S
C2160  H2193   1.110   .     S
C2160  N2267   1.449   .     S
C2160  H2192   1.110   .     S
C2161  N2268   1.445   .     S
C2161  H2197   1.111   .     S
C2161  H2196   1.108   .     S
C2161  H2195   1.110   .     S
C2162  H2201   1.112   .     S
C2162  H2202   1.110   .     S
C2162  H2200   1.111   .     S
C2162  N2250   1.450   .     S
C2163  H2204   1.109   .     S
C2163  H2205   1.109   .     S
C2163  H2206   1.110   .     S
C2163  N2251   1.451   .     S
C2164  H2209   1.097   .     S
C2164  H2211   1.110   .     S
C2164  N2252   1.450   .     S
C2164  H2208   1.112   .     S
C2165  N2253   1.449   .     S
C2165  H2213   1.109   .     S
C2165  H2214   1.111   .     S
C2165  H2215   1.110   .     S
C2166  H2219   1.112   .     S
C2166  H2218   1.108   .     S
C2166  N2254   1.447   .     S
C2166  H2217   1.109   .     S
C2167  H2224   1.112   .     S
C2167  N2255   1.450   .     S
C2167  H2222   1.111   .     S
C2168  O2271   1.295   .     A
C2168  O2270   1.298   .     A
C2169  H2227   1.110   .     S
C2169  H2228   1.110   .     S
C2169  N2256   1.450   .     S
C2169  H2226   1.110   .     S
C2170  N2257   1.442   .     S
C2170  H2233   1.110   .     S
C2170  H1846   1.111   1_565 S
C2170  H1847   1.105   1_565 S
C2171  H2235   1.110   .     S
C2171  H2236   1.105   .     S
C2171  H2237   1.108   .     S
C2171  N2258   1.446   .     S
C2172  N2259   1.449   .     S
C2172  H2239   1.109   .     S
C2172  H2240   1.108   .     S
C2172  H2241   1.110   .     S
C2173  H2245   1.108   .     S
C2173  H2244   1.103   .     S
C2173  H2246   1.112   .     S
C2173  N2261   1.447   .     S
C2174  O2273   1.292   .     A
C2174  O2276   1.297   .     A
C2175  O2274   1.297   .     A
C2175  O2275   1.285   .     A
C2176  N2260   1.372   .     A
H2177  O2278   1.014   .     S
H2181  N2265   1.030   .     S
H2183  C1966   1.107   1_655 S
H2185  N2266   1.031   .     S
H2188  O2281   1.014   .     S
H2190  N2267   1.031   .     S
H2194  N2268   1.029   .     S
H2198  N2250   1.031   .     S
H2199  O2283   1.013   .     S
H2203  N2251   1.030   .     S
H2207  N2252   1.023   .     S
H2210  O2285   1.011   .     S
H2212  N2253   1.030   .     S
H2216  N2254   1.030   .     S
H2220  N2255   1.031   .     S
H2221  O2287   1.014   .     S
H2223  C1783   1.110   1_565 S
H2225  N2256   1.031   .     S
H2229  N2257   1.029   .     S
H2232  O2289   1.014   .     S
H2234  N2258   1.032   .     S
H2238  N2259   1.031   .     S
H2242  N2261   1.030   .     S
H2243  O2292   1.010   .     S
H2247  O2294   1.010   .     S
H2248  N2264   1.029   .     S
N2249  Zn2301  2.032   .     S
N2260  Zn2302  2.032   .     S
N2262  Zn2303  2.032   .     S
N2263  Zn2304  2.032   .     S
O2269  Zn2301  1.984   .     S
O2270  Zn2304  1.984   .     S
O2271  Zn2303  2.019   .     S
O2272  Zn1920  2.019   1_565 S
O2273  Zn1920  2.025   1_565 S
O2274  Zn2303  2.025   .     S
O2275  Zn2304  1.979   .     S
O2276  Zn1919  1.979   1_565 S
O2277  C1956   1.221   1_655 S
O2280  Zn2110  1.984   1_655 S
O2291  Zn2109  2.019   1_655 S
O2295  Zn2302  2.019   .     S
O2296  Zn2110  2.025   1_655 S
O2297  Zn2301  2.025   .     S
O2298  Zn2302  1.979   .     S
O2299  Zn2109  1.979   1_655 S
O2300  Zn1919  1.984   1_565 S
