data_str_m2_o1_o16_pcu_sym.65
_audit_creation_date              2020-01-03
_audit_creation_method            'Materials Studio'
_symmetry_space_group_name_H-M    'P1'
_symmetry_Int_Tables_number       1
_symmetry_cell_setting            triclinic
loop_
_symmetry_equiv_pos_as_xyz
  x,y,z
_cell_length_a                    28.5821
_cell_length_b                    32.3768
_cell_length_c                    27.0142
_cell_angle_alpha                 90.1864
_cell_angle_beta                  73.1814
_cell_angle_gamma                 89.9231
loop_
_atom_site_label
_atom_site_type_symbol
_atom_site_fract_x
_atom_site_fract_y
_atom_site_fract_z
_atom_site_U_iso_or_equiv
_atom_site_adp_type
_atom_site_occupancy
C1     C     0.16666   0.24595   0.25011   0.00000  Uiso   1.00
C2     C     0.12771   0.18138   0.40567   0.00000  Uiso   1.00
C3     C     0.20634   0.31220   0.21692   0.00000  Uiso   1.00
C4     C     0.14117   0.17140   0.34955   0.00000  Uiso   1.00
C5     C     0.20636   0.02169   0.21765   0.00000  Uiso   1.00
C6     C     0.16677   0.04305   0.25002   0.00000  Uiso   1.00
C7     C     0.12736   0.02200   0.28273   0.00000  Uiso   1.00
C8     C     0.12750   0.31254   0.28380   0.00000  Uiso   1.00
C9     C     0.16677   0.29069   0.25021   0.00000  Uiso   1.00
C10    C     0.30202   0.19751   0.27395   0.00000  Uiso   1.00
C11    C     0.01803   0.19719   0.27452   0.00000  Uiso   1.00
C12    C     0.14796   0.18260   0.48826   0.00000  Uiso   1.00
C13    C     0.03162   0.13625   0.22512   0.00000  Uiso   1.00
C14    C     0.31531   0.13615   0.22535   0.00000  Uiso   1.00
C15    C     0.16670   0.08749   0.24994   0.00000  Uiso   1.00
C16    C     0.19271   0.16524   0.15014   0.00000  Uiso   1.00
C17    C     0.26699   0.15233   0.00980   0.00000  Uiso   1.00
C18    C     0.20758   0.16354   0.09340   0.00000  Uiso   1.00
C19    C     0.07836   0.18751   0.43263   0.00000  Uiso   1.00
C20    C     0.06402   0.19285   0.48602   0.00000  Uiso   1.00
C21    C     0.09770   0.18850   0.01392   0.00000  Uiso   1.00
C22    C     0.30993   0.09821   0.46532   0.00000  Uiso   1.00
C23    C     0.16327   0.18378   0.43344   0.00000  Uiso   1.00
C24    C     0.18374   0.17490   0.01467   0.00000  Uiso   1.00
C25    C     0.23297   0.16751   0.48573   0.00000  Uiso   1.00
C26    C     0.24796   0.17687   0.43335   0.00000  Uiso   1.00
C27    C     0.21378   0.18763   0.40861   0.00000  Uiso   1.00
C28    C     0.17232   0.17372   0.06859   0.00000  Uiso   1.00
C29    C     0.25484   0.15124   0.06376   0.00000  Uiso   1.00
Cl30   Cl    0.29960   0.13313   0.09198   0.00000  Uiso   1.00
Cl31   Cl    0.07947   0.28786   0.33022   0.00000  Uiso   1.00
Cl32   Cl    0.25552   0.28697   0.17210   0.00000  Uiso   1.00
Cu33   Cu    0.11978   0.16666   0.25000   0.00000  Uiso   1.00
Cu34   Cu    0.21355   0.16667   0.25000   0.00000  Uiso   1.00
H35    H     0.23664   0.03835   0.19205   0.00000  Uiso   1.00
H36    H     0.08306   0.19011   0.05535   0.00000  Uiso   1.00
H37    H     0.02608   0.19885   0.00638   0.00000  Uiso   1.00
H38    H     0.22808   0.19986   0.37039   0.00000  Uiso   1.00
H39    H     0.28571   0.09515   0.43983   0.00000  Uiso   1.00
H40    H     0.29721   0.07752   0.49940   0.00000  Uiso   1.00
H41    H     0.01366   0.08779   0.44283   0.00000  Uiso   1.00
H42    H     0.09723   0.03892   0.30851   0.00000  Uiso   1.00
H43    H     0.27846   0.22261   0.29256   0.00000  Uiso   1.00
H44    H     0.03107   0.22154   0.29444   0.00000  Uiso   1.00
H45    H     0.05573   0.11193   0.20499   0.00000  Uiso   1.00
H46    H     0.30217   0.11170   0.20552   0.00000  Uiso   1.00
H47    H     0.28630   0.17676   0.41151   0.00000  Uiso   1.00
H48    H     0.13628   0.18178   0.09231   0.00000  Uiso   1.00
H49    H     0.05070   0.18822   0.41243   0.00000  Uiso   1.00
N50    N     0.04931   0.16666   0.24999   0.00000  Uiso   1.00
N51    N     0.28402   0.16669   0.24999   0.00000  Uiso   1.00
O52    O     0.12708   0.22678   0.25001   0.00000  Uiso   1.00
O53    O     0.20627   0.22679   0.25001   0.00000  Uiso   1.00
O54    O     0.10775   0.16665   0.32549   0.00000  Uiso   1.00
O55    O     0.18694   0.16666   0.32549   0.00000  Uiso   1.00
O56    O     0.12706   0.10654   0.25000   0.00000  Uiso   1.00
O57    O     0.20625   0.10655   0.24999   0.00000  Uiso   1.00
O58    O     0.14640   0.16667   0.17451   0.00000  Uiso   1.00
O59    O     0.22559   0.16668   0.17451   0.00000  Uiso   1.00
O60    O     0.31291   0.13957   0.48061   0.00000  Uiso   1.00
C61    C     0.49999   0.24595   0.25011   0.00000  Uiso   1.00
C62    C     0.46104   0.18138   0.40567   0.00000  Uiso   1.00
C63    C     0.53968   0.31220   0.21692   0.00000  Uiso   1.00
C64    C     0.47450   0.17140   0.34955   0.00000  Uiso   1.00
C65    C     0.53970   0.02169   0.21765   0.00000  Uiso   1.00
C66    C     0.50010   0.04305   0.25002   0.00000  Uiso   1.00
C67    C     0.46069   0.02200   0.28273   0.00000  Uiso   1.00
C68    C     0.46083   0.31254   0.28380   0.00000  Uiso   1.00
C69    C     0.50010   0.29069   0.25021   0.00000  Uiso   1.00
C70    C     0.63535   0.19751   0.27395   0.00000  Uiso   1.00
C71    C     0.35137   0.19719   0.27452   0.00000  Uiso   1.00
C72    C     0.48129   0.18260   0.48826   0.00000  Uiso   1.00
C73    C     0.36495   0.13625   0.22512   0.00000  Uiso   1.00
C74    C     0.64865   0.13615   0.22535   0.00000  Uiso   1.00
C75    C     0.50004   0.08749   0.24994   0.00000  Uiso   1.00
C76    C     0.52604   0.16524   0.15014   0.00000  Uiso   1.00
C77    C     0.60033   0.15233   0.00980   0.00000  Uiso   1.00
C78    C     0.54091   0.16354   0.09340   0.00000  Uiso   1.00
C79    C     0.41169   0.18751   0.43263   0.00000  Uiso   1.00
C80    C     0.39735   0.19285   0.48602   0.00000  Uiso   1.00
C81    C     0.43103   0.18850   0.01392   0.00000  Uiso   1.00
C82    C     0.64326   0.09821   0.46532   0.00000  Uiso   1.00
C83    C     0.49660   0.18378   0.43344   0.00000  Uiso   1.00
C84    C     0.51708   0.17490   0.01467   0.00000  Uiso   1.00
C85    C     0.56631   0.16751   0.48573   0.00000  Uiso   1.00
C86    C     0.58129   0.17687   0.43335   0.00000  Uiso   1.00
C87    C     0.54711   0.18763   0.40861   0.00000  Uiso   1.00
C88    C     0.50566   0.17372   0.06859   0.00000  Uiso   1.00
C89    C     0.58818   0.15124   0.06376   0.00000  Uiso   1.00
Cl90   Cl    0.63293   0.13313   0.09198   0.00000  Uiso   1.00
Cl91   Cl    0.41281   0.28786   0.33022   0.00000  Uiso   1.00
Cl92   Cl    0.58885   0.28697   0.17210   0.00000  Uiso   1.00
Cu93   Cu    0.45311   0.16666   0.25000   0.00000  Uiso   1.00
Cu94   Cu    0.54689   0.16667   0.25000   0.00000  Uiso   1.00
H95    H     0.56997   0.03835   0.19205   0.00000  Uiso   1.00
H96    H     0.41639   0.19011   0.05535   0.00000  Uiso   1.00
H97    H     0.35941   0.19885   0.00638   0.00000  Uiso   1.00
H98    H     0.56141   0.19986   0.37039   0.00000  Uiso   1.00
H99    H     0.61905   0.09515   0.43983   0.00000  Uiso   1.00
H100   H     0.63054   0.07752   0.49940   0.00000  Uiso   1.00
H101   H     0.34700   0.08779   0.44283   0.00000  Uiso   1.00
H102   H     0.43056   0.03892   0.30851   0.00000  Uiso   1.00
H103   H     0.61179   0.22261   0.29256   0.00000  Uiso   1.00
H104   H     0.36441   0.22154   0.29444   0.00000  Uiso   1.00
H105   H     0.38907   0.11193   0.20499   0.00000  Uiso   1.00
H106   H     0.63550   0.11170   0.20552   0.00000  Uiso   1.00
H107   H     0.61964   0.17676   0.41151   0.00000  Uiso   1.00
H108   H     0.46962   0.18178   0.09231   0.00000  Uiso   1.00
H109   H     0.38403   0.18822   0.41243   0.00000  Uiso   1.00
N110   N     0.38265   0.16666   0.24999   0.00000  Uiso   1.00
N111   N     0.61735   0.16669   0.24999   0.00000  Uiso   1.00
O112   O     0.46042   0.22678   0.25001   0.00000  Uiso   1.00
O113   O     0.53961   0.22679   0.25001   0.00000  Uiso   1.00
O114   O     0.44108   0.16665   0.32549   0.00000  Uiso   1.00
O115   O     0.52027   0.16666   0.32549   0.00000  Uiso   1.00
O116   O     0.46039   0.10654   0.25000   0.00000  Uiso   1.00
O117   O     0.53958   0.10655   0.24999   0.00000  Uiso   1.00
O118   O     0.47973   0.16667   0.17451   0.00000  Uiso   1.00
O119   O     0.55892   0.16668   0.17451   0.00000  Uiso   1.00
O120   O     0.64625   0.13957   0.48061   0.00000  Uiso   1.00
C121   C     0.83332   0.24595   0.25011   0.00000  Uiso   1.00
C122   C     0.79437   0.18138   0.40567   0.00000  Uiso   1.00
C123   C     0.87301   0.31220   0.21692   0.00000  Uiso   1.00
C124   C     0.80784   0.17140   0.34955   0.00000  Uiso   1.00
C125   C     0.87303   0.02169   0.21765   0.00000  Uiso   1.00
C126   C     0.83344   0.04305   0.25002   0.00000  Uiso   1.00
C127   C     0.79402   0.02200   0.28273   0.00000  Uiso   1.00
C128   C     0.79416   0.31254   0.28380   0.00000  Uiso   1.00
C129   C     0.83343   0.29069   0.25021   0.00000  Uiso   1.00
C130   C     0.96868   0.19751   0.27395   0.00000  Uiso   1.00
C131   C     0.68470   0.19719   0.27452   0.00000  Uiso   1.00
C132   C     0.81463   0.18260   0.48826   0.00000  Uiso   1.00
C133   C     0.69828   0.13625   0.22512   0.00000  Uiso   1.00
C134   C     0.98198   0.13615   0.22535   0.00000  Uiso   1.00
C135   C     0.83337   0.08749   0.24994   0.00000  Uiso   1.00
C136   C     0.85937   0.16524   0.15014   0.00000  Uiso   1.00
C137   C     0.93366   0.15233   0.00980   0.00000  Uiso   1.00
C138   C     0.87425   0.16354   0.09340   0.00000  Uiso   1.00
C139   C     0.74502   0.18751   0.43263   0.00000  Uiso   1.00
C140   C     0.73069   0.19285   0.48602   0.00000  Uiso   1.00
C141   C     0.76437   0.18850   0.01392   0.00000  Uiso   1.00
C142   C     0.97659   0.09821   0.46532   0.00000  Uiso   1.00
C143   C     0.82994   0.18378   0.43344   0.00000  Uiso   1.00
C144   C     0.85041   0.17490   0.01467   0.00000  Uiso   1.00
C145   C     0.89964   0.16751   0.48573   0.00000  Uiso   1.00
C146   C     0.91462   0.17687   0.43335   0.00000  Uiso   1.00
C147   C     0.88045   0.18763   0.40861   0.00000  Uiso   1.00
C148   C     0.83899   0.17372   0.06859   0.00000  Uiso   1.00
C149   C     0.92151   0.15124   0.06376   0.00000  Uiso   1.00
Cl150  Cl    0.96626   0.13313   0.09198   0.00000  Uiso   1.00
Cl151  Cl    0.74614   0.28786   0.33022   0.00000  Uiso   1.00
Cl152  Cl    0.92218   0.28697   0.17210   0.00000  Uiso   1.00
Cu153  Cu    0.78645   0.16666   0.25000   0.00000  Uiso   1.00
Cu154  Cu    0.88022   0.16667   0.25000   0.00000  Uiso   1.00
H155   H     0.90331   0.03835   0.19205   0.00000  Uiso   1.00
H156   H     0.74972   0.19011   0.05535   0.00000  Uiso   1.00
H157   H     0.69274   0.19885   0.00638   0.00000  Uiso   1.00
H158   H     0.89475   0.19986   0.37039   0.00000  Uiso   1.00
H159   H     0.95238   0.09515   0.43983   0.00000  Uiso   1.00
H160   H     0.96388   0.07752   0.49940   0.00000  Uiso   1.00
H161   H     0.68033   0.08779   0.44283   0.00000  Uiso   1.00
H162   H     0.76390   0.03892   0.30851   0.00000  Uiso   1.00
H163   H     0.94512   0.22261   0.29256   0.00000  Uiso   1.00
H164   H     0.69774   0.22154   0.29444   0.00000  Uiso   1.00
H165   H     0.72240   0.11193   0.20499   0.00000  Uiso   1.00
H166   H     0.96883   0.11170   0.20552   0.00000  Uiso   1.00
H167   H     0.95297   0.17676   0.41151   0.00000  Uiso   1.00
H168   H     0.80295   0.18178   0.09231   0.00000  Uiso   1.00
H169   H     0.71737   0.18822   0.41243   0.00000  Uiso   1.00
N170   N     0.71598   0.16666   0.24999   0.00000  Uiso   1.00
N171   N     0.95069   0.16669   0.24999   0.00000  Uiso   1.00
O172   O     0.79375   0.22678   0.25001   0.00000  Uiso   1.00
O173   O     0.87294   0.22679   0.25001   0.00000  Uiso   1.00
O174   O     0.77441   0.16665   0.32549   0.00000  Uiso   1.00
O175   O     0.85360   0.16666   0.32549   0.00000  Uiso   1.00
O176   O     0.79373   0.10654   0.25000   0.00000  Uiso   1.00
O177   O     0.87292   0.10655   0.24999   0.00000  Uiso   1.00
O178   O     0.81306   0.16667   0.17451   0.00000  Uiso   1.00
O179   O     0.89225   0.16668   0.17451   0.00000  Uiso   1.00
O180   O     0.97958   0.13957   0.48061   0.00000  Uiso   1.00
C181   C     0.16666   0.57929   0.25011   0.00000  Uiso   1.00
C182   C     0.12771   0.51472   0.40567   0.00000  Uiso   1.00
C183   C     0.20634   0.64553   0.21692   0.00000  Uiso   1.00
C184   C     0.14117   0.50474   0.34955   0.00000  Uiso   1.00
C185   C     0.20636   0.35502   0.21765   0.00000  Uiso   1.00
C186   C     0.16677   0.37638   0.25002   0.00000  Uiso   1.00
C187   C     0.12736   0.35534   0.28273   0.00000  Uiso   1.00
C188   C     0.12750   0.64587   0.28380   0.00000  Uiso   1.00
C189   C     0.16677   0.62402   0.25021   0.00000  Uiso   1.00
C190   C     0.30202   0.53084   0.27395   0.00000  Uiso   1.00
C191   C     0.01803   0.53052   0.27452   0.00000  Uiso   1.00
C192   C     0.14796   0.51593   0.48826   0.00000  Uiso   1.00
C193   C     0.03162   0.46958   0.22512   0.00000  Uiso   1.00
C194   C     0.31531   0.46948   0.22535   0.00000  Uiso   1.00
C195   C     0.16670   0.42082   0.24994   0.00000  Uiso   1.00
C196   C     0.19271   0.49857   0.15014   0.00000  Uiso   1.00
C197   C     0.26699   0.48566   0.00980   0.00000  Uiso   1.00
C198   C     0.20758   0.49687   0.09340   0.00000  Uiso   1.00
C199   C     0.07836   0.52084   0.43263   0.00000  Uiso   1.00
C200   C     0.06402   0.52618   0.48602   0.00000  Uiso   1.00
C201   C     0.09770   0.52184   0.01392   0.00000  Uiso   1.00
C202   C     0.30993   0.43154   0.46532   0.00000  Uiso   1.00
C203   C     0.16327   0.51712   0.43344   0.00000  Uiso   1.00
C204   C     0.18374   0.50824   0.01467   0.00000  Uiso   1.00
C205   C     0.23297   0.50085   0.48573   0.00000  Uiso   1.00
C206   C     0.24796   0.51021   0.43335   0.00000  Uiso   1.00
C207   C     0.21378   0.52096   0.40861   0.00000  Uiso   1.00
C208   C     0.17232   0.50705   0.06859   0.00000  Uiso   1.00
C209   C     0.25484   0.48457   0.06376   0.00000  Uiso   1.00
Cl210  Cl    0.29960   0.46646   0.09198   0.00000  Uiso   1.00
Cl211  Cl    0.07947   0.62120   0.33022   0.00000  Uiso   1.00
Cl212  Cl    0.25552   0.62031   0.17210   0.00000  Uiso   1.00
Cu213  Cu    0.11978   0.49999   0.25000   0.00000  Uiso   1.00
Cu214  Cu    0.21355   0.50001   0.25000   0.00000  Uiso   1.00
H215   H     0.23664   0.37169   0.19205   0.00000  Uiso   1.00
H216   H     0.08306   0.52344   0.05535   0.00000  Uiso   1.00
H217   H     0.02608   0.53218   0.00638   0.00000  Uiso   1.00
H218   H     0.22808   0.53319   0.37039   0.00000  Uiso   1.00
H219   H     0.28571   0.42848   0.43983   0.00000  Uiso   1.00
H220   H     0.29721   0.41085   0.49940   0.00000  Uiso   1.00
H221   H     0.01366   0.42112   0.44283   0.00000  Uiso   1.00
H222   H     0.09723   0.37225   0.30851   0.00000  Uiso   1.00
H223   H     0.27846   0.55594   0.29256   0.00000  Uiso   1.00
H224   H     0.03107   0.55487   0.29444   0.00000  Uiso   1.00
H225   H     0.05573   0.44527   0.20499   0.00000  Uiso   1.00
H226   H     0.30217   0.44503   0.20552   0.00000  Uiso   1.00
H227   H     0.28630   0.51010   0.41151   0.00000  Uiso   1.00
H228   H     0.13628   0.51511   0.09231   0.00000  Uiso   1.00
H229   H     0.05070   0.52155   0.41243   0.00000  Uiso   1.00
N230   N     0.04931   0.49999   0.24999   0.00000  Uiso   1.00
N231   N     0.28402   0.50002   0.24999   0.00000  Uiso   1.00
O232   O     0.12708   0.56011   0.25001   0.00000  Uiso   1.00
O233   O     0.20627   0.56012   0.25001   0.00000  Uiso   1.00
O234   O     0.10775   0.49998   0.32549   0.00000  Uiso   1.00
O235   O     0.18694   0.49999   0.32549   0.00000  Uiso   1.00
O236   O     0.12706   0.43988   0.25000   0.00000  Uiso   1.00
O237   O     0.20625   0.43989   0.24999   0.00000  Uiso   1.00
O238   O     0.14640   0.50001   0.17451   0.00000  Uiso   1.00
O239   O     0.22559   0.50002   0.17451   0.00000  Uiso   1.00
O240   O     0.31291   0.47290   0.48061   0.00000  Uiso   1.00
C241   C     0.49999   0.57929   0.25011   0.00000  Uiso   1.00
C242   C     0.46104   0.51472   0.40567   0.00000  Uiso   1.00
C243   C     0.53968   0.64553   0.21692   0.00000  Uiso   1.00
C244   C     0.47450   0.50474   0.34955   0.00000  Uiso   1.00
C245   C     0.53970   0.35502   0.21765   0.00000  Uiso   1.00
C246   C     0.50010   0.37638   0.25002   0.00000  Uiso   1.00
C247   C     0.46069   0.35534   0.28273   0.00000  Uiso   1.00
C248   C     0.46083   0.64587   0.28380   0.00000  Uiso   1.00
C249   C     0.50010   0.62402   0.25021   0.00000  Uiso   1.00
C250   C     0.63535   0.53084   0.27395   0.00000  Uiso   1.00
C251   C     0.35137   0.53052   0.27452   0.00000  Uiso   1.00
C252   C     0.48129   0.51593   0.48826   0.00000  Uiso   1.00
C253   C     0.36495   0.46958   0.22512   0.00000  Uiso   1.00
C254   C     0.64865   0.46948   0.22535   0.00000  Uiso   1.00
C255   C     0.50004   0.42082   0.24994   0.00000  Uiso   1.00
C256   C     0.52604   0.49857   0.15014   0.00000  Uiso   1.00
C257   C     0.60033   0.48566   0.00980   0.00000  Uiso   1.00
C258   C     0.54091   0.49687   0.09340   0.00000  Uiso   1.00
C259   C     0.41169   0.52084   0.43263   0.00000  Uiso   1.00
C260   C     0.39735   0.52618   0.48602   0.00000  Uiso   1.00
C261   C     0.43103   0.52184   0.01392   0.00000  Uiso   1.00
C262   C     0.64326   0.43154   0.46532   0.00000  Uiso   1.00
C263   C     0.49660   0.51712   0.43344   0.00000  Uiso   1.00
C264   C     0.51708   0.50824   0.01467   0.00000  Uiso   1.00
C265   C     0.56631   0.50085   0.48573   0.00000  Uiso   1.00
C266   C     0.58129   0.51021   0.43335   0.00000  Uiso   1.00
C267   C     0.54711   0.52096   0.40861   0.00000  Uiso   1.00
C268   C     0.50566   0.50705   0.06859   0.00000  Uiso   1.00
C269   C     0.58818   0.48457   0.06376   0.00000  Uiso   1.00
Cl270  Cl    0.63293   0.46646   0.09198   0.00000  Uiso   1.00
Cl271  Cl    0.41281   0.62120   0.33022   0.00000  Uiso   1.00
Cl272  Cl    0.58885   0.62031   0.17210   0.00000  Uiso   1.00
Cu273  Cu    0.45311   0.49999   0.25000   0.00000  Uiso   1.00
Cu274  Cu    0.54689   0.50001   0.25000   0.00000  Uiso   1.00
H275   H     0.56997   0.37169   0.19205   0.00000  Uiso   1.00
H276   H     0.41639   0.52344   0.05535   0.00000  Uiso   1.00
H277   H     0.35941   0.53218   0.00638   0.00000  Uiso   1.00
H278   H     0.56141   0.53319   0.37039   0.00000  Uiso   1.00
H279   H     0.61905   0.42848   0.43983   0.00000  Uiso   1.00
H280   H     0.63054   0.41085   0.49940   0.00000  Uiso   1.00
H281   H     0.34700   0.42112   0.44283   0.00000  Uiso   1.00
H282   H     0.43056   0.37225   0.30851   0.00000  Uiso   1.00
H283   H     0.61179   0.55594   0.29256   0.00000  Uiso   1.00
H284   H     0.36441   0.55487   0.29444   0.00000  Uiso   1.00
H285   H     0.38907   0.44527   0.20499   0.00000  Uiso   1.00
H286   H     0.63550   0.44503   0.20552   0.00000  Uiso   1.00
H287   H     0.61964   0.51010   0.41151   0.00000  Uiso   1.00
H288   H     0.46962   0.51511   0.09231   0.00000  Uiso   1.00
H289   H     0.38403   0.52155   0.41243   0.00000  Uiso   1.00
N290   N     0.38265   0.49999   0.24999   0.00000  Uiso   1.00
N291   N     0.61735   0.50002   0.24999   0.00000  Uiso   1.00
O292   O     0.46042   0.56011   0.25001   0.00000  Uiso   1.00
O293   O     0.53961   0.56012   0.25001   0.00000  Uiso   1.00
O294   O     0.44108   0.49998   0.32549   0.00000  Uiso   1.00
O295   O     0.52027   0.49999   0.32549   0.00000  Uiso   1.00
O296   O     0.46039   0.43988   0.25000   0.00000  Uiso   1.00
O297   O     0.53958   0.43989   0.24999   0.00000  Uiso   1.00
O298   O     0.47973   0.50001   0.17451   0.00000  Uiso   1.00
O299   O     0.55892   0.50002   0.17451   0.00000  Uiso   1.00
O300   O     0.64625   0.47290   0.48061   0.00000  Uiso   1.00
C301   C     0.83332   0.57929   0.25011   0.00000  Uiso   1.00
C302   C     0.79437   0.51472   0.40567   0.00000  Uiso   1.00
C303   C     0.87301   0.64553   0.21692   0.00000  Uiso   1.00
C304   C     0.80784   0.50474   0.34955   0.00000  Uiso   1.00
C305   C     0.87303   0.35502   0.21765   0.00000  Uiso   1.00
C306   C     0.83344   0.37638   0.25002   0.00000  Uiso   1.00
C307   C     0.79402   0.35534   0.28273   0.00000  Uiso   1.00
C308   C     0.79416   0.64587   0.28380   0.00000  Uiso   1.00
C309   C     0.83343   0.62402   0.25021   0.00000  Uiso   1.00
C310   C     0.96868   0.53084   0.27395   0.00000  Uiso   1.00
C311   C     0.68470   0.53052   0.27452   0.00000  Uiso   1.00
C312   C     0.81463   0.51593   0.48826   0.00000  Uiso   1.00
C313   C     0.69828   0.46958   0.22512   0.00000  Uiso   1.00
C314   C     0.98198   0.46948   0.22535   0.00000  Uiso   1.00
C315   C     0.83337   0.42082   0.24994   0.00000  Uiso   1.00
C316   C     0.85937   0.49857   0.15014   0.00000  Uiso   1.00
C317   C     0.93366   0.48566   0.00980   0.00000  Uiso   1.00
C318   C     0.87425   0.49687   0.09340   0.00000  Uiso   1.00
C319   C     0.74502   0.52084   0.43263   0.00000  Uiso   1.00
C320   C     0.73069   0.52618   0.48602   0.00000  Uiso   1.00
C321   C     0.76437   0.52184   0.01392   0.00000  Uiso   1.00
C322   C     0.97659   0.43154   0.46532   0.00000  Uiso   1.00
C323   C     0.82994   0.51712   0.43344   0.00000  Uiso   1.00
C324   C     0.85041   0.50824   0.01467   0.00000  Uiso   1.00
C325   C     0.89964   0.50085   0.48573   0.00000  Uiso   1.00
C326   C     0.91462   0.51021   0.43335   0.00000  Uiso   1.00
C327   C     0.88045   0.52096   0.40861   0.00000  Uiso   1.00
C328   C     0.83899   0.50705   0.06859   0.00000  Uiso   1.00
C329   C     0.92151   0.48457   0.06376   0.00000  Uiso   1.00
Cl330  Cl    0.96626   0.46646   0.09198   0.00000  Uiso   1.00
Cl331  Cl    0.74614   0.62120   0.33022   0.00000  Uiso   1.00
Cl332  Cl    0.92218   0.62031   0.17210   0.00000  Uiso   1.00
Cu333  Cu    0.78645   0.49999   0.25000   0.00000  Uiso   1.00
Cu334  Cu    0.88022   0.50001   0.25000   0.00000  Uiso   1.00
H335   H     0.90331   0.37169   0.19205   0.00000  Uiso   1.00
H336   H     0.74972   0.52344   0.05535   0.00000  Uiso   1.00
H337   H     0.69274   0.53218   0.00638   0.00000  Uiso   1.00
H338   H     0.89475   0.53319   0.37039   0.00000  Uiso   1.00
H339   H     0.95238   0.42848   0.43983   0.00000  Uiso   1.00
H340   H     0.96388   0.41085   0.49940   0.00000  Uiso   1.00
H341   H     0.68033   0.42112   0.44283   0.00000  Uiso   1.00
H342   H     0.76390   0.37225   0.30851   0.00000  Uiso   1.00
H343   H     0.94512   0.55594   0.29256   0.00000  Uiso   1.00
H344   H     0.69774   0.55487   0.29444   0.00000  Uiso   1.00
H345   H     0.72240   0.44527   0.20499   0.00000  Uiso   1.00
H346   H     0.96883   0.44503   0.20552   0.00000  Uiso   1.00
H347   H     0.95297   0.51010   0.41151   0.00000  Uiso   1.00
H348   H     0.80295   0.51511   0.09231   0.00000  Uiso   1.00
H349   H     0.71737   0.52155   0.41243   0.00000  Uiso   1.00
N350   N     0.71598   0.49999   0.24999   0.00000  Uiso   1.00
N351   N     0.95069   0.50002   0.24999   0.00000  Uiso   1.00
O352   O     0.79375   0.56011   0.25001   0.00000  Uiso   1.00
O353   O     0.87294   0.56012   0.25001   0.00000  Uiso   1.00
O354   O     0.77441   0.49998   0.32549   0.00000  Uiso   1.00
O355   O     0.85360   0.49999   0.32549   0.00000  Uiso   1.00
O356   O     0.79373   0.43988   0.25000   0.00000  Uiso   1.00
O357   O     0.87292   0.43989   0.24999   0.00000  Uiso   1.00
O358   O     0.81306   0.50001   0.17451   0.00000  Uiso   1.00
O359   O     0.89225   0.50002   0.17451   0.00000  Uiso   1.00
O360   O     0.97958   0.47290   0.48061   0.00000  Uiso   1.00
C361   C     0.16666   0.91262   0.25011   0.00000  Uiso   1.00
C362   C     0.12771   0.84805   0.40567   0.00000  Uiso   1.00
C363   C     0.20634   0.97887   0.21692   0.00000  Uiso   1.00
C364   C     0.14117   0.83807   0.34955   0.00000  Uiso   1.00
C365   C     0.20636   0.68836   0.21765   0.00000  Uiso   1.00
C366   C     0.16677   0.70972   0.25002   0.00000  Uiso   1.00
C367   C     0.12736   0.68867   0.28273   0.00000  Uiso   1.00
C368   C     0.12750   0.97921   0.28380   0.00000  Uiso   1.00
C369   C     0.16677   0.95736   0.25021   0.00000  Uiso   1.00
C370   C     0.30202   0.86417   0.27395   0.00000  Uiso   1.00
C371   C     0.01803   0.86386   0.27452   0.00000  Uiso   1.00
C372   C     0.14796   0.84926   0.48826   0.00000  Uiso   1.00
C373   C     0.03162   0.80292   0.22512   0.00000  Uiso   1.00
C374   C     0.31531   0.80282   0.22535   0.00000  Uiso   1.00
C375   C     0.16670   0.75415   0.24994   0.00000  Uiso   1.00
C376   C     0.19271   0.83190   0.15014   0.00000  Uiso   1.00
C377   C     0.26699   0.81899   0.00980   0.00000  Uiso   1.00
C378   C     0.20758   0.83020   0.09340   0.00000  Uiso   1.00
C379   C     0.07836   0.85417   0.43263   0.00000  Uiso   1.00
C380   C     0.06402   0.85951   0.48602   0.00000  Uiso   1.00
C381   C     0.09770   0.85517   0.01392   0.00000  Uiso   1.00
C382   C     0.30993   0.76487   0.46532   0.00000  Uiso   1.00
C383   C     0.16327   0.85045   0.43344   0.00000  Uiso   1.00
C384   C     0.18374   0.84157   0.01467   0.00000  Uiso   1.00
C385   C     0.23297   0.83418   0.48573   0.00000  Uiso   1.00
C386   C     0.24796   0.84354   0.43335   0.00000  Uiso   1.00
C387   C     0.21378   0.85430   0.40861   0.00000  Uiso   1.00
C388   C     0.17232   0.84039   0.06859   0.00000  Uiso   1.00
C389   C     0.25484   0.81790   0.06376   0.00000  Uiso   1.00
Cl390  Cl    0.29960   0.79979   0.09198   0.00000  Uiso   1.00
Cl391  Cl    0.07947   0.95453   0.33022   0.00000  Uiso   1.00
Cl392  Cl    0.25552   0.95364   0.17210   0.00000  Uiso   1.00
Cu393  Cu    0.11978   0.83333   0.25000   0.00000  Uiso   1.00
Cu394  Cu    0.21355   0.83334   0.25000   0.00000  Uiso   1.00
H395   H     0.23664   0.70502   0.19205   0.00000  Uiso   1.00
H396   H     0.08306   0.85677   0.05535   0.00000  Uiso   1.00
H397   H     0.02608   0.86551   0.00638   0.00000  Uiso   1.00
H398   H     0.22808   0.86652   0.37039   0.00000  Uiso   1.00
H399   H     0.28571   0.76182   0.43983   0.00000  Uiso   1.00
H400   H     0.29721   0.74419   0.49940   0.00000  Uiso   1.00
H401   H     0.01366   0.75446   0.44283   0.00000  Uiso   1.00
H402   H     0.09723   0.70558   0.30851   0.00000  Uiso   1.00
H403   H     0.27846   0.88928   0.29256   0.00000  Uiso   1.00
H404   H     0.03107   0.88821   0.29444   0.00000  Uiso   1.00
H405   H     0.05573   0.77860   0.20499   0.00000  Uiso   1.00
H406   H     0.30217   0.77837   0.20552   0.00000  Uiso   1.00
H407   H     0.28630   0.84343   0.41151   0.00000  Uiso   1.00
H408   H     0.13628   0.84844   0.09231   0.00000  Uiso   1.00
H409   H     0.05070   0.85488   0.41243   0.00000  Uiso   1.00
N410   N     0.04931   0.83332   0.24999   0.00000  Uiso   1.00
N411   N     0.28402   0.83335   0.24999   0.00000  Uiso   1.00
O412   O     0.12708   0.89345   0.25001   0.00000  Uiso   1.00
O413   O     0.20627   0.89346   0.25001   0.00000  Uiso   1.00
O414   O     0.10775   0.83332   0.32549   0.00000  Uiso   1.00
O415   O     0.18694   0.83333   0.32549   0.00000  Uiso   1.00
O416   O     0.12706   0.77321   0.25000   0.00000  Uiso   1.00
O417   O     0.20625   0.77322   0.24999   0.00000  Uiso   1.00
O418   O     0.14640   0.83334   0.17451   0.00000  Uiso   1.00
O419   O     0.22559   0.83335   0.17451   0.00000  Uiso   1.00
O420   O     0.31291   0.80623   0.48061   0.00000  Uiso   1.00
C421   C     0.49999   0.91262   0.25011   0.00000  Uiso   1.00
C422   C     0.46104   0.84805   0.40567   0.00000  Uiso   1.00
C423   C     0.53968   0.97887   0.21692   0.00000  Uiso   1.00
C424   C     0.47450   0.83807   0.34955   0.00000  Uiso   1.00
C425   C     0.53970   0.68836   0.21765   0.00000  Uiso   1.00
C426   C     0.50010   0.70972   0.25002   0.00000  Uiso   1.00
C427   C     0.46069   0.68867   0.28273   0.00000  Uiso   1.00
C428   C     0.46083   0.97921   0.28380   0.00000  Uiso   1.00
C429   C     0.50010   0.95736   0.25021   0.00000  Uiso   1.00
C430   C     0.63535   0.86417   0.27395   0.00000  Uiso   1.00
C431   C     0.35137   0.86386   0.27452   0.00000  Uiso   1.00
C432   C     0.48129   0.84926   0.48826   0.00000  Uiso   1.00
C433   C     0.36495   0.80292   0.22512   0.00000  Uiso   1.00
C434   C     0.64865   0.80282   0.22535   0.00000  Uiso   1.00
C435   C     0.50004   0.75415   0.24994   0.00000  Uiso   1.00
C436   C     0.52604   0.83190   0.15014   0.00000  Uiso   1.00
C437   C     0.60033   0.81899   0.00980   0.00000  Uiso   1.00
C438   C     0.54091   0.83020   0.09340   0.00000  Uiso   1.00
C439   C     0.41169   0.85417   0.43263   0.00000  Uiso   1.00
C440   C     0.39735   0.85951   0.48602   0.00000  Uiso   1.00
C441   C     0.43103   0.85517   0.01392   0.00000  Uiso   1.00
C442   C     0.64326   0.76487   0.46532   0.00000  Uiso   1.00
C443   C     0.49660   0.85045   0.43344   0.00000  Uiso   1.00
C444   C     0.51708   0.84157   0.01467   0.00000  Uiso   1.00
C445   C     0.56631   0.83418   0.48573   0.00000  Uiso   1.00
C446   C     0.58129   0.84354   0.43335   0.00000  Uiso   1.00
C447   C     0.54711   0.85430   0.40861   0.00000  Uiso   1.00
C448   C     0.50566   0.84039   0.06859   0.00000  Uiso   1.00
C449   C     0.58818   0.81790   0.06376   0.00000  Uiso   1.00
Cl450  Cl    0.63293   0.79979   0.09198   0.00000  Uiso   1.00
Cl451  Cl    0.41281   0.95453   0.33022   0.00000  Uiso   1.00
Cl452  Cl    0.58885   0.95364   0.17210   0.00000  Uiso   1.00
Cu453  Cu    0.45311   0.83333   0.25000   0.00000  Uiso   1.00
Cu454  Cu    0.54689   0.83334   0.25000   0.00000  Uiso   1.00
H455   H     0.56997   0.70502   0.19205   0.00000  Uiso   1.00
H456   H     0.41639   0.85677   0.05535   0.00000  Uiso   1.00
H457   H     0.35941   0.86551   0.00638   0.00000  Uiso   1.00
H458   H     0.56141   0.86652   0.37039   0.00000  Uiso   1.00
H459   H     0.61905   0.76182   0.43983   0.00000  Uiso   1.00
H460   H     0.63054   0.74419   0.49940   0.00000  Uiso   1.00
H461   H     0.34700   0.75446   0.44283   0.00000  Uiso   1.00
H462   H     0.43056   0.70558   0.30851   0.00000  Uiso   1.00
H463   H     0.61179   0.88928   0.29256   0.00000  Uiso   1.00
H464   H     0.36441   0.88821   0.29444   0.00000  Uiso   1.00
H465   H     0.38907   0.77860   0.20499   0.00000  Uiso   1.00
H466   H     0.63550   0.77837   0.20552   0.00000  Uiso   1.00
H467   H     0.61964   0.84343   0.41151   0.00000  Uiso   1.00
H468   H     0.46962   0.84844   0.09231   0.00000  Uiso   1.00
H469   H     0.38403   0.85488   0.41243   0.00000  Uiso   1.00
N470   N     0.38265   0.83332   0.24999   0.00000  Uiso   1.00
N471   N     0.61735   0.83335   0.24999   0.00000  Uiso   1.00
O472   O     0.46042   0.89345   0.25001   0.00000  Uiso   1.00
O473   O     0.53961   0.89346   0.25001   0.00000  Uiso   1.00
O474   O     0.44108   0.83332   0.32549   0.00000  Uiso   1.00
O475   O     0.52027   0.83333   0.32549   0.00000  Uiso   1.00
O476   O     0.46039   0.77321   0.25000   0.00000  Uiso   1.00
O477   O     0.53958   0.77322   0.24999   0.00000  Uiso   1.00
O478   O     0.47973   0.83334   0.17451   0.00000  Uiso   1.00
O479   O     0.55892   0.83335   0.17451   0.00000  Uiso   1.00
O480   O     0.64625   0.80623   0.48061   0.00000  Uiso   1.00
C481   C     0.83332   0.91262   0.25011   0.00000  Uiso   1.00
C482   C     0.79437   0.84805   0.40567   0.00000  Uiso   1.00
C483   C     0.87301   0.97887   0.21692   0.00000  Uiso   1.00
C484   C     0.80784   0.83807   0.34955   0.00000  Uiso   1.00
C485   C     0.87303   0.68836   0.21765   0.00000  Uiso   1.00
C486   C     0.83344   0.70972   0.25002   0.00000  Uiso   1.00
C487   C     0.79402   0.68867   0.28273   0.00000  Uiso   1.00
C488   C     0.79416   0.97921   0.28380   0.00000  Uiso   1.00
C489   C     0.83343   0.95736   0.25021   0.00000  Uiso   1.00
C490   C     0.96868   0.86417   0.27395   0.00000  Uiso   1.00
C491   C     0.68470   0.86386   0.27452   0.00000  Uiso   1.00
C492   C     0.81463   0.84926   0.48826   0.00000  Uiso   1.00
C493   C     0.69828   0.80292   0.22512   0.00000  Uiso   1.00
C494   C     0.98198   0.80282   0.22535   0.00000  Uiso   1.00
C495   C     0.83337   0.75415   0.24994   0.00000  Uiso   1.00
C496   C     0.85937   0.83190   0.15014   0.00000  Uiso   1.00
C497   C     0.93366   0.81899   0.00980   0.00000  Uiso   1.00
C498   C     0.87425   0.83020   0.09340   0.00000  Uiso   1.00
C499   C     0.74502   0.85417   0.43263   0.00000  Uiso   1.00
C500   C     0.73069   0.85951   0.48602   0.00000  Uiso   1.00
C501   C     0.76437   0.85517   0.01392   0.00000  Uiso   1.00
C502   C     0.97659   0.76487   0.46532   0.00000  Uiso   1.00
C503   C     0.82994   0.85045   0.43344   0.00000  Uiso   1.00
C504   C     0.85041   0.84157   0.01467   0.00000  Uiso   1.00
C505   C     0.89964   0.83418   0.48573   0.00000  Uiso   1.00
C506   C     0.91462   0.84354   0.43335   0.00000  Uiso   1.00
C507   C     0.88045   0.85430   0.40861   0.00000  Uiso   1.00
C508   C     0.83899   0.84039   0.06859   0.00000  Uiso   1.00
C509   C     0.92151   0.81790   0.06376   0.00000  Uiso   1.00
Cl510  Cl    0.96626   0.79979   0.09198   0.00000  Uiso   1.00
Cl511  Cl    0.74614   0.95453   0.33022   0.00000  Uiso   1.00
Cl512  Cl    0.92218   0.95364   0.17210   0.00000  Uiso   1.00
Cu513  Cu    0.78645   0.83333   0.25000   0.00000  Uiso   1.00
Cu514  Cu    0.88022   0.83334   0.25000   0.00000  Uiso   1.00
H515   H     0.90331   0.70502   0.19205   0.00000  Uiso   1.00
H516   H     0.74972   0.85677   0.05535   0.00000  Uiso   1.00
H517   H     0.69274   0.86551   0.00638   0.00000  Uiso   1.00
H518   H     0.89475   0.86652   0.37039   0.00000  Uiso   1.00
H519   H     0.95238   0.76182   0.43983   0.00000  Uiso   1.00
H520   H     0.96388   0.74419   0.49940   0.00000  Uiso   1.00
H521   H     0.68033   0.75446   0.44283   0.00000  Uiso   1.00
H522   H     0.76390   0.70558   0.30851   0.00000  Uiso   1.00
H523   H     0.94512   0.88928   0.29256   0.00000  Uiso   1.00
H524   H     0.69774   0.88821   0.29444   0.00000  Uiso   1.00
H525   H     0.72240   0.77860   0.20499   0.00000  Uiso   1.00
H526   H     0.96883   0.77837   0.20552   0.00000  Uiso   1.00
H527   H     0.95297   0.84343   0.41151   0.00000  Uiso   1.00
H528   H     0.80295   0.84844   0.09231   0.00000  Uiso   1.00
H529   H     0.71737   0.85488   0.41243   0.00000  Uiso   1.00
N530   N     0.71598   0.83332   0.24999   0.00000  Uiso   1.00
N531   N     0.95069   0.83335   0.24999   0.00000  Uiso   1.00
O532   O     0.79375   0.89345   0.25001   0.00000  Uiso   1.00
O533   O     0.87294   0.89346   0.25001   0.00000  Uiso   1.00
O534   O     0.77441   0.83332   0.32549   0.00000  Uiso   1.00
O535   O     0.85360   0.83333   0.32549   0.00000  Uiso   1.00
O536   O     0.79373   0.77321   0.25000   0.00000  Uiso   1.00
O537   O     0.87292   0.77322   0.24999   0.00000  Uiso   1.00
O538   O     0.81306   0.83334   0.17451   0.00000  Uiso   1.00
O539   O     0.89225   0.83335   0.17451   0.00000  Uiso   1.00
O540   O     0.97958   0.80623   0.48061   0.00000  Uiso   1.00
C541   C     0.16666   0.24595   0.75011   0.00000  Uiso   1.00
C542   C     0.12771   0.18138   0.90567   0.00000  Uiso   1.00
C543   C     0.20634   0.31220   0.71692   0.00000  Uiso   1.00
C544   C     0.14117   0.17140   0.84955   0.00000  Uiso   1.00
C545   C     0.20636   0.02169   0.71765   0.00000  Uiso   1.00
C546   C     0.16677   0.04305   0.75002   0.00000  Uiso   1.00
C547   C     0.12736   0.02200   0.78273   0.00000  Uiso   1.00
C548   C     0.12750   0.31254   0.78380   0.00000  Uiso   1.00
C549   C     0.16677   0.29069   0.75021   0.00000  Uiso   1.00
C550   C     0.30202   0.19751   0.77395   0.00000  Uiso   1.00
C551   C     0.01803   0.19719   0.77452   0.00000  Uiso   1.00
C552   C     0.14796   0.18260   0.98826   0.00000  Uiso   1.00
C553   C     0.03162   0.13625   0.72512   0.00000  Uiso   1.00
C554   C     0.31531   0.13615   0.72535   0.00000  Uiso   1.00
C555   C     0.16670   0.08749   0.74994   0.00000  Uiso   1.00
C556   C     0.19271   0.16524   0.65014   0.00000  Uiso   1.00
C557   C     0.26699   0.15233   0.50980   0.00000  Uiso   1.00
C558   C     0.20758   0.16354   0.59340   0.00000  Uiso   1.00
C559   C     0.07836   0.18751   0.93263   0.00000  Uiso   1.00
C560   C     0.06402   0.19285   0.98602   0.00000  Uiso   1.00
C561   C     0.09770   0.18850   0.51392   0.00000  Uiso   1.00
C562   C     0.30993   0.09821   0.96532   0.00000  Uiso   1.00
C563   C     0.16327   0.18378   0.93344   0.00000  Uiso   1.00
C564   C     0.18374   0.17490   0.51467   0.00000  Uiso   1.00
C565   C     0.23297   0.16751   0.98573   0.00000  Uiso   1.00
C566   C     0.24796   0.17687   0.93335   0.00000  Uiso   1.00
C567   C     0.21378   0.18763   0.90861   0.00000  Uiso   1.00
C568   C     0.17232   0.17372   0.56859   0.00000  Uiso   1.00
C569   C     0.25484   0.15124   0.56376   0.00000  Uiso   1.00
Cl570  Cl    0.29960   0.13313   0.59198   0.00000  Uiso   1.00
Cl571  Cl    0.07947   0.28786   0.83022   0.00000  Uiso   1.00
Cl572  Cl    0.25552   0.28697   0.67210   0.00000  Uiso   1.00
Cu573  Cu    0.11978   0.16666   0.75000   0.00000  Uiso   1.00
Cu574  Cu    0.21355   0.16667   0.75000   0.00000  Uiso   1.00
H575   H     0.23664   0.03835   0.69205   0.00000  Uiso   1.00
H576   H     0.08306   0.19011   0.55535   0.00000  Uiso   1.00
H577   H     0.02608   0.19885   0.50638   0.00000  Uiso   1.00
H578   H     0.22808   0.19986   0.87039   0.00000  Uiso   1.00
H579   H     0.28571   0.09515   0.93983   0.00000  Uiso   1.00
H580   H     0.29721   0.07752   0.99940   0.00000  Uiso   1.00
H581   H     0.01366   0.08779   0.94283   0.00000  Uiso   1.00
H582   H     0.09723   0.03892   0.80851   0.00000  Uiso   1.00
H583   H     0.27846   0.22261   0.79256   0.00000  Uiso   1.00
H584   H     0.03107   0.22154   0.79444   0.00000  Uiso   1.00
H585   H     0.05573   0.11193   0.70499   0.00000  Uiso   1.00
H586   H     0.30217   0.11170   0.70552   0.00000  Uiso   1.00
H587   H     0.28630   0.17676   0.91151   0.00000  Uiso   1.00
H588   H     0.13628   0.18178   0.59231   0.00000  Uiso   1.00
H589   H     0.05070   0.18822   0.91243   0.00000  Uiso   1.00
N590   N     0.04931   0.16666   0.74999   0.00000  Uiso   1.00
N591   N     0.28402   0.16669   0.74999   0.00000  Uiso   1.00
O592   O     0.12708   0.22678   0.75001   0.00000  Uiso   1.00
O593   O     0.20627   0.22679   0.75001   0.00000  Uiso   1.00
O594   O     0.10775   0.16665   0.82549   0.00000  Uiso   1.00
O595   O     0.18694   0.16666   0.82549   0.00000  Uiso   1.00
O596   O     0.12706   0.10654   0.75000   0.00000  Uiso   1.00
O597   O     0.20625   0.10655   0.74999   0.00000  Uiso   1.00
O598   O     0.14640   0.16667   0.67451   0.00000  Uiso   1.00
O599   O     0.22559   0.16668   0.67451   0.00000  Uiso   1.00
O600   O     0.31291   0.13957   0.98061   0.00000  Uiso   1.00
C601   C     0.49999   0.24595   0.75011   0.00000  Uiso   1.00
C602   C     0.46104   0.18138   0.90567   0.00000  Uiso   1.00
C603   C     0.53968   0.31220   0.71692   0.00000  Uiso   1.00
C604   C     0.47450   0.17140   0.84955   0.00000  Uiso   1.00
C605   C     0.53970   0.02169   0.71765   0.00000  Uiso   1.00
C606   C     0.50010   0.04305   0.75002   0.00000  Uiso   1.00
C607   C     0.46069   0.02200   0.78273   0.00000  Uiso   1.00
C608   C     0.46083   0.31254   0.78380   0.00000  Uiso   1.00
C609   C     0.50010   0.29069   0.75021   0.00000  Uiso   1.00
C610   C     0.63535   0.19751   0.77395   0.00000  Uiso   1.00
C611   C     0.35137   0.19719   0.77452   0.00000  Uiso   1.00
C612   C     0.48129   0.18260   0.98826   0.00000  Uiso   1.00
C613   C     0.36495   0.13625   0.72512   0.00000  Uiso   1.00
C614   C     0.64865   0.13615   0.72535   0.00000  Uiso   1.00
C615   C     0.50004   0.08749   0.74994   0.00000  Uiso   1.00
C616   C     0.52604   0.16524   0.65014   0.00000  Uiso   1.00
C617   C     0.60033   0.15233   0.50980   0.00000  Uiso   1.00
C618   C     0.54091   0.16354   0.59340   0.00000  Uiso   1.00
C619   C     0.41169   0.18751   0.93263   0.00000  Uiso   1.00
C620   C     0.39735   0.19285   0.98602   0.00000  Uiso   1.00
C621   C     0.43103   0.18850   0.51392   0.00000  Uiso   1.00
C622   C     0.64326   0.09821   0.96532   0.00000  Uiso   1.00
C623   C     0.49660   0.18378   0.93344   0.00000  Uiso   1.00
C624   C     0.51708   0.17490   0.51467   0.00000  Uiso   1.00
C625   C     0.56631   0.16751   0.98573   0.00000  Uiso   1.00
C626   C     0.58129   0.17687   0.93335   0.00000  Uiso   1.00
C627   C     0.54711   0.18763   0.90861   0.00000  Uiso   1.00
C628   C     0.50566   0.17372   0.56859   0.00000  Uiso   1.00
C629   C     0.58818   0.15124   0.56376   0.00000  Uiso   1.00
Cl630  Cl    0.63293   0.13313   0.59198   0.00000  Uiso   1.00
Cl631  Cl    0.41281   0.28786   0.83022   0.00000  Uiso   1.00
Cl632  Cl    0.58885   0.28697   0.67210   0.00000  Uiso   1.00
Cu633  Cu    0.45311   0.16666   0.75000   0.00000  Uiso   1.00
Cu634  Cu    0.54689   0.16667   0.75000   0.00000  Uiso   1.00
H635   H     0.56997   0.03835   0.69205   0.00000  Uiso   1.00
H636   H     0.41639   0.19011   0.55535   0.00000  Uiso   1.00
H637   H     0.35941   0.19885   0.50638   0.00000  Uiso   1.00
H638   H     0.56141   0.19986   0.87039   0.00000  Uiso   1.00
H639   H     0.61905   0.09515   0.93983   0.00000  Uiso   1.00
H640   H     0.63054   0.07752   0.99940   0.00000  Uiso   1.00
H641   H     0.34700   0.08779   0.94283   0.00000  Uiso   1.00
H642   H     0.43056   0.03892   0.80851   0.00000  Uiso   1.00
H643   H     0.61179   0.22261   0.79256   0.00000  Uiso   1.00
H644   H     0.36441   0.22154   0.79444   0.00000  Uiso   1.00
H645   H     0.38907   0.11193   0.70499   0.00000  Uiso   1.00
H646   H     0.63550   0.11170   0.70552   0.00000  Uiso   1.00
H647   H     0.61964   0.17676   0.91151   0.00000  Uiso   1.00
H648   H     0.46962   0.18178   0.59231   0.00000  Uiso   1.00
H649   H     0.38403   0.18822   0.91243   0.00000  Uiso   1.00
N650   N     0.38265   0.16666   0.74999   0.00000  Uiso   1.00
N651   N     0.61735   0.16669   0.74999   0.00000  Uiso   1.00
O652   O     0.46042   0.22678   0.75001   0.00000  Uiso   1.00
O653   O     0.53961   0.22679   0.75001   0.00000  Uiso   1.00
O654   O     0.44108   0.16665   0.82549   0.00000  Uiso   1.00
O655   O     0.52027   0.16666   0.82549   0.00000  Uiso   1.00
O656   O     0.46039   0.10654   0.75000   0.00000  Uiso   1.00
O657   O     0.53958   0.10655   0.74999   0.00000  Uiso   1.00
O658   O     0.47973   0.16667   0.67451   0.00000  Uiso   1.00
O659   O     0.55892   0.16668   0.67451   0.00000  Uiso   1.00
O660   O     0.64625   0.13957   0.98061   0.00000  Uiso   1.00
C661   C     0.83332   0.24595   0.75011   0.00000  Uiso   1.00
C662   C     0.79437   0.18138   0.90567   0.00000  Uiso   1.00
C663   C     0.87301   0.31220   0.71692   0.00000  Uiso   1.00
C664   C     0.80784   0.17140   0.84955   0.00000  Uiso   1.00
C665   C     0.87303   0.02169   0.71765   0.00000  Uiso   1.00
C666   C     0.83344   0.04305   0.75002   0.00000  Uiso   1.00
C667   C     0.79402   0.02200   0.78273   0.00000  Uiso   1.00
C668   C     0.79416   0.31254   0.78380   0.00000  Uiso   1.00
C669   C     0.83343   0.29069   0.75021   0.00000  Uiso   1.00
C670   C     0.96868   0.19751   0.77395   0.00000  Uiso   1.00
C671   C     0.68470   0.19719   0.77452   0.00000  Uiso   1.00
C672   C     0.81463   0.18260   0.98826   0.00000  Uiso   1.00
C673   C     0.69828   0.13625   0.72512   0.00000  Uiso   1.00
C674   C     0.98198   0.13615   0.72535   0.00000  Uiso   1.00
C675   C     0.83337   0.08749   0.74994   0.00000  Uiso   1.00
C676   C     0.85937   0.16524   0.65014   0.00000  Uiso   1.00
C677   C     0.93366   0.15233   0.50980   0.00000  Uiso   1.00
C678   C     0.87425   0.16354   0.59340   0.00000  Uiso   1.00
C679   C     0.74502   0.18751   0.93263   0.00000  Uiso   1.00
C680   C     0.73069   0.19285   0.98602   0.00000  Uiso   1.00
C681   C     0.76437   0.18850   0.51392   0.00000  Uiso   1.00
C682   C     0.97659   0.09821   0.96532   0.00000  Uiso   1.00
C683   C     0.82994   0.18378   0.93344   0.00000  Uiso   1.00
C684   C     0.85041   0.17490   0.51467   0.00000  Uiso   1.00
C685   C     0.89964   0.16751   0.98573   0.00000  Uiso   1.00
C686   C     0.91462   0.17687   0.93335   0.00000  Uiso   1.00
C687   C     0.88045   0.18763   0.90861   0.00000  Uiso   1.00
C688   C     0.83899   0.17372   0.56859   0.00000  Uiso   1.00
C689   C     0.92151   0.15124   0.56376   0.00000  Uiso   1.00
Cl690  Cl    0.96626   0.13313   0.59198   0.00000  Uiso   1.00
Cl691  Cl    0.74614   0.28786   0.83022   0.00000  Uiso   1.00
Cl692  Cl    0.92218   0.28697   0.67210   0.00000  Uiso   1.00
Cu693  Cu    0.78645   0.16666   0.75000   0.00000  Uiso   1.00
Cu694  Cu    0.88022   0.16667   0.75000   0.00000  Uiso   1.00
H695   H     0.90331   0.03835   0.69205   0.00000  Uiso   1.00
H696   H     0.74972   0.19011   0.55535   0.00000  Uiso   1.00
H697   H     0.69274   0.19885   0.50638   0.00000  Uiso   1.00
H698   H     0.89475   0.19986   0.87039   0.00000  Uiso   1.00
H699   H     0.95238   0.09515   0.93983   0.00000  Uiso   1.00
H700   H     0.96388   0.07752   0.99940   0.00000  Uiso   1.00
H701   H     0.68033   0.08779   0.94283   0.00000  Uiso   1.00
H702   H     0.76390   0.03892   0.80851   0.00000  Uiso   1.00
H703   H     0.94512   0.22261   0.79256   0.00000  Uiso   1.00
H704   H     0.69774   0.22154   0.79444   0.00000  Uiso   1.00
H705   H     0.72240   0.11193   0.70499   0.00000  Uiso   1.00
H706   H     0.96883   0.11170   0.70552   0.00000  Uiso   1.00
H707   H     0.95297   0.17676   0.91151   0.00000  Uiso   1.00
H708   H     0.80295   0.18178   0.59231   0.00000  Uiso   1.00
H709   H     0.71737   0.18822   0.91243   0.00000  Uiso   1.00
N710   N     0.71598   0.16666   0.74999   0.00000  Uiso   1.00
N711   N     0.95069   0.16669   0.74999   0.00000  Uiso   1.00
O712   O     0.79375   0.22678   0.75001   0.00000  Uiso   1.00
O713   O     0.87294   0.22679   0.75001   0.00000  Uiso   1.00
O714   O     0.77441   0.16665   0.82549   0.00000  Uiso   1.00
O715   O     0.85360   0.16666   0.82549   0.00000  Uiso   1.00
O716   O     0.79373   0.10654   0.75000   0.00000  Uiso   1.00
O717   O     0.87292   0.10655   0.74999   0.00000  Uiso   1.00
O718   O     0.81306   0.16667   0.67451   0.00000  Uiso   1.00
O719   O     0.89225   0.16668   0.67451   0.00000  Uiso   1.00
O720   O     0.97958   0.13957   0.98061   0.00000  Uiso   1.00
C721   C     0.16666   0.57929   0.75011   0.00000  Uiso   1.00
C722   C     0.12771   0.51472   0.90567   0.00000  Uiso   1.00
C723   C     0.20634   0.64553   0.71692   0.00000  Uiso   1.00
C724   C     0.14117   0.50474   0.84955   0.00000  Uiso   1.00
C725   C     0.20636   0.35502   0.71765   0.00000  Uiso   1.00
C726   C     0.16677   0.37638   0.75002   0.00000  Uiso   1.00
C727   C     0.12736   0.35534   0.78273   0.00000  Uiso   1.00
C728   C     0.12750   0.64587   0.78380   0.00000  Uiso   1.00
C729   C     0.16677   0.62402   0.75021   0.00000  Uiso   1.00
C730   C     0.30202   0.53084   0.77395   0.00000  Uiso   1.00
C731   C     0.01803   0.53052   0.77452   0.00000  Uiso   1.00
C732   C     0.14796   0.51593   0.98826   0.00000  Uiso   1.00
C733   C     0.03162   0.46958   0.72512   0.00000  Uiso   1.00
C734   C     0.31531   0.46948   0.72535   0.00000  Uiso   1.00
C735   C     0.16670   0.42082   0.74994   0.00000  Uiso   1.00
C736   C     0.19271   0.49857   0.65014   0.00000  Uiso   1.00
C737   C     0.26699   0.48566   0.50980   0.00000  Uiso   1.00
C738   C     0.20758   0.49687   0.59340   0.00000  Uiso   1.00
C739   C     0.07836   0.52084   0.93263   0.00000  Uiso   1.00
C740   C     0.06402   0.52618   0.98602   0.00000  Uiso   1.00
C741   C     0.09770   0.52184   0.51392   0.00000  Uiso   1.00
C742   C     0.30993   0.43154   0.96532   0.00000  Uiso   1.00
C743   C     0.16327   0.51712   0.93344   0.00000  Uiso   1.00
C744   C     0.18374   0.50824   0.51467   0.00000  Uiso   1.00
C745   C     0.23297   0.50085   0.98573   0.00000  Uiso   1.00
C746   C     0.24796   0.51021   0.93335   0.00000  Uiso   1.00
C747   C     0.21378   0.52096   0.90861   0.00000  Uiso   1.00
C748   C     0.17232   0.50705   0.56859   0.00000  Uiso   1.00
C749   C     0.25484   0.48457   0.56376   0.00000  Uiso   1.00
Cl750  Cl    0.29960   0.46646   0.59198   0.00000  Uiso   1.00
Cl751  Cl    0.07947   0.62120   0.83022   0.00000  Uiso   1.00
Cl752  Cl    0.25552   0.62031   0.67210   0.00000  Uiso   1.00
Cu753  Cu    0.11978   0.49999   0.75000   0.00000  Uiso   1.00
Cu754  Cu    0.21355   0.50001   0.75000   0.00000  Uiso   1.00
H755   H     0.23664   0.37169   0.69205   0.00000  Uiso   1.00
H756   H     0.08306   0.52344   0.55535   0.00000  Uiso   1.00
H757   H     0.02608   0.53218   0.50638   0.00000  Uiso   1.00
H758   H     0.22808   0.53319   0.87039   0.00000  Uiso   1.00
H759   H     0.28571   0.42848   0.93983   0.00000  Uiso   1.00
H760   H     0.29721   0.41085   0.99940   0.00000  Uiso   1.00
H761   H     0.01366   0.42112   0.94283   0.00000  Uiso   1.00
H762   H     0.09723   0.37225   0.80851   0.00000  Uiso   1.00
H763   H     0.27846   0.55594   0.79256   0.00000  Uiso   1.00
H764   H     0.03107   0.55487   0.79444   0.00000  Uiso   1.00
H765   H     0.05573   0.44527   0.70499   0.00000  Uiso   1.00
H766   H     0.30217   0.44503   0.70552   0.00000  Uiso   1.00
H767   H     0.28630   0.51010   0.91151   0.00000  Uiso   1.00
H768   H     0.13628   0.51511   0.59231   0.00000  Uiso   1.00
H769   H     0.05070   0.52155   0.91243   0.00000  Uiso   1.00
N770   N     0.04931   0.49999   0.74999   0.00000  Uiso   1.00
N771   N     0.28402   0.50002   0.74999   0.00000  Uiso   1.00
O772   O     0.12708   0.56011   0.75001   0.00000  Uiso   1.00
O773   O     0.20627   0.56012   0.75001   0.00000  Uiso   1.00
O774   O     0.10775   0.49998   0.82549   0.00000  Uiso   1.00
O775   O     0.18694   0.49999   0.82549   0.00000  Uiso   1.00
O776   O     0.12706   0.43988   0.75000   0.00000  Uiso   1.00
O777   O     0.20625   0.43989   0.74999   0.00000  Uiso   1.00
O778   O     0.14640   0.50001   0.67451   0.00000  Uiso   1.00
O779   O     0.22559   0.50002   0.67451   0.00000  Uiso   1.00
O780   O     0.31291   0.47290   0.98061   0.00000  Uiso   1.00
C781   C     0.49999   0.57929   0.75011   0.00000  Uiso   1.00
C782   C     0.46104   0.51472   0.90567   0.00000  Uiso   1.00
C783   C     0.53968   0.64553   0.71692   0.00000  Uiso   1.00
C784   C     0.47450   0.50474   0.84955   0.00000  Uiso   1.00
C785   C     0.53970   0.35502   0.71765   0.00000  Uiso   1.00
C786   C     0.50010   0.37638   0.75002   0.00000  Uiso   1.00
C787   C     0.46069   0.35534   0.78273   0.00000  Uiso   1.00
C788   C     0.46083   0.64587   0.78380   0.00000  Uiso   1.00
C789   C     0.50010   0.62402   0.75021   0.00000  Uiso   1.00
C790   C     0.63535   0.53084   0.77395   0.00000  Uiso   1.00
C791   C     0.35137   0.53052   0.77452   0.00000  Uiso   1.00
C792   C     0.48129   0.51593   0.98826   0.00000  Uiso   1.00
C793   C     0.36495   0.46958   0.72512   0.00000  Uiso   1.00
C794   C     0.64865   0.46948   0.72535   0.00000  Uiso   1.00
C795   C     0.50004   0.42082   0.74994   0.00000  Uiso   1.00
C796   C     0.52604   0.49857   0.65014   0.00000  Uiso   1.00
C797   C     0.60033   0.48566   0.50980   0.00000  Uiso   1.00
C798   C     0.54091   0.49687   0.59340   0.00000  Uiso   1.00
C799   C     0.41169   0.52084   0.93263   0.00000  Uiso   1.00
C800   C     0.39735   0.52618   0.98602   0.00000  Uiso   1.00
C801   C     0.43103   0.52184   0.51392   0.00000  Uiso   1.00
C802   C     0.64326   0.43154   0.96532   0.00000  Uiso   1.00
C803   C     0.49660   0.51712   0.93344   0.00000  Uiso   1.00
C804   C     0.51708   0.50824   0.51467   0.00000  Uiso   1.00
C805   C     0.56631   0.50085   0.98573   0.00000  Uiso   1.00
C806   C     0.58129   0.51021   0.93335   0.00000  Uiso   1.00
C807   C     0.54711   0.52096   0.90861   0.00000  Uiso   1.00
C808   C     0.50566   0.50705   0.56859   0.00000  Uiso   1.00
C809   C     0.58818   0.48457   0.56376   0.00000  Uiso   1.00
Cl810  Cl    0.63293   0.46646   0.59198   0.00000  Uiso   1.00
Cl811  Cl    0.41281   0.62120   0.83022   0.00000  Uiso   1.00
Cl812  Cl    0.58885   0.62031   0.67210   0.00000  Uiso   1.00
Cu813  Cu    0.45311   0.49999   0.75000   0.00000  Uiso   1.00
Cu814  Cu    0.54689   0.50001   0.75000   0.00000  Uiso   1.00
H815   H     0.56997   0.37169   0.69205   0.00000  Uiso   1.00
H816   H     0.41639   0.52344   0.55535   0.00000  Uiso   1.00
H817   H     0.35941   0.53218   0.50638   0.00000  Uiso   1.00
H818   H     0.56141   0.53319   0.87039   0.00000  Uiso   1.00
H819   H     0.61905   0.42848   0.93983   0.00000  Uiso   1.00
H820   H     0.63054   0.41085   0.99940   0.00000  Uiso   1.00
H821   H     0.34700   0.42112   0.94283   0.00000  Uiso   1.00
H822   H     0.43056   0.37225   0.80851   0.00000  Uiso   1.00
H823   H     0.61179   0.55594   0.79256   0.00000  Uiso   1.00
H824   H     0.36441   0.55487   0.79444   0.00000  Uiso   1.00
H825   H     0.38907   0.44527   0.70499   0.00000  Uiso   1.00
H826   H     0.63550   0.44503   0.70552   0.00000  Uiso   1.00
H827   H     0.61964   0.51010   0.91151   0.00000  Uiso   1.00
H828   H     0.46962   0.51511   0.59231   0.00000  Uiso   1.00
H829   H     0.38403   0.52155   0.91243   0.00000  Uiso   1.00
N830   N     0.38265   0.49999   0.74999   0.00000  Uiso   1.00
N831   N     0.61735   0.50002   0.74999   0.00000  Uiso   1.00
O832   O     0.46042   0.56011   0.75001   0.00000  Uiso   1.00
O833   O     0.53961   0.56012   0.75001   0.00000  Uiso   1.00
O834   O     0.44108   0.49998   0.82549   0.00000  Uiso   1.00
O835   O     0.52027   0.49999   0.82549   0.00000  Uiso   1.00
O836   O     0.46039   0.43988   0.75000   0.00000  Uiso   1.00
O837   O     0.53958   0.43989   0.74999   0.00000  Uiso   1.00
O838   O     0.47973   0.50001   0.67451   0.00000  Uiso   1.00
O839   O     0.55892   0.50002   0.67451   0.00000  Uiso   1.00
O840   O     0.64625   0.47290   0.98061   0.00000  Uiso   1.00
C841   C     0.83332   0.57929   0.75011   0.00000  Uiso   1.00
C842   C     0.79437   0.51472   0.90567   0.00000  Uiso   1.00
C843   C     0.87301   0.64553   0.71692   0.00000  Uiso   1.00
C844   C     0.80784   0.50474   0.84955   0.00000  Uiso   1.00
C845   C     0.87303   0.35502   0.71765   0.00000  Uiso   1.00
C846   C     0.83344   0.37638   0.75002   0.00000  Uiso   1.00
C847   C     0.79402   0.35534   0.78273   0.00000  Uiso   1.00
C848   C     0.79416   0.64587   0.78380   0.00000  Uiso   1.00
C849   C     0.83343   0.62402   0.75021   0.00000  Uiso   1.00
C850   C     0.96868   0.53084   0.77395   0.00000  Uiso   1.00
C851   C     0.68470   0.53052   0.77452   0.00000  Uiso   1.00
C852   C     0.81463   0.51593   0.98826   0.00000  Uiso   1.00
C853   C     0.69828   0.46958   0.72512   0.00000  Uiso   1.00
C854   C     0.98198   0.46948   0.72535   0.00000  Uiso   1.00
C855   C     0.83337   0.42082   0.74994   0.00000  Uiso   1.00
C856   C     0.85937   0.49857   0.65014   0.00000  Uiso   1.00
C857   C     0.93366   0.48566   0.50980   0.00000  Uiso   1.00
C858   C     0.87425   0.49687   0.59340   0.00000  Uiso   1.00
C859   C     0.74502   0.52084   0.93263   0.00000  Uiso   1.00
C860   C     0.73069   0.52618   0.98602   0.00000  Uiso   1.00
C861   C     0.76437   0.52184   0.51392   0.00000  Uiso   1.00
C862   C     0.97659   0.43154   0.96532   0.00000  Uiso   1.00
C863   C     0.82994   0.51712   0.93344   0.00000  Uiso   1.00
C864   C     0.85041   0.50824   0.51467   0.00000  Uiso   1.00
C865   C     0.89964   0.50085   0.98573   0.00000  Uiso   1.00
C866   C     0.91462   0.51021   0.93335   0.00000  Uiso   1.00
C867   C     0.88045   0.52096   0.90861   0.00000  Uiso   1.00
C868   C     0.83899   0.50705   0.56859   0.00000  Uiso   1.00
C869   C     0.92151   0.48457   0.56376   0.00000  Uiso   1.00
Cl870  Cl    0.96626   0.46646   0.59198   0.00000  Uiso   1.00
Cl871  Cl    0.74614   0.62120   0.83022   0.00000  Uiso   1.00
Cl872  Cl    0.92218   0.62031   0.67210   0.00000  Uiso   1.00
Cu873  Cu    0.78645   0.49999   0.75000   0.00000  Uiso   1.00
Cu874  Cu    0.88022   0.50001   0.75000   0.00000  Uiso   1.00
H875   H     0.90331   0.37169   0.69205   0.00000  Uiso   1.00
H876   H     0.74972   0.52344   0.55535   0.00000  Uiso   1.00
H877   H     0.69274   0.53218   0.50638   0.00000  Uiso   1.00
H878   H     0.89475   0.53319   0.87039   0.00000  Uiso   1.00
H879   H     0.95238   0.42848   0.93983   0.00000  Uiso   1.00
H880   H     0.96388   0.41085   0.99940   0.00000  Uiso   1.00
H881   H     0.68033   0.42112   0.94283   0.00000  Uiso   1.00
H882   H     0.76390   0.37225   0.80851   0.00000  Uiso   1.00
H883   H     0.94512   0.55594   0.79256   0.00000  Uiso   1.00
H884   H     0.69774   0.55487   0.79444   0.00000  Uiso   1.00
H885   H     0.72240   0.44527   0.70499   0.00000  Uiso   1.00
H886   H     0.96883   0.44503   0.70552   0.00000  Uiso   1.00
H887   H     0.95297   0.51010   0.91151   0.00000  Uiso   1.00
H888   H     0.80295   0.51511   0.59231   0.00000  Uiso   1.00
H889   H     0.71737   0.52155   0.91243   0.00000  Uiso   1.00
N890   N     0.71598   0.49999   0.74999   0.00000  Uiso   1.00
N891   N     0.95069   0.50002   0.74999   0.00000  Uiso   1.00
O892   O     0.79375   0.56011   0.75001   0.00000  Uiso   1.00
O893   O     0.87294   0.56012   0.75001   0.00000  Uiso   1.00
O894   O     0.77441   0.49998   0.82549   0.00000  Uiso   1.00
O895   O     0.85360   0.49999   0.82549   0.00000  Uiso   1.00
O896   O     0.79373   0.43988   0.75000   0.00000  Uiso   1.00
O897   O     0.87292   0.43989   0.74999   0.00000  Uiso   1.00
O898   O     0.81306   0.50001   0.67451   0.00000  Uiso   1.00
O899   O     0.89225   0.50002   0.67451   0.00000  Uiso   1.00
O900   O     0.97958   0.47290   0.98061   0.00000  Uiso   1.00
C901   C     0.16666   0.91262   0.75011   0.00000  Uiso   1.00
C902   C     0.12771   0.84805   0.90567   0.00000  Uiso   1.00
C903   C     0.20634   0.97887   0.71692   0.00000  Uiso   1.00
C904   C     0.14117   0.83807   0.84955   0.00000  Uiso   1.00
C905   C     0.20636   0.68836   0.71765   0.00000  Uiso   1.00
C906   C     0.16677   0.70972   0.75002   0.00000  Uiso   1.00
C907   C     0.12736   0.68867   0.78273   0.00000  Uiso   1.00
C908   C     0.12750   0.97921   0.78380   0.00000  Uiso   1.00
C909   C     0.16677   0.95736   0.75021   0.00000  Uiso   1.00
C910   C     0.30202   0.86417   0.77395   0.00000  Uiso   1.00
C911   C     0.01803   0.86386   0.77452   0.00000  Uiso   1.00
C912   C     0.14796   0.84926   0.98826   0.00000  Uiso   1.00
C913   C     0.03162   0.80292   0.72512   0.00000  Uiso   1.00
C914   C     0.31531   0.80282   0.72535   0.00000  Uiso   1.00
C915   C     0.16670   0.75415   0.74994   0.00000  Uiso   1.00
C916   C     0.19271   0.83190   0.65014   0.00000  Uiso   1.00
C917   C     0.26699   0.81899   0.50980   0.00000  Uiso   1.00
C918   C     0.20758   0.83020   0.59340   0.00000  Uiso   1.00
C919   C     0.07836   0.85417   0.93263   0.00000  Uiso   1.00
C920   C     0.06402   0.85951   0.98602   0.00000  Uiso   1.00
C921   C     0.09770   0.85517   0.51392   0.00000  Uiso   1.00
C922   C     0.30993   0.76487   0.96532   0.00000  Uiso   1.00
C923   C     0.16327   0.85045   0.93344   0.00000  Uiso   1.00
C924   C     0.18374   0.84157   0.51467   0.00000  Uiso   1.00
C925   C     0.23297   0.83418   0.98573   0.00000  Uiso   1.00
C926   C     0.24796   0.84354   0.93335   0.00000  Uiso   1.00
C927   C     0.21378   0.85430   0.90861   0.00000  Uiso   1.00
C928   C     0.17232   0.84039   0.56859   0.00000  Uiso   1.00
C929   C     0.25484   0.81790   0.56376   0.00000  Uiso   1.00
Cl930  Cl    0.29960   0.79979   0.59198   0.00000  Uiso   1.00
Cl931  Cl    0.07947   0.95453   0.83022   0.00000  Uiso   1.00
Cl932  Cl    0.25552   0.95364   0.67210   0.00000  Uiso   1.00
Cu933  Cu    0.11978   0.83333   0.75000   0.00000  Uiso   1.00
Cu934  Cu    0.21355   0.83334   0.75000   0.00000  Uiso   1.00
H935   H     0.23664   0.70502   0.69205   0.00000  Uiso   1.00
H936   H     0.08306   0.85677   0.55535   0.00000  Uiso   1.00
H937   H     0.02608   0.86551   0.50638   0.00000  Uiso   1.00
H938   H     0.22808   0.86652   0.87039   0.00000  Uiso   1.00
H939   H     0.28571   0.76182   0.93983   0.00000  Uiso   1.00
H940   H     0.29721   0.74419   0.99940   0.00000  Uiso   1.00
H941   H     0.01366   0.75446   0.94283   0.00000  Uiso   1.00
H942   H     0.09723   0.70558   0.80851   0.00000  Uiso   1.00
H943   H     0.27846   0.88928   0.79256   0.00000  Uiso   1.00
H944   H     0.03107   0.88821   0.79444   0.00000  Uiso   1.00
H945   H     0.05573   0.77860   0.70499   0.00000  Uiso   1.00
H946   H     0.30217   0.77837   0.70552   0.00000  Uiso   1.00
H947   H     0.28630   0.84343   0.91151   0.00000  Uiso   1.00
H948   H     0.13628   0.84844   0.59231   0.00000  Uiso   1.00
H949   H     0.05070   0.85488   0.91243   0.00000  Uiso   1.00
N950   N     0.04931   0.83332   0.74999   0.00000  Uiso   1.00
N951   N     0.28402   0.83335   0.74999   0.00000  Uiso   1.00
O952   O     0.12708   0.89345   0.75001   0.00000  Uiso   1.00
O953   O     0.20627   0.89346   0.75001   0.00000  Uiso   1.00
O954   O     0.10775   0.83332   0.82549   0.00000  Uiso   1.00
O955   O     0.18694   0.83333   0.82549   0.00000  Uiso   1.00
O956   O     0.12706   0.77321   0.75000   0.00000  Uiso   1.00
O957   O     0.20625   0.77322   0.74999   0.00000  Uiso   1.00
O958   O     0.14640   0.83334   0.67451   0.00000  Uiso   1.00
O959   O     0.22559   0.83335   0.67451   0.00000  Uiso   1.00
O960   O     0.31291   0.80623   0.98061   0.00000  Uiso   1.00
C961   C     0.49999   0.91262   0.75011   0.00000  Uiso   1.00
C962   C     0.46104   0.84805   0.90567   0.00000  Uiso   1.00
C963   C     0.53968   0.97887   0.71692   0.00000  Uiso   1.00
C964   C     0.47450   0.83807   0.84955   0.00000  Uiso   1.00
C965   C     0.53970   0.68836   0.71765   0.00000  Uiso   1.00
C966   C     0.50010   0.70972   0.75002   0.00000  Uiso   1.00
C967   C     0.46069   0.68867   0.78273   0.00000  Uiso   1.00
C968   C     0.46083   0.97921   0.78380   0.00000  Uiso   1.00
C969   C     0.50010   0.95736   0.75021   0.00000  Uiso   1.00
C970   C     0.63535   0.86417   0.77395   0.00000  Uiso   1.00
C971   C     0.35137   0.86386   0.77452   0.00000  Uiso   1.00
C972   C     0.48129   0.84926   0.98826   0.00000  Uiso   1.00
C973   C     0.36495   0.80292   0.72512   0.00000  Uiso   1.00
C974   C     0.64865   0.80282   0.72535   0.00000  Uiso   1.00
C975   C     0.50004   0.75415   0.74994   0.00000  Uiso   1.00
C976   C     0.52604   0.83190   0.65014   0.00000  Uiso   1.00
C977   C     0.60033   0.81899   0.50980   0.00000  Uiso   1.00
C978   C     0.54091   0.83020   0.59340   0.00000  Uiso   1.00
C979   C     0.41169   0.85417   0.93263   0.00000  Uiso   1.00
C980   C     0.39735   0.85951   0.98602   0.00000  Uiso   1.00
C981   C     0.43103   0.85517   0.51392   0.00000  Uiso   1.00
C982   C     0.64326   0.76487   0.96532   0.00000  Uiso   1.00
C983   C     0.49660   0.85045   0.93344   0.00000  Uiso   1.00
C984   C     0.51708   0.84157   0.51467   0.00000  Uiso   1.00
C985   C     0.56631   0.83418   0.98573   0.00000  Uiso   1.00
C986   C     0.58129   0.84354   0.93335   0.00000  Uiso   1.00
C987   C     0.54711   0.85430   0.90861   0.00000  Uiso   1.00
C988   C     0.50566   0.84039   0.56859   0.00000  Uiso   1.00
C989   C     0.58818   0.81790   0.56376   0.00000  Uiso   1.00
Cl990  Cl    0.63293   0.79979   0.59198   0.00000  Uiso   1.00
Cl991  Cl    0.41281   0.95453   0.83022   0.00000  Uiso   1.00
Cl992  Cl    0.58885   0.95364   0.67210   0.00000  Uiso   1.00
Cu993  Cu    0.45311   0.83333   0.75000   0.00000  Uiso   1.00
Cu994  Cu    0.54689   0.83334   0.75000   0.00000  Uiso   1.00
H995   H     0.56997   0.70502   0.69205   0.00000  Uiso   1.00
H996   H     0.41639   0.85677   0.55535   0.00000  Uiso   1.00
H997   H     0.35941   0.86551   0.50638   0.00000  Uiso   1.00
H998   H     0.56141   0.86652   0.87039   0.00000  Uiso   1.00
H999   H     0.61905   0.76182   0.93983   0.00000  Uiso   1.00
H1000  H     0.63054   0.74419   0.99940   0.00000  Uiso   1.00
H1001  H     0.34700   0.75446   0.94283   0.00000  Uiso   1.00
H1002  H     0.43056   0.70558   0.80851   0.00000  Uiso   1.00
H1003  H     0.61179   0.88928   0.79256   0.00000  Uiso   1.00
H1004  H     0.36441   0.88821   0.79444   0.00000  Uiso   1.00
H1005  H     0.38907   0.77860   0.70499   0.00000  Uiso   1.00
H1006  H     0.63550   0.77837   0.70552   0.00000  Uiso   1.00
H1007  H     0.61964   0.84343   0.91151   0.00000  Uiso   1.00
H1008  H     0.46962   0.84844   0.59231   0.00000  Uiso   1.00
H1009  H     0.38403   0.85488   0.91243   0.00000  Uiso   1.00
N1010  N     0.38265   0.83332   0.74999   0.00000  Uiso   1.00
N1011  N     0.61735   0.83335   0.74999   0.00000  Uiso   1.00
O1012  O     0.46042   0.89345   0.75001   0.00000  Uiso   1.00
O1013  O     0.53961   0.89346   0.75001   0.00000  Uiso   1.00
O1014  O     0.44108   0.83332   0.82549   0.00000  Uiso   1.00
O1015  O     0.52027   0.83333   0.82549   0.00000  Uiso   1.00
O1016  O     0.46039   0.77321   0.75000   0.00000  Uiso   1.00
O1017  O     0.53958   0.77322   0.74999   0.00000  Uiso   1.00
O1018  O     0.47973   0.83334   0.67451   0.00000  Uiso   1.00
O1019  O     0.55892   0.83335   0.67451   0.00000  Uiso   1.00
O1020  O     0.64625   0.80623   0.98061   0.00000  Uiso   1.00
C1021  C     0.83332   0.91262   0.75011   0.00000  Uiso   1.00
C1022  C     0.79437   0.84805   0.90567   0.00000  Uiso   1.00
C1023  C     0.87301   0.97887   0.71692   0.00000  Uiso   1.00
C1024  C     0.80784   0.83807   0.84955   0.00000  Uiso   1.00
C1025  C     0.87303   0.68836   0.71765   0.00000  Uiso   1.00
C1026  C     0.83344   0.70972   0.75002   0.00000  Uiso   1.00
C1027  C     0.79402   0.68867   0.78273   0.00000  Uiso   1.00
C1028  C     0.79416   0.97921   0.78380   0.00000  Uiso   1.00
C1029  C     0.83343   0.95736   0.75021   0.00000  Uiso   1.00
C1030  C     0.96868   0.86417   0.77395   0.00000  Uiso   1.00
C1031  C     0.68470   0.86386   0.77452   0.00000  Uiso   1.00
C1032  C     0.81463   0.84926   0.98826   0.00000  Uiso   1.00
C1033  C     0.69828   0.80292   0.72512   0.00000  Uiso   1.00
C1034  C     0.98198   0.80282   0.72535   0.00000  Uiso   1.00
C1035  C     0.83337   0.75415   0.74994   0.00000  Uiso   1.00
C1036  C     0.85937   0.83190   0.65014   0.00000  Uiso   1.00
C1037  C     0.93366   0.81899   0.50980   0.00000  Uiso   1.00
C1038  C     0.87425   0.83020   0.59340   0.00000  Uiso   1.00
C1039  C     0.74502   0.85417   0.93263   0.00000  Uiso   1.00
C1040  C     0.73069   0.85951   0.98602   0.00000  Uiso   1.00
C1041  C     0.76437   0.85517   0.51392   0.00000  Uiso   1.00
C1042  C     0.97659   0.76487   0.96532   0.00000  Uiso   1.00
C1043  C     0.82994   0.85045   0.93344   0.00000  Uiso   1.00
C1044  C     0.85041   0.84157   0.51467   0.00000  Uiso   1.00
C1045  C     0.89964   0.83418   0.98573   0.00000  Uiso   1.00
C1046  C     0.91462   0.84354   0.93335   0.00000  Uiso   1.00
C1047  C     0.88045   0.85430   0.90861   0.00000  Uiso   1.00
C1048  C     0.83899   0.84039   0.56859   0.00000  Uiso   1.00
C1049  C     0.92151   0.81790   0.56376   0.00000  Uiso   1.00
Cl1050 Cl    0.96626   0.79979   0.59198   0.00000  Uiso   1.00
Cl1051 Cl    0.74614   0.95453   0.83022   0.00000  Uiso   1.00
Cl1052 Cl    0.92218   0.95364   0.67210   0.00000  Uiso   1.00
Cu1053 Cu    0.78645   0.83333   0.75000   0.00000  Uiso   1.00
Cu1054 Cu    0.88022   0.83334   0.75000   0.00000  Uiso   1.00
H1055  H     0.90331   0.70502   0.69205   0.00000  Uiso   1.00
H1056  H     0.74972   0.85677   0.55535   0.00000  Uiso   1.00
H1057  H     0.69274   0.86551   0.50638   0.00000  Uiso   1.00
H1058  H     0.89475   0.86652   0.87039   0.00000  Uiso   1.00
H1059  H     0.95238   0.76182   0.93983   0.00000  Uiso   1.00
H1060  H     0.96388   0.74419   0.99940   0.00000  Uiso   1.00
H1061  H     0.68033   0.75446   0.94283   0.00000  Uiso   1.00
H1062  H     0.76390   0.70558   0.80851   0.00000  Uiso   1.00
H1063  H     0.94512   0.88928   0.79256   0.00000  Uiso   1.00
H1064  H     0.69774   0.88821   0.79444   0.00000  Uiso   1.00
H1065  H     0.72240   0.77860   0.70499   0.00000  Uiso   1.00
H1066  H     0.96883   0.77837   0.70552   0.00000  Uiso   1.00
H1067  H     0.95297   0.84343   0.91151   0.00000  Uiso   1.00
H1068  H     0.80295   0.84844   0.59231   0.00000  Uiso   1.00
H1069  H     0.71737   0.85488   0.91243   0.00000  Uiso   1.00
N1070  N     0.71598   0.83332   0.74999   0.00000  Uiso   1.00
N1071  N     0.95069   0.83335   0.74999   0.00000  Uiso   1.00
O1072  O     0.79375   0.89345   0.75001   0.00000  Uiso   1.00
O1073  O     0.87294   0.89346   0.75001   0.00000  Uiso   1.00
O1074  O     0.77441   0.83332   0.82549   0.00000  Uiso   1.00
O1075  O     0.85360   0.83333   0.82549   0.00000  Uiso   1.00
O1076  O     0.79373   0.77321   0.75000   0.00000  Uiso   1.00
O1077  O     0.87292   0.77322   0.74999   0.00000  Uiso   1.00
O1078  O     0.81306   0.83334   0.67451   0.00000  Uiso   1.00
O1079  O     0.89225   0.83335   0.67451   0.00000  Uiso   1.00
O1080  O     0.97958   0.80623   0.98061   0.00000  Uiso   1.00
loop_
_geom_bond_atom_site_label_1
_geom_bond_atom_site_label_2
_geom_bond_distance
_geom_bond_site_symmetry_2
_ccdc_geom_bond_type
C1     C9      1.448   .     S
C1     O52     1.292   .     A
C1     O53     1.290   .     A
C2     C4      1.487   .     S
C2     C23     1.429   .     A
C2     C19     1.401   .     A
C3     C9      1.411   .     A
C3     Cl32    1.765   .     S
C3     C185    1.387   .     S
C4     O55     1.290   .     A
C4     O54     1.311   .     A
C5     C6      1.395   .     A
C5     H35     1.084   .     S
C5     C363    1.387   1_545 S
C6     C7      1.394   .     A
C6     C15     1.439   .     S
C7     H42     1.084   .     S
C7     C368    1.386   1_545 S
C8     C9      1.410   .     A
C8     Cl31    1.763   .     S
C8     C187    1.386   .     S
C10    H43     1.080   .     S
C10    N51     1.367   .     A
C10    C71     1.415   .     S
C11    N50     1.366   .     A
C11    H44     1.079   .     S
C11    C130    1.415   1_455 S
C12    C23     1.418   .     A
C12    C561    1.415   .     S
C12    C564    1.428   .     S
C13    H45     1.081   .     S
C13    N50     1.368   .     A
C13    C134    1.417   1_455 S
C14    H46     1.081   .     S
C14    N51     1.367   .     A
C14    C73     1.417   .     S
C15    O56     1.289   .     A
C15    O57     1.289   .     A
C16    O58     1.297   .     A
C16    C18     1.468   .     S
C16    O59     1.295   .     A
C17    C29     1.398   .     A
C17    C565    1.406   1_554 S
C17    O600    1.383   1_554 S
C18    C28     1.402   .     A
C18    C29     1.412   .     A
C19    C20     1.391   .     A
C19    H49     1.083   .     S
C20    C561    1.391   .     S
C20    H577    1.082   .     S
C21    H36     1.077   .     S
C21    C560    1.391   1_554 S
C21    C552    1.415   1_554 S
C22    H40     1.113   .     S
C22    H39     1.113   .     S
C22    O60     1.410   .     S
C22    H101    1.109   .     S
C23    C27     1.411   .     A
C24    C28     1.398   .     A
C24    C552    1.428   1_554 S
C24    C565    1.418   1_554 S
C25    C26     1.389   .     A
C25    C557    1.406   .     S
C25    C564    1.418   .     S
C26    C27     1.379   .     A
C26    H47     1.084   .     S
C27    H38     1.072   .     S
C28    H48     1.075   .     S
C29    Cl30    1.768   .     S
Cu33   O58     1.960   .     S
Cu33   O56     1.957   .     S
Cu33   Cu34    2.680   .     S
Cu33   N50     2.014   .     S
Cu33   O52     1.958   .     S
Cu33   O54     1.968   .     S
Cu34   O57     1.958   .     S
Cu34   O55     1.960   .     S
Cu34   N51     2.014   .     S
Cu34   O59     1.968   .     S
Cu34   O53     1.957   .     S
H37    C560    1.082   1_554 S
H41    C142    1.109   1_455 S
O60    C557    1.383   .     S
C61    C69     1.448   .     S
C61    O112    1.292   .     A
C61    O113    1.290   .     A
C62    C64     1.487   .     S
C62    C83     1.429   .     A
C62    C79     1.401   .     A
C63    C69     1.411   .     A
C63    Cl92    1.765   .     S
C63    C245    1.387   .     S
C64    O115    1.290   .     A
C64    O114    1.311   .     A
C65    C66     1.395   .     A
C65    H95     1.084   .     S
C65    C423    1.387   1_545 S
C66    C67     1.394   .     A
C66    C75     1.439   .     S
C67    H102    1.084   .     S
C67    C428    1.386   1_545 S
C68    C69     1.410   .     A
C68    Cl91    1.763   .     S
C68    C247    1.386   .     S
C70    H103    1.080   .     S
C70    N111    1.367   .     A
C70    C131    1.415   .     S
C71    N110    1.366   .     A
C71    H104    1.079   .     S
C72    C83     1.418   .     A
C72    C621    1.415   .     S
C72    C624    1.428   .     S
C73    H105    1.081   .     S
C73    N110    1.368   .     A
C74    H106    1.081   .     S
C74    N111    1.367   .     A
C74    C133    1.417   .     S
C75    O116    1.289   .     A
C75    O117    1.289   .     A
C76    O118    1.297   .     A
C76    C78     1.468   .     S
C76    O119    1.295   .     A
C77    C89     1.398   .     A
C77    C625    1.406   1_554 S
C77    O660    1.383   1_554 S
C78    C88     1.402   .     A
C78    C89     1.412   .     A
C79    C80     1.391   .     A
C79    H109    1.083   .     S
C80    C621    1.391   .     S
C80    H637    1.082   .     S
C81    H96     1.077   .     S
C81    C620    1.391   1_554 S
C81    C612    1.415   1_554 S
C82    H100    1.113   .     S
C82    H99     1.113   .     S
C82    O120    1.410   .     S
C82    H161    1.109   .     S
C83    C87     1.411   .     A
C84    C88     1.398   .     A
C84    C612    1.428   1_554 S
C84    C625    1.418   1_554 S
C85    C86     1.389   .     A
C85    C617    1.406   .     S
C85    C624    1.418   .     S
C86    C87     1.379   .     A
C86    H107    1.084   .     S
C87    H98     1.072   .     S
C88    H108    1.075   .     S
C89    Cl90    1.768   .     S
Cu93   O118    1.960   .     S
Cu93   O116    1.957   .     S
Cu93   Cu94    2.680   .     S
Cu93   N110    2.014   .     S
Cu93   O112    1.958   .     S
Cu93   O114    1.968   .     S
Cu94   O117    1.958   .     S
Cu94   O115    1.960   .     S
Cu94   N111    2.014   .     S
Cu94   O119    1.968   .     S
Cu94   O113    1.957   .     S
H97    C620    1.082   1_554 S
O120   C617    1.383   .     S
C121   C129    1.448   .     S
C121   O172    1.292   .     A
C121   O173    1.290   .     A
C122   C124    1.487   .     S
C122   C143    1.429   .     A
C122   C139    1.401   .     A
C123   C129    1.411   .     A
C123   Cl152   1.765   .     S
C123   C305    1.387   .     S
C124   O175    1.290   .     A
C124   O174    1.311   .     A
C125   C126    1.395   .     A
C125   H155    1.084   .     S
C125   C483    1.387   1_545 S
C126   C127    1.394   .     A
C126   C135    1.439   .     S
C127   H162    1.084   .     S
C127   C488    1.386   1_545 S
C128   C129    1.410   .     A
C128   Cl151   1.763   .     S
C128   C307    1.386   .     S
C130   H163    1.080   .     S
C130   N171    1.367   .     A
C130   C11     1.415   1_655 S
C131   N170    1.366   .     A
C131   H164    1.079   .     S
C132   C143    1.418   .     A
C132   C681    1.415   .     S
C132   C684    1.428   .     S
C133   H165    1.081   .     S
C133   N170    1.368   .     A
C134   H166    1.081   .     S
C134   N171    1.367   .     A
C134   C13     1.417   1_655 S
C135   O176    1.289   .     A
C135   O177    1.289   .     A
C136   O178    1.297   .     A
C136   C138    1.468   .     S
C136   O179    1.295   .     A
C137   C149    1.398   .     A
C137   C685    1.406   1_554 S
C137   O720    1.383   1_554 S
C138   C148    1.402   .     A
C138   C149    1.412   .     A
C139   C140    1.391   .     A
C139   H169    1.083   .     S
C140   C681    1.391   .     S
C140   H697    1.082   .     S
C141   H156    1.077   .     S
C141   C680    1.391   1_554 S
C141   C672    1.415   1_554 S
C142   H160    1.113   .     S
C142   H159    1.113   .     S
C142   O180    1.410   .     S
C142   H41     1.109   1_655 S
C143   C147    1.411   .     A
C144   C148    1.398   .     A
C144   C672    1.428   1_554 S
C144   C685    1.418   1_554 S
C145   C146    1.389   .     A
C145   C677    1.406   .     S
C145   C684    1.418   .     S
C146   C147    1.379   .     A
C146   H167    1.084   .     S
C147   H158    1.072   .     S
C148   H168    1.075   .     S
C149   Cl150   1.768   .     S
Cu153  O178    1.960   .     S
Cu153  O176    1.957   .     S
Cu153  Cu154   2.680   .     S
Cu153  N170    2.014   .     S
Cu153  O172    1.958   .     S
Cu153  O174    1.968   .     S
Cu154  O177    1.958   .     S
Cu154  O175    1.960   .     S
Cu154  N171    2.014   .     S
Cu154  O179    1.968   .     S
Cu154  O173    1.957   .     S
H157   C680    1.082   1_554 S
O180   C677    1.383   .     S
C181   C189    1.448   .     S
C181   O232    1.292   .     A
C181   O233    1.290   .     A
C182   C184    1.487   .     S
C182   C203    1.429   .     A
C182   C199    1.401   .     A
C183   C189    1.411   .     A
C183   Cl212   1.765   .     S
C183   C365    1.387   .     S
C184   O235    1.290   .     A
C184   O234    1.311   .     A
C185   C186    1.395   .     A
C185   H215    1.084   .     S
C186   C187    1.394   .     A
C186   C195    1.439   .     S
C187   H222    1.084   .     S
C188   C189    1.410   .     A
C188   Cl211   1.763   .     S
C188   C367    1.386   .     S
C190   H223    1.080   .     S
C190   N231    1.367   .     A
C190   C251    1.415   .     S
C191   N230    1.366   .     A
C191   H224    1.079   .     S
C191   C310    1.415   1_455 S
C192   C203    1.418   .     A
C192   C741    1.415   .     S
C192   C744    1.428   .     S
C193   H225    1.081   .     S
C193   N230    1.368   .     A
C193   C314    1.417   1_455 S
C194   H226    1.081   .     S
C194   N231    1.367   .     A
C194   C253    1.417   .     S
C195   O236    1.289   .     A
C195   O237    1.289   .     A
C196   O238    1.297   .     A
C196   C198    1.468   .     S
C196   O239    1.295   .     A
C197   C209    1.398   .     A
C197   C745    1.406   1_554 S
C197   O780    1.383   1_554 S
C198   C208    1.402   .     A
C198   C209    1.412   .     A
C199   C200    1.391   .     A
C199   H229    1.083   .     S
C200   C741    1.391   .     S
C200   H757    1.082   .     S
C201   H216    1.077   .     S
C201   C740    1.391   1_554 S
C201   C732    1.415   1_554 S
C202   H220    1.113   .     S
C202   H219    1.113   .     S
C202   O240    1.410   .     S
C202   H281    1.109   .     S
C203   C207    1.411   .     A
C204   C208    1.398   .     A
C204   C732    1.428   1_554 S
C204   C745    1.418   1_554 S
C205   C206    1.389   .     A
C205   C737    1.406   .     S
C205   C744    1.418   .     S
C206   C207    1.379   .     A
C206   H227    1.084   .     S
C207   H218    1.072   .     S
C208   H228    1.075   .     S
C209   Cl210   1.768   .     S
Cu213  O238    1.960   .     S
Cu213  O236    1.957   .     S
Cu213  Cu214   2.680   .     S
Cu213  N230    2.014   .     S
Cu213  O232    1.958   .     S
Cu213  O234    1.968   .     S
Cu214  O237    1.958   .     S
Cu214  O235    1.960   .     S
Cu214  N231    2.014   .     S
Cu214  O239    1.968   .     S
Cu214  O233    1.957   .     S
H217   C740    1.082   1_554 S
H221   C322    1.109   1_455 S
O240   C737    1.383   .     S
C241   C249    1.448   .     S
C241   O292    1.292   .     A
C241   O293    1.290   .     A
C242   C244    1.487   .     S
C242   C263    1.429   .     A
C242   C259    1.401   .     A
C243   C249    1.411   .     A
C243   Cl272   1.765   .     S
C243   C425    1.387   .     S
C244   O295    1.290   .     A
C244   O294    1.311   .     A
C245   C246    1.395   .     A
C245   H275    1.084   .     S
C246   C247    1.394   .     A
C246   C255    1.439   .     S
C247   H282    1.084   .     S
C248   C249    1.410   .     A
C248   Cl271   1.763   .     S
C248   C427    1.386   .     S
C250   H283    1.080   .     S
C250   N291    1.367   .     A
C250   C311    1.415   .     S
C251   N290    1.366   .     A
C251   H284    1.079   .     S
C252   C263    1.418   .     A
C252   C801    1.415   .     S
C252   C804    1.428   .     S
C253   H285    1.081   .     S
C253   N290    1.368   .     A
C254   H286    1.081   .     S
C254   N291    1.367   .     A
C254   C313    1.417   .     S
C255   O296    1.289   .     A
C255   O297    1.289   .     A
C256   O298    1.297   .     A
C256   C258    1.468   .     S
C256   O299    1.295   .     A
C257   C269    1.398   .     A
C257   C805    1.406   1_554 S
C257   O840    1.383   1_554 S
C258   C268    1.402   .     A
C258   C269    1.412   .     A
C259   C260    1.391   .     A
C259   H289    1.083   .     S
C260   C801    1.391   .     S
C260   H817    1.082   .     S
C261   H276    1.077   .     S
C261   C800    1.391   1_554 S
C261   C792    1.415   1_554 S
C262   H280    1.113   .     S
C262   H279    1.113   .     S
C262   O300    1.410   .     S
C262   H341    1.109   .     S
C263   C267    1.411   .     A
C264   C268    1.398   .     A
C264   C792    1.428   1_554 S
C264   C805    1.418   1_554 S
C265   C266    1.389   .     A
C265   C797    1.406   .     S
C265   C804    1.418   .     S
C266   C267    1.379   .     A
C266   H287    1.084   .     S
C267   H278    1.072   .     S
C268   H288    1.075   .     S
C269   Cl270   1.768   .     S
Cu273  O298    1.960   .     S
Cu273  O296    1.957   .     S
Cu273  Cu274   2.680   .     S
Cu273  N290    2.014   .     S
Cu273  O292    1.958   .     S
Cu273  O294    1.968   .     S
Cu274  O297    1.958   .     S
Cu274  O295    1.960   .     S
Cu274  N291    2.014   .     S
Cu274  O299    1.968   .     S
Cu274  O293    1.957   .     S
H277   C800    1.082   1_554 S
O300   C797    1.383   .     S
C301   C309    1.448   .     S
C301   O352    1.292   .     A
C301   O353    1.290   .     A
C302   C304    1.487   .     S
C302   C323    1.429   .     A
C302   C319    1.401   .     A
C303   C309    1.411   .     A
C303   Cl332   1.765   .     S
C303   C485    1.387   .     S
C304   O355    1.290   .     A
C304   O354    1.311   .     A
C305   C306    1.395   .     A
C305   H335    1.084   .     S
C306   C307    1.394   .     A
C306   C315    1.439   .     S
C307   H342    1.084   .     S
C308   C309    1.410   .     A
C308   Cl331   1.763   .     S
C308   C487    1.386   .     S
C310   H343    1.080   .     S
C310   N351    1.367   .     A
C310   C191    1.415   1_655 S
C311   N350    1.366   .     A
C311   H344    1.079   .     S
C312   C323    1.418   .     A
C312   C861    1.415   .     S
C312   C864    1.428   .     S
C313   H345    1.081   .     S
C313   N350    1.368   .     A
C314   H346    1.081   .     S
C314   N351    1.367   .     A
C314   C193    1.417   1_655 S
C315   O356    1.289   .     A
C315   O357    1.289   .     A
C316   O358    1.297   .     A
C316   C318    1.468   .     S
C316   O359    1.295   .     A
C317   C329    1.398   .     A
C317   C865    1.406   1_554 S
C317   O900    1.383   1_554 S
C318   C328    1.402   .     A
C318   C329    1.412   .     A
C319   C320    1.391   .     A
C319   H349    1.083   .     S
C320   C861    1.391   .     S
C320   H877    1.082   .     S
C321   H336    1.077   .     S
C321   C860    1.391   1_554 S
C321   C852    1.415   1_554 S
C322   H340    1.113   .     S
C322   H339    1.113   .     S
C322   O360    1.410   .     S
C322   H221    1.109   1_655 S
C323   C327    1.411   .     A
C324   C328    1.398   .     A
C324   C852    1.428   1_554 S
C324   C865    1.418   1_554 S
C325   C326    1.389   .     A
C325   C857    1.406   .     S
C325   C864    1.418   .     S
C326   C327    1.379   .     A
C326   H347    1.084   .     S
C327   H338    1.072   .     S
C328   H348    1.075   .     S
C329   Cl330   1.768   .     S
Cu333  O358    1.960   .     S
Cu333  O356    1.957   .     S
Cu333  Cu334   2.680   .     S
Cu333  N350    2.014   .     S
Cu333  O352    1.958   .     S
Cu333  O354    1.968   .     S
Cu334  O357    1.958   .     S
Cu334  O355    1.960   .     S
Cu334  N351    2.014   .     S
Cu334  O359    1.968   .     S
Cu334  O353    1.957   .     S
H337   C860    1.082   1_554 S
O360   C857    1.383   .     S
C361   C369    1.448   .     S
C361   O412    1.292   .     A
C361   O413    1.290   .     A
C362   C364    1.487   .     S
C362   C383    1.429   .     A
C362   C379    1.401   .     A
C363   C369    1.411   .     A
C363   Cl392   1.765   .     S
C363   C5      1.387   1_565 S
C364   O415    1.290   .     A
C364   O414    1.311   .     A
C365   C366    1.395   .     A
C365   H395    1.084   .     S
C366   C367    1.394   .     A
C366   C375    1.439   .     S
C367   H402    1.084   .     S
C368   C369    1.410   .     A
C368   Cl391   1.763   .     S
C368   C7      1.386   1_565 S
C370   H403    1.080   .     S
C370   N411    1.367   .     A
C370   C431    1.415   .     S
C371   N410    1.366   .     A
C371   H404    1.079   .     S
C371   C490    1.415   1_455 S
C372   C383    1.418   .     A
C372   C921    1.415   .     S
C372   C924    1.428   .     S
C373   H405    1.081   .     S
C373   N410    1.368   .     A
C373   C494    1.417   1_455 S
C374   H406    1.081   .     S
C374   N411    1.367   .     A
C374   C433    1.417   .     S
C375   O416    1.289   .     A
C375   O417    1.289   .     A
C376   O418    1.297   .     A
C376   C378    1.468   .     S
C376   O419    1.295   .     A
C377   C389    1.398   .     A
C377   C925    1.406   1_554 S
C377   O960    1.383   1_554 S
C378   C388    1.402   .     A
C378   C389    1.412   .     A
C379   C380    1.391   .     A
C379   H409    1.083   .     S
C380   C921    1.391   .     S
C380   H937    1.082   .     S
C381   H396    1.077   .     S
C381   C920    1.391   1_554 S
C381   C912    1.415   1_554 S
C382   H400    1.113   .     S
C382   H399    1.113   .     S
C382   O420    1.410   .     S
C382   H461    1.109   .     S
C383   C387    1.411   .     A
C384   C388    1.398   .     A
C384   C912    1.428   1_554 S
C384   C925    1.418   1_554 S
C385   C386    1.389   .     A
C385   C917    1.406   .     S
C385   C924    1.418   .     S
C386   C387    1.379   .     A
C386   H407    1.084   .     S
C387   H398    1.072   .     S
C388   H408    1.075   .     S
C389   Cl390   1.768   .     S
Cu393  O418    1.960   .     S
Cu393  O416    1.957   .     S
Cu393  Cu394   2.680   .     S
Cu393  N410    2.014   .     S
Cu393  O412    1.958   .     S
Cu393  O414    1.968   .     S
Cu394  O417    1.958   .     S
Cu394  O415    1.960   .     S
Cu394  N411    2.014   .     S
Cu394  O419    1.968   .     S
Cu394  O413    1.957   .     S
H397   C920    1.082   1_554 S
H401   C502    1.109   1_455 S
O420   C917    1.383   .     S
C421   C429    1.448   .     S
C421   O472    1.292   .     A
C421   O473    1.290   .     A
C422   C424    1.487   .     S
C422   C443    1.429   .     A
C422   C439    1.401   .     A
C423   C429    1.411   .     A
C423   Cl452   1.765   .     S
C423   C65     1.387   1_565 S
C424   O475    1.290   .     A
C424   O474    1.311   .     A
C425   C426    1.395   .     A
C425   H455    1.084   .     S
C426   C427    1.394   .     A
C426   C435    1.439   .     S
C427   H462    1.084   .     S
C428   C429    1.410   .     A
C428   Cl451   1.763   .     S
C428   C67     1.386   1_565 S
C430   H463    1.080   .     S
C430   N471    1.367   .     A
C430   C491    1.415   .     S
C431   N470    1.366   .     A
C431   H464    1.079   .     S
C432   C443    1.418   .     A
C432   C981    1.415   .     S
C432   C984    1.428   .     S
C433   H465    1.081   .     S
C433   N470    1.368   .     A
C434   H466    1.081   .     S
C434   N471    1.367   .     A
C434   C493    1.417   .     S
C435   O476    1.289   .     A
C435   O477    1.289   .     A
C436   O478    1.297   .     A
C436   C438    1.468   .     S
C436   O479    1.295   .     A
C437   C449    1.398   .     A
C437   C985    1.406   1_554 S
C437   O1020   1.383   1_554 S
C438   C448    1.402   .     A
C438   C449    1.412   .     A
C439   C440    1.391   .     A
C439   H469    1.083   .     S
C440   C981    1.391   .     S
C440   H997    1.082   .     S
C441   H456    1.077   .     S
C441   C980    1.391   1_554 S
C441   C972    1.415   1_554 S
C442   H460    1.113   .     S
C442   H459    1.113   .     S
C442   O480    1.410   .     S
C442   H521    1.109   .     S
C443   C447    1.411   .     A
C444   C448    1.398   .     A
C444   C972    1.428   1_554 S
C444   C985    1.418   1_554 S
C445   C446    1.389   .     A
C445   C977    1.406   .     S
C445   C984    1.418   .     S
C446   C447    1.379   .     A
C446   H467    1.084   .     S
C447   H458    1.072   .     S
C448   H468    1.075   .     S
C449   Cl450   1.768   .     S
Cu453  O478    1.960   .     S
Cu453  O476    1.957   .     S
Cu453  Cu454   2.680   .     S
Cu453  N470    2.014   .     S
Cu453  O472    1.958   .     S
Cu453  O474    1.968   .     S
Cu454  O477    1.958   .     S
Cu454  O475    1.960   .     S
Cu454  N471    2.014   .     S
Cu454  O479    1.968   .     S
Cu454  O473    1.957   .     S
H457   C980    1.082   1_554 S
O480   C977    1.383   .     S
C481   C489    1.448   .     S
C481   O532    1.292   .     A
C481   O533    1.290   .     A
C482   C484    1.487   .     S
C482   C503    1.429   .     A
C482   C499    1.401   .     A
C483   C489    1.411   .     A
C483   Cl512   1.765   .     S
C483   C125    1.387   1_565 S
C484   O535    1.290   .     A
C484   O534    1.311   .     A
C485   C486    1.395   .     A
C485   H515    1.084   .     S
C486   C487    1.394   .     A
C486   C495    1.439   .     S
C487   H522    1.084   .     S
C488   C489    1.410   .     A
C488   Cl511   1.763   .     S
C488   C127    1.386   1_565 S
C490   H523    1.080   .     S
C490   N531    1.367   .     A
C490   C371    1.415   1_655 S
C491   N530    1.366   .     A
C491   H524    1.079   .     S
C492   C503    1.418   .     A
C492   C1041   1.415   .     S
C492   C1044   1.428   .     S
C493   H525    1.081   .     S
C493   N530    1.368   .     A
C494   H526    1.081   .     S
C494   N531    1.367   .     A
C494   C373    1.417   1_655 S
C495   O536    1.289   .     A
C495   O537    1.289   .     A
C496   O538    1.297   .     A
C496   C498    1.468   .     S
C496   O539    1.295   .     A
C497   C509    1.398   .     A
C497   C1045   1.406   1_554 S
C497   O1080   1.383   1_554 S
C498   C508    1.402   .     A
C498   C509    1.412   .     A
C499   C500    1.391   .     A
C499   H529    1.083   .     S
C500   C1041   1.391   .     S
C500   H1057   1.082   .     S
C501   H516    1.077   .     S
C501   C1040   1.391   1_554 S
C501   C1032   1.415   1_554 S
C502   H520    1.113   .     S
C502   H519    1.113   .     S
C502   O540    1.410   .     S
C502   H401    1.109   1_655 S
C503   C507    1.411   .     A
C504   C508    1.398   .     A
C504   C1032   1.428   1_554 S
C504   C1045   1.418   1_554 S
C505   C506    1.389   .     A
C505   C1037   1.406   .     S
C505   C1044   1.418   .     S
C506   C507    1.379   .     A
C506   H527    1.084   .     S
C507   H518    1.072   .     S
C508   H528    1.075   .     S
C509   Cl510   1.768   .     S
Cu513  O538    1.960   .     S
Cu513  O536    1.957   .     S
Cu513  Cu514   2.680   .     S
Cu513  N530    2.014   .     S
Cu513  O532    1.958   .     S
Cu513  O534    1.968   .     S
Cu514  O537    1.958   .     S
Cu514  O535    1.960   .     S
Cu514  N531    2.014   .     S
Cu514  O539    1.968   .     S
Cu514  O533    1.957   .     S
H517   C1040   1.082   1_554 S
O540   C1037   1.383   .     S
C541   C549    1.448   .     S
C541   O592    1.292   .     A
C541   O593    1.290   .     A
C542   C544    1.487   .     S
C542   C563    1.429   .     A
C542   C559    1.401   .     A
C543   C549    1.411   .     A
C543   Cl572   1.765   .     S
C543   C725    1.387   .     S
C544   O595    1.290   .     A
C544   O594    1.311   .     A
C545   C546    1.395   .     A
C545   H575    1.084   .     S
C545   C903    1.387   1_545 S
C546   C547    1.394   .     A
C546   C555    1.439   .     S
C547   H582    1.084   .     S
C547   C908    1.386   1_545 S
C548   C549    1.410   .     A
C548   Cl571   1.763   .     S
C548   C727    1.386   .     S
C550   H583    1.080   .     S
C550   N591    1.367   .     A
C550   C611    1.415   .     S
C551   N590    1.366   .     A
C551   H584    1.079   .     S
C551   C670    1.415   1_455 S
C552   C563    1.418   .     A
C552   C21     1.415   1_556 S
C552   C24     1.428   1_556 S
C553   H585    1.081   .     S
C553   N590    1.368   .     A
C553   C674    1.417   1_455 S
C554   H586    1.081   .     S
C554   N591    1.367   .     A
C554   C613    1.417   .     S
C555   O596    1.289   .     A
C555   O597    1.289   .     A
C556   O598    1.297   .     A
C556   C558    1.468   .     S
C556   O599    1.295   .     A
C557   C569    1.398   .     A
C558   C568    1.402   .     A
C558   C569    1.412   .     A
C559   C560    1.391   .     A
C559   H589    1.083   .     S
C560   C21     1.391   1_556 S
C560   H37     1.082   1_556 S
C561   H576    1.077   .     S
C562   H580    1.113   .     S
C562   H579    1.113   .     S
C562   O600    1.410   .     S
C562   H641    1.109   .     S
C563   C567    1.411   .     A
C564   C568    1.398   .     A
C565   C566    1.389   .     A
C565   C17     1.406   1_556 S
C565   C24     1.418   1_556 S
C566   C567    1.379   .     A
C566   H587    1.084   .     S
C567   H578    1.072   .     S
C568   H588    1.075   .     S
C569   Cl570   1.768   .     S
Cu573  O598    1.960   .     S
Cu573  O596    1.957   .     S
Cu573  Cu574   2.680   .     S
Cu573  N590    2.014   .     S
Cu573  O592    1.958   .     S
Cu573  O594    1.968   .     S
Cu574  O597    1.958   .     S
Cu574  O595    1.960   .     S
Cu574  N591    2.014   .     S
Cu574  O599    1.968   .     S
Cu574  O593    1.957   .     S
H581   C682    1.109   1_455 S
O600   C17     1.383   1_556 S
C601   C609    1.448   .     S
C601   O652    1.292   .     A
C601   O653    1.290   .     A
C602   C604    1.487   .     S
C602   C623    1.429   .     A
C602   C619    1.401   .     A
C603   C609    1.411   .     A
C603   Cl632   1.765   .     S
C603   C785    1.387   .     S
C604   O655    1.290   .     A
C604   O654    1.311   .     A
C605   C606    1.395   .     A
C605   H635    1.084   .     S
C605   C963    1.387   1_545 S
C606   C607    1.394   .     A
C606   C615    1.439   .     S
C607   H642    1.084   .     S
C607   C968    1.386   1_545 S
C608   C609    1.410   .     A
C608   Cl631   1.763   .     S
C608   C787    1.386   .     S
C610   H643    1.080   .     S
C610   N651    1.367   .     A
C610   C671    1.415   .     S
C611   N650    1.366   .     A
C611   H644    1.079   .     S
C612   C623    1.418   .     A
C612   C81     1.415   1_556 S
C612   C84     1.428   1_556 S
C613   H645    1.081   .     S
C613   N650    1.368   .     A
C614   H646    1.081   .     S
C614   N651    1.367   .     A
C614   C673    1.417   .     S
C615   O656    1.289   .     A
C615   O657    1.289   .     A
C616   O658    1.297   .     A
C616   C618    1.468   .     S
C616   O659    1.295   .     A
C617   C629    1.398   .     A
C618   C628    1.402   .     A
C618   C629    1.412   .     A
C619   C620    1.391   .     A
C619   H649    1.083   .     S
C620   C81     1.391   1_556 S
C620   H97     1.082   1_556 S
C621   H636    1.077   .     S
C622   H640    1.113   .     S
C622   H639    1.113   .     S
C622   O660    1.410   .     S
C622   H701    1.109   .     S
C623   C627    1.411   .     A
C624   C628    1.398   .     A
C625   C626    1.389   .     A
C625   C77     1.406   1_556 S
C625   C84     1.418   1_556 S
C626   C627    1.379   .     A
C626   H647    1.084   .     S
C627   H638    1.072   .     S
C628   H648    1.075   .     S
C629   Cl630   1.768   .     S
Cu633  O658    1.960   .     S
Cu633  O656    1.957   .     S
Cu633  Cu634   2.680   .     S
Cu633  N650    2.014   .     S
Cu633  O652    1.958   .     S
Cu633  O654    1.968   .     S
Cu634  O657    1.958   .     S
Cu634  O655    1.960   .     S
Cu634  N651    2.014   .     S
Cu634  O659    1.968   .     S
Cu634  O653    1.957   .     S
O660   C77     1.383   1_556 S
C661   C669    1.448   .     S
C661   O712    1.292   .     A
C661   O713    1.290   .     A
C662   C664    1.487   .     S
C662   C683    1.429   .     A
C662   C679    1.401   .     A
C663   C669    1.411   .     A
C663   Cl692   1.765   .     S
C663   C845    1.387   .     S
C664   O715    1.290   .     A
C664   O714    1.311   .     A
C665   C666    1.395   .     A
C665   H695    1.084   .     S
C665   C1023   1.387   1_545 S
C666   C667    1.394   .     A
C666   C675    1.439   .     S
C667   H702    1.084   .     S
C667   C1028   1.386   1_545 S
C668   C669    1.410   .     A
C668   Cl691   1.763   .     S
C668   C847    1.386   .     S
C670   H703    1.080   .     S
C670   N711    1.367   .     A
C670   C551    1.415   1_655 S
C671   N710    1.366   .     A
C671   H704    1.079   .     S
C672   C683    1.418   .     A
C672   C141    1.415   1_556 S
C672   C144    1.428   1_556 S
C673   H705    1.081   .     S
C673   N710    1.368   .     A
C674   H706    1.081   .     S
C674   N711    1.367   .     A
C674   C553    1.417   1_655 S
C675   O716    1.289   .     A
C675   O717    1.289   .     A
C676   O718    1.297   .     A
C676   C678    1.468   .     S
C676   O719    1.295   .     A
C677   C689    1.398   .     A
C678   C688    1.402   .     A
C678   C689    1.412   .     A
C679   C680    1.391   .     A
C679   H709    1.083   .     S
C680   C141    1.391   1_556 S
C680   H157    1.082   1_556 S
C681   H696    1.077   .     S
C682   H700    1.113   .     S
C682   H699    1.113   .     S
C682   O720    1.410   .     S
C682   H581    1.109   1_655 S
C683   C687    1.411   .     A
C684   C688    1.398   .     A
C685   C686    1.389   .     A
C685   C137    1.406   1_556 S
C685   C144    1.418   1_556 S
C686   C687    1.379   .     A
C686   H707    1.084   .     S
C687   H698    1.072   .     S
C688   H708    1.075   .     S
C689   Cl690   1.768   .     S
Cu693  O718    1.960   .     S
Cu693  O716    1.957   .     S
Cu693  Cu694   2.680   .     S
Cu693  N710    2.014   .     S
Cu693  O712    1.958   .     S
Cu693  O714    1.968   .     S
Cu694  O717    1.958   .     S
Cu694  O715    1.960   .     S
Cu694  N711    2.014   .     S
Cu694  O719    1.968   .     S
Cu694  O713    1.957   .     S
O720   C137    1.383   1_556 S
C721   C729    1.448   .     S
C721   O772    1.292   .     A
C721   O773    1.290   .     A
C722   C724    1.487   .     S
C722   C743    1.429   .     A
C722   C739    1.401   .     A
C723   C729    1.411   .     A
C723   Cl752   1.765   .     S
C723   C905    1.387   .     S
C724   O775    1.290   .     A
C724   O774    1.311   .     A
C725   C726    1.395   .     A
C725   H755    1.084   .     S
C726   C727    1.394   .     A
C726   C735    1.439   .     S
C727   H762    1.084   .     S
C728   C729    1.410   .     A
C728   Cl751   1.763   .     S
C728   C907    1.386   .     S
C730   H763    1.080   .     S
C730   N771    1.367   .     A
C730   C791    1.415   .     S
C731   N770    1.366   .     A
C731   H764    1.079   .     S
C731   C850    1.415   1_455 S
C732   C743    1.418   .     A
C732   C201    1.415   1_556 S
C732   C204    1.428   1_556 S
C733   H765    1.081   .     S
C733   N770    1.368   .     A
C733   C854    1.417   1_455 S
C734   H766    1.081   .     S
C734   N771    1.367   .     A
C734   C793    1.417   .     S
C735   O776    1.289   .     A
C735   O777    1.289   .     A
C736   O778    1.297   .     A
C736   C738    1.468   .     S
C736   O779    1.295   .     A
C737   C749    1.398   .     A
C738   C748    1.402   .     A
C738   C749    1.412   .     A
C739   C740    1.391   .     A
C739   H769    1.083   .     S
C740   C201    1.391   1_556 S
C740   H217    1.082   1_556 S
C741   H756    1.077   .     S
C742   H760    1.113   .     S
C742   H759    1.113   .     S
C742   O780    1.410   .     S
C742   H821    1.109   .     S
C743   C747    1.411   .     A
C744   C748    1.398   .     A
C745   C746    1.389   .     A
C745   C197    1.406   1_556 S
C745   C204    1.418   1_556 S
C746   C747    1.379   .     A
C746   H767    1.084   .     S
C747   H758    1.072   .     S
C748   H768    1.075   .     S
C749   Cl750   1.768   .     S
Cu753  O778    1.960   .     S
Cu753  O776    1.957   .     S
Cu753  Cu754   2.680   .     S
Cu753  N770    2.014   .     S
Cu753  O772    1.958   .     S
Cu753  O774    1.968   .     S
Cu754  O777    1.958   .     S
Cu754  O775    1.960   .     S
Cu754  N771    2.014   .     S
Cu754  O779    1.968   .     S
Cu754  O773    1.957   .     S
H761   C862    1.109   1_455 S
O780   C197    1.383   1_556 S
C781   C789    1.448   .     S
C781   O832    1.292   .     A
C781   O833    1.290   .     A
C782   C784    1.487   .     S
C782   C803    1.429   .     A
C782   C799    1.401   .     A
C783   C789    1.411   .     A
C783   Cl812   1.765   .     S
C783   C965    1.387   .     S
C784   O835    1.290   .     A
C784   O834    1.311   .     A
C785   C786    1.395   .     A
C785   H815    1.084   .     S
C786   C787    1.394   .     A
C786   C795    1.439   .     S
C787   H822    1.084   .     S
C788   C789    1.410   .     A
C788   Cl811   1.763   .     S
C788   C967    1.386   .     S
C790   H823    1.080   .     S
C790   N831    1.367   .     A
C790   C851    1.415   .     S
C791   N830    1.366   .     A
C791   H824    1.079   .     S
C792   C803    1.418   .     A
C792   C261    1.415   1_556 S
C792   C264    1.428   1_556 S
C793   H825    1.081   .     S
C793   N830    1.368   .     A
C794   H826    1.081   .     S
C794   N831    1.367   .     A
C794   C853    1.417   .     S
C795   O836    1.289   .     A
C795   O837    1.289   .     A
C796   O838    1.297   .     A
C796   C798    1.468   .     S
C796   O839    1.295   .     A
C797   C809    1.398   .     A
C798   C808    1.402   .     A
C798   C809    1.412   .     A
C799   C800    1.391   .     A
C799   H829    1.083   .     S
C800   C261    1.391   1_556 S
C800   H277    1.082   1_556 S
C801   H816    1.077   .     S
C802   H820    1.113   .     S
C802   H819    1.113   .     S
C802   O840    1.410   .     S
C802   H881    1.109   .     S
C803   C807    1.411   .     A
C804   C808    1.398   .     A
C805   C806    1.389   .     A
C805   C257    1.406   1_556 S
C805   C264    1.418   1_556 S
C806   C807    1.379   .     A
C806   H827    1.084   .     S
C807   H818    1.072   .     S
C808   H828    1.075   .     S
C809   Cl810   1.768   .     S
Cu813  O838    1.960   .     S
Cu813  O836    1.957   .     S
Cu813  Cu814   2.680   .     S
Cu813  N830    2.014   .     S
Cu813  O832    1.958   .     S
Cu813  O834    1.968   .     S
Cu814  O837    1.958   .     S
Cu814  O835    1.960   .     S
Cu814  N831    2.014   .     S
Cu814  O839    1.968   .     S
Cu814  O833    1.957   .     S
O840   C257    1.383   1_556 S
C841   C849    1.448   .     S
C841   O892    1.292   .     A
C841   O893    1.290   .     A
C842   C844    1.487   .     S
C842   C863    1.429   .     A
C842   C859    1.401   .     A
C843   C849    1.411   .     A
C843   Cl872   1.765   .     S
C843   C1025   1.387   .     S
C844   O895    1.290   .     A
C844   O894    1.311   .     A
C845   C846    1.395   .     A
C845   H875    1.084   .     S
C846   C847    1.394   .     A
C846   C855    1.439   .     S
C847   H882    1.084   .     S
C848   C849    1.410   .     A
C848   Cl871   1.763   .     S
C848   C1027   1.386   .     S
C850   H883    1.080   .     S
C850   N891    1.367   .     A
C850   C731    1.415   1_655 S
C851   N890    1.366   .     A
C851   H884    1.079   .     S
C852   C863    1.418   .     A
C852   C321    1.415   1_556 S
C852   C324    1.428   1_556 S
C853   H885    1.081   .     S
C853   N890    1.368   .     A
C854   H886    1.081   .     S
C854   N891    1.367   .     A
C854   C733    1.417   1_655 S
C855   O896    1.289   .     A
C855   O897    1.289   .     A
C856   O898    1.297   .     A
C856   C858    1.468   .     S
C856   O899    1.295   .     A
C857   C869    1.398   .     A
C858   C868    1.402   .     A
C858   C869    1.412   .     A
C859   C860    1.391   .     A
C859   H889    1.083   .     S
C860   C321    1.391   1_556 S
C860   H337    1.082   1_556 S
C861   H876    1.077   .     S
C862   H880    1.113   .     S
C862   H879    1.113   .     S
C862   O900    1.410   .     S
C862   H761    1.109   1_655 S
C863   C867    1.411   .     A
C864   C868    1.398   .     A
C865   C866    1.389   .     A
C865   C317    1.406   1_556 S
C865   C324    1.418   1_556 S
C866   C867    1.379   .     A
C866   H887    1.084   .     S
C867   H878    1.072   .     S
C868   H888    1.075   .     S
C869   Cl870   1.768   .     S
Cu873  O898    1.960   .     S
Cu873  O896    1.957   .     S
Cu873  Cu874   2.680   .     S
Cu873  N890    2.014   .     S
Cu873  O892    1.958   .     S
Cu873  O894    1.968   .     S
Cu874  O897    1.958   .     S
Cu874  O895    1.960   .     S
Cu874  N891    2.014   .     S
Cu874  O899    1.968   .     S
Cu874  O893    1.957   .     S
O900   C317    1.383   1_556 S
C901   C909    1.448   .     S
C901   O952    1.292   .     A
C901   O953    1.290   .     A
C902   C904    1.487   .     S
C902   C923    1.429   .     A
C902   C919    1.401   .     A
C903   C909    1.411   .     A
C903   Cl932   1.765   .     S
C903   C545    1.387   1_565 S
C904   O955    1.290   .     A
C904   O954    1.311   .     A
C905   C906    1.395   .     A
C905   H935    1.084   .     S
C906   C907    1.394   .     A
C906   C915    1.439   .     S
C907   H942    1.084   .     S
C908   C909    1.410   .     A
C908   Cl931   1.763   .     S
C908   C547    1.386   1_565 S
C910   H943    1.080   .     S
C910   N951    1.367   .     A
C910   C971    1.415   .     S
C911   N950    1.366   .     A
C911   H944    1.079   .     S
C911   C1030   1.415   1_455 S
C912   C923    1.418   .     A
C912   C381    1.415   1_556 S
C912   C384    1.428   1_556 S
C913   H945    1.081   .     S
C913   N950    1.368   .     A
C913   C1034   1.417   1_455 S
C914   H946    1.081   .     S
C914   N951    1.367   .     A
C914   C973    1.417   .     S
C915   O956    1.289   .     A
C915   O957    1.289   .     A
C916   O958    1.297   .     A
C916   C918    1.468   .     S
C916   O959    1.295   .     A
C917   C929    1.398   .     A
C918   C928    1.402   .     A
C918   C929    1.412   .     A
C919   C920    1.391   .     A
C919   H949    1.083   .     S
C920   C381    1.391   1_556 S
C920   H397    1.082   1_556 S
C921   H936    1.077   .     S
C922   H940    1.113   .     S
C922   H939    1.113   .     S
C922   O960    1.410   .     S
C922   H1001   1.109   .     S
C923   C927    1.411   .     A
C924   C928    1.398   .     A
C925   C926    1.389   .     A
C925   C377    1.406   1_556 S
C925   C384    1.418   1_556 S
C926   C927    1.379   .     A
C926   H947    1.084   .     S
C927   H938    1.072   .     S
C928   H948    1.075   .     S
C929   Cl930   1.768   .     S
Cu933  O958    1.960   .     S
Cu933  O956    1.957   .     S
Cu933  Cu934   2.680   .     S
Cu933  N950    2.014   .     S
Cu933  O952    1.958   .     S
Cu933  O954    1.968   .     S
Cu934  O957    1.958   .     S
Cu934  O955    1.960   .     S
Cu934  N951    2.014   .     S
Cu934  O959    1.968   .     S
Cu934  O953    1.957   .     S
H941   C1042   1.109   1_455 S
O960   C377    1.383   1_556 S
C961   C969    1.448   .     S
C961   O1012   1.292   .     A
C961   O1013   1.290   .     A
C962   C964    1.487   .     S
C962   C983    1.429   .     A
C962   C979    1.401   .     A
C963   C969    1.411   .     A
C963   Cl992   1.765   .     S
C963   C605    1.387   1_565 S
C964   O1015   1.290   .     A
C964   O1014   1.311   .     A
C965   C966    1.395   .     A
C965   H995    1.084   .     S
C966   C967    1.394   .     A
C966   C975    1.439   .     S
C967   H1002   1.084   .     S
C968   C969    1.410   .     A
C968   Cl991   1.763   .     S
C968   C607    1.386   1_565 S
C970   H1003   1.080   .     S
C970   N1011   1.367   .     A
C970   C1031   1.415   .     S
C971   N1010   1.366   .     A
C971   H1004   1.079   .     S
C972   C983    1.418   .     A
C972   C441    1.415   1_556 S
C972   C444    1.428   1_556 S
C973   H1005   1.081   .     S
C973   N1010   1.368   .     A
C974   H1006   1.081   .     S
C974   N1011   1.367   .     A
C974   C1033   1.417   .     S
C975   O1016   1.289   .     A
C975   O1017   1.289   .     A
C976   O1018   1.297   .     A
C976   C978    1.468   .     S
C976   O1019   1.295   .     A
C977   C989    1.398   .     A
C978   C988    1.402   .     A
C978   C989    1.412   .     A
C979   C980    1.391   .     A
C979   H1009   1.083   .     S
C980   C441    1.391   1_556 S
C980   H457    1.082   1_556 S
C981   H996    1.077   .     S
C982   H1000   1.113   .     S
C982   H999    1.113   .     S
C982   O1020   1.410   .     S
C982   H1061   1.109   .     S
C983   C987    1.411   .     A
C984   C988    1.398   .     A
C985   C986    1.389   .     A
C985   C437    1.406   1_556 S
C985   C444    1.418   1_556 S
C986   C987    1.379   .     A
C986   H1007   1.084   .     S
C987   H998    1.072   .     S
C988   H1008   1.075   .     S
C989   Cl990   1.768   .     S
Cu993  O1018   1.960   .     S
Cu993  O1016   1.957   .     S
Cu993  Cu994   2.680   .     S
Cu993  N1010   2.014   .     S
Cu993  O1012   1.958   .     S
Cu993  O1014   1.968   .     S
Cu994  O1017   1.958   .     S
Cu994  O1015   1.960   .     S
Cu994  N1011   2.014   .     S
Cu994  O1019   1.968   .     S
Cu994  O1013   1.957   .     S
O1020  C437    1.383   1_556 S
C1021  C1029   1.448   .     S
C1021  O1072   1.292   .     A
C1021  O1073   1.290   .     A
C1022  C1024   1.487   .     S
C1022  C1043   1.429   .     A
C1022  C1039   1.401   .     A
C1023  C1029   1.411   .     A
C1023  Cl1052  1.765   .     S
C1023  C665    1.387   1_565 S
C1024  O1075   1.290   .     A
C1024  O1074   1.311   .     A
C1025  C1026   1.395   .     A
C1025  H1055   1.084   .     S
C1026  C1027   1.394   .     A
C1026  C1035   1.439   .     S
C1027  H1062   1.084   .     S
C1028  C1029   1.410   .     A
C1028  Cl1051  1.763   .     S
C1028  C667    1.386   1_565 S
C1030  H1063   1.080   .     S
C1030  N1071   1.367   .     A
C1030  C911    1.415   1_655 S
C1031  N1070   1.366   .     A
C1031  H1064   1.079   .     S
C1032  C1043   1.418   .     A
C1032  C501    1.415   1_556 S
C1032  C504    1.428   1_556 S
C1033  H1065   1.081   .     S
C1033  N1070   1.368   .     A
C1034  H1066   1.081   .     S
C1034  N1071   1.367   .     A
C1034  C913    1.417   1_655 S
C1035  O1076   1.289   .     A
C1035  O1077   1.289   .     A
C1036  O1078   1.297   .     A
C1036  C1038   1.468   .     S
C1036  O1079   1.295   .     A
C1037  C1049   1.398   .     A
C1038  C1048   1.402   .     A
C1038  C1049   1.412   .     A
C1039  C1040   1.391   .     A
C1039  H1069   1.083   .     S
C1040  C501    1.391   1_556 S
C1040  H517    1.082   1_556 S
C1041  H1056   1.077   .     S
C1042  H1060   1.113   .     S
C1042  H1059   1.113   .     S
C1042  O1080   1.410   .     S
C1042  H941    1.109   1_655 S
C1043  C1047   1.411   .     A
C1044  C1048   1.398   .     A
C1045  C1046   1.389   .     A
C1045  C497    1.406   1_556 S
C1045  C504    1.418   1_556 S
C1046  C1047   1.379   .     A
C1046  H1067   1.084   .     S
C1047  H1058   1.072   .     S
C1048  H1068   1.075   .     S
C1049  Cl1050  1.768   .     S
Cu1053 O1078   1.960   .     S
Cu1053 O1076   1.957   .     S
Cu1053 Cu1054  2.680   .     S
Cu1053 N1070   2.014   .     S
Cu1053 O1072   1.958   .     S
Cu1053 O1074   1.968   .     S
Cu1054 O1077   1.958   .     S
Cu1054 O1075   1.960   .     S
Cu1054 N1071   2.014   .     S
Cu1054 O1079   1.968   .     S
Cu1054 O1073   1.957   .     S
O1080  C497    1.383   1_556 S
