data_str_m1_o1_o17_pcu_sym.137
_audit_creation_date              2020-01-03
_audit_creation_method            'Materials Studio'
_symmetry_space_group_name_H-M    'P1'
_symmetry_Int_Tables_number       1
_symmetry_cell_setting            triclinic
loop_
_symmetry_equiv_pos_as_xyz
  x,y,z
_cell_length_a                    36.6675
_cell_length_b                    36.6676
_cell_length_c                    34.2859
_cell_angle_alpha                 89.9996
_cell_angle_beta                  89.9997
_cell_angle_gamma                 90.0031
loop_
_atom_site_label
_atom_site_type_symbol
_atom_site_fract_x
_atom_site_fract_y
_atom_site_fract_z
_atom_site_U_iso_or_equiv
_atom_site_adp_type
_atom_site_occupancy
C1     C     0.00241   0.28329   0.41802   0.00000  Uiso   1.00
C2     C     0.25187   0.46668   0.08199   0.00000  Uiso   1.00
C3     C     0.21652   0.49902   0.54106   0.00000  Uiso   1.00
C4     C     0.00099   0.28348   0.45894   0.00000  Uiso   1.00
C5     C     0.00050   0.21651   0.54107   0.00000  Uiso   1.00
C6     C     0.21650   0.00051   0.45893   0.00000  Uiso   1.00
C7     C     0.28348   0.00098   0.54106   0.00000  Uiso   1.00
C8     C     0.24900   0.46652   0.95894   0.00000  Uiso   1.00
C9     C     0.24951   0.03350   0.04107   0.00000  Uiso   1.00
C10    C     0.03350   0.24953   0.95893   0.00000  Uiso   1.00
C11    C     0.46652   0.24898   0.04106   0.00000  Uiso   1.00
C12    C     0.25100   0.03348   0.95894   0.00000  Uiso   1.00
C13    C     0.46668   0.25185   0.91801   0.00000  Uiso   1.00
C14    C     0.25049   0.46650   0.04107   0.00000  Uiso   1.00
C15    C     0.46650   0.25047   0.95893   0.00000  Uiso   1.00
C16    C     0.03348   0.25102   0.04106   0.00000  Uiso   1.00
C17    C     0.09813   0.34813   0.25000   0.00000  Uiso   1.00
C18    C     0.40186   0.15185   0.75000   0.00000  Uiso   1.00
C19    C     0.15187   0.09813   0.25000   0.00000  Uiso   1.00
C20    C     0.34814   0.40185   0.75000   0.00000  Uiso   1.00
C21    C     0.40187   0.15187   0.25000   0.00000  Uiso   1.00
C22    C     0.09814   0.34814   0.75000   0.00000  Uiso   1.00
C23    C     0.34813   0.40187   0.25000   0.00000  Uiso   1.00
C24    C     0.03329   0.25243   0.08198   0.00000  Uiso   1.00
C25    C     0.15185   0.09815   0.75000   0.00000  Uiso   1.00
C26    C     0.09813   0.15187   0.75000   0.00000  Uiso   1.00
C27    C     0.40185   0.34814   0.25000   0.00000  Uiso   1.00
C28    C     0.15187   0.40187   0.75000   0.00000  Uiso   1.00
C29    C     0.34814   0.09814   0.25000   0.00000  Uiso   1.00
C30    C     0.40187   0.34813   0.75000   0.00000  Uiso   1.00
C31    C     0.09815   0.15185   0.25000   0.00000  Uiso   1.00
C32    C     0.34813   0.09813   0.75000   0.00000  Uiso   1.00
C33    C     0.15185   0.40185   0.25000   0.00000  Uiso   1.00
C34    C    -0.00000   0.25000   0.47945   0.00000  Uiso   1.00
C35    C     0.24758   0.46671   0.91802   0.00000  Uiso   1.00
C36    C     0.00000   0.25000   0.52056   0.00000  Uiso   1.00
C37    C     0.25000  -0.00000   0.47944   0.00000  Uiso   1.00
C38    C     0.25000  -0.00000   0.52055   0.00000  Uiso   1.00
C39    C     0.25000  -0.00000   0.97945   0.00000  Uiso   1.00
C40    C     0.25000  -0.00000   0.02056   0.00000  Uiso   1.00
C41    C     0.00000   0.25000   0.97944   0.00000  Uiso   1.00
C42    C     0.00000   0.25000   0.02055   0.00000  Uiso   1.00
C43    C     0.04068   0.32569   0.39190   0.00000  Uiso   1.00
C44    C     0.04283   0.35541   0.36073   0.00000  Uiso   1.00
C45    C     0.08192   0.36868   0.35510   0.00000  Uiso   1.00
C46    C     0.24813   0.03332   0.08199   0.00000  Uiso   1.00
C47    C     0.03951   0.17380   0.60830   0.00000  Uiso   1.00
C48    C     0.04117   0.14432   0.63975   0.00000  Uiso   1.00
C49    C     0.08007   0.13061   0.64566   0.00000  Uiso   1.00
C50    C     0.17381   0.03953   0.39170   0.00000  Uiso   1.00
C51    C     0.14432   0.04121   0.36026   0.00000  Uiso   1.00
C52    C     0.13063   0.08011   0.35436   0.00000  Uiso   1.00
C53    C     0.32570   0.04067   0.60810   0.00000  Uiso   1.00
C54    C     0.35541   0.04280   0.63927   0.00000  Uiso   1.00
C55    C     0.36868   0.08189   0.64491   0.00000  Uiso   1.00
C56    C     0.45931   0.17431   0.39190   0.00000  Uiso   1.00
C57    C     0.03332   0.24815   0.91801   0.00000  Uiso   1.00
C58    C     0.45716   0.14458   0.36076   0.00000  Uiso   1.00
C59    C     0.41807   0.13133   0.35512   0.00000  Uiso   1.00
C60    C     0.46050   0.32620   0.60830   0.00000  Uiso   1.00
C61    C     0.45883   0.35567   0.63976   0.00000  Uiso   1.00
C62    C     0.41993   0.36938   0.64567   0.00000  Uiso   1.00
C63    C     0.32619   0.46047   0.39170   0.00000  Uiso   1.00
C64    C     0.35568   0.45880   0.36026   0.00000  Uiso   1.00
C65    C     0.36938   0.41990   0.35436   0.00000  Uiso   1.00
C66    C     0.17430   0.45933   0.60810   0.00000  Uiso   1.00
C67    C     0.14458   0.45719   0.63926   0.00000  Uiso   1.00
C68    C     0.46671   0.24756   0.08198   0.00000  Uiso   1.00
C69    C     0.13131   0.41810   0.64490   0.00000  Uiso   1.00
C70    C     0.29071   0.07568   0.89190   0.00000  Uiso   1.00
C71    C     0.29286   0.10540   0.86075   0.00000  Uiso   1.00
C72    C     0.33195   0.11866   0.85512   0.00000  Uiso   1.00
C73    C     0.28948   0.42379   0.10831   0.00000  Uiso   1.00
C74    C     0.29113   0.39433   0.13978   0.00000  Uiso   1.00
C75    C     0.33003   0.38059   0.14569   0.00000  Uiso   1.00
C76    C     0.42377   0.28944   0.89168   0.00000  Uiso   1.00
C77    C     0.39432   0.29108   0.86021   0.00000  Uiso   1.00
C78    C     0.38058   0.32997   0.85429   0.00000  Uiso   1.00
C79    C    -0.00000   0.25000   0.39802   0.00000  Uiso   1.00
C80    C     0.07567   0.29074   0.10809   0.00000  Uiso   1.00
C81    C     0.10539   0.29291   0.13924   0.00000  Uiso   1.00
C82    C     0.11864   0.33201   0.14485   0.00000  Uiso   1.00
C83    C     0.20930   0.42431   0.89190   0.00000  Uiso   1.00
C84    C     0.20715   0.39461   0.86073   0.00000  Uiso   1.00
C85    C     0.16806   0.38134   0.85511   0.00000  Uiso   1.00
C86    C     0.21052   0.07621   0.10831   0.00000  Uiso   1.00
C87    C     0.20887   0.10569   0.13977   0.00000  Uiso   1.00
C88    C     0.16997   0.11940   0.14569   0.00000  Uiso   1.00
C89    C     0.07623   0.21056   0.89168   0.00000  Uiso   1.00
C90    C     0.00000   0.25000   0.60199   0.00000  Uiso   1.00
C91    C     0.10569   0.20892   0.86021   0.00000  Uiso   1.00
C92    C     0.11942   0.17003   0.85429   0.00000  Uiso   1.00
C93    C     0.42433   0.20926   0.10809   0.00000  Uiso   1.00
C94    C     0.39460   0.20709   0.13924   0.00000  Uiso   1.00
C95    C     0.38136   0.16799   0.14486   0.00000  Uiso   1.00
C96    C     0.25000  -0.00000   0.39801   0.00000  Uiso   1.00
C97    C     0.00188   0.21668   0.58199   0.00000  Uiso   1.00
C98    C     0.25000  -0.00000   0.60198   0.00000  Uiso   1.00
C99    C     0.25000   0.00000   0.89802   0.00000  Uiso   1.00
C100   C     0.25000   0.00000   0.10199   0.00000  Uiso   1.00
C101   C    -0.00000   0.25000   0.89801   0.00000  Uiso   1.00
C102   C     0.00000   0.25000   0.10198   0.00000  Uiso   1.00
C103   C     0.49920   0.18356   0.47973   0.00000  Uiso   1.00
C104   C     0.00014   0.31645   0.52028   0.00000  Uiso   1.00
C105   C     0.31645   0.00013   0.47972   0.00000  Uiso   1.00
C106   C     0.18356   0.49922   0.52027   0.00000  Uiso   1.00
C107   C     0.00080   0.31644   0.47973   0.00000  Uiso   1.00
C108   C     0.21668   0.00189   0.41801   0.00000  Uiso   1.00
C109   C     0.49986   0.18355   0.52028   0.00000  Uiso   1.00
C110   C     0.18355   0.49987   0.47972   0.00000  Uiso   1.00
C111   C     0.31644   0.00078   0.52027   0.00000  Uiso   1.00
C112   C     0.24919   0.43356   0.97973   0.00000  Uiso   1.00
C113   C     0.25016   0.06645   0.02028   0.00000  Uiso   1.00
C114   C     0.06645   0.25019   0.97972   0.00000  Uiso   1.00
C115   C     0.43356   0.24916   0.02027   0.00000  Uiso   1.00
C116   C     0.25081   0.06644   0.97973   0.00000  Uiso   1.00
C117   C     0.24984   0.43355   0.02028   0.00000  Uiso   1.00
C118   C     0.43355   0.24981   0.97972   0.00000  Uiso   1.00
C119   C     0.28329   0.00240   0.58198   0.00000  Uiso   1.00
C120   C     0.06644   0.25084   0.02027   0.00000  Uiso   1.00
C121   C     0.25000  -0.00000   0.35576   0.00000  Uiso   1.00
C122   C     0.25000  -0.00000   0.64424   0.00000  Uiso   1.00
C123   C    -0.00000   0.25000   0.35576   0.00000  Uiso   1.00
C124   C     0.00000   0.25000   0.64424   0.00000  Uiso   1.00
C125   C    -0.00000   0.25000   0.85576   0.00000  Uiso   1.00
C126   C     0.00000   0.25000   0.14424   0.00000  Uiso   1.00
C127   C     0.25000  -0.00000   0.85576   0.00000  Uiso   1.00
C128   C     0.25000  -0.00000   0.14424   0.00000  Uiso   1.00
C129   C     0.17993   0.07007   0.25000   0.00000  Uiso   1.00
C130   C     0.49759   0.21671   0.41802   0.00000  Uiso   1.00
C131   C     0.32008   0.42992   0.75000   0.00000  Uiso   1.00
C132   C     0.42993   0.17993   0.25000   0.00000  Uiso   1.00
C133   C     0.07008   0.32008   0.75000   0.00000  Uiso   1.00
C134   C     0.32007   0.42992   0.25000   0.00000  Uiso   1.00
C135   C     0.17992   0.07008   0.75000   0.00000  Uiso   1.00
C136   C     0.07007   0.32007   0.25000   0.00000  Uiso   1.00
C137   C     0.42992   0.17992   0.75000   0.00000  Uiso   1.00
C138   C     0.17993   0.42993   0.75000   0.00000  Uiso   1.00
C139   C     0.32008   0.07008   0.25000   0.00000  Uiso   1.00
C140   C     0.42992   0.32007   0.75000   0.00000  Uiso   1.00
C141   C     0.49812   0.28332   0.58199   0.00000  Uiso   1.00
C142   C     0.07008   0.17992   0.25000   0.00000  Uiso   1.00
C143   C     0.32007   0.07007   0.75000   0.00000  Uiso   1.00
C144   C     0.17992   0.42992   0.25000   0.00000  Uiso   1.00
C145   C     0.07007   0.17993   0.75000   0.00000  Uiso   1.00
C146   C     0.42992   0.32008   0.25000   0.00000  Uiso   1.00
C147   C     0.11891   0.40781   0.23028   0.00000  Uiso   1.00
C148   C     0.38113   0.09211   0.76957   0.00000  Uiso   1.00
C149   C     0.09228   0.11899   0.23009   0.00000  Uiso   1.00
C150   C     0.40780   0.38104   0.76977   0.00000  Uiso   1.00
C151   C     0.38109   0.09219   0.23028   0.00000  Uiso   1.00
C152   C     0.28332   0.49811   0.41801   0.00000  Uiso   1.00
C153   C     0.11887   0.40789   0.76957   0.00000  Uiso   1.00
C154   C     0.40772   0.38100   0.23008   0.00000  Uiso   1.00
C155   C     0.09220   0.11895   0.76977   0.00000  Uiso   1.00
C156   C     0.11900   0.09228   0.76992   0.00000  Uiso   1.00
C157   C     0.38105   0.40780   0.23023   0.00000  Uiso   1.00
C158   C     0.09220   0.38109   0.76973   0.00000  Uiso   1.00
C159   C     0.40789   0.11887   0.23044   0.00000  Uiso   1.00
C160   C     0.38100   0.40772   0.76992   0.00000  Uiso   1.00
C161   C     0.11895   0.09220   0.23024   0.00000  Uiso   1.00
C162   C     0.40780   0.11891   0.76973   0.00000  Uiso   1.00
C163   C     0.21671   0.49760   0.58198   0.00000  Uiso   1.00
C164   C     0.09211   0.38113   0.23043   0.00000  Uiso   1.00
C165   C     0.36891   0.15780   0.73027   0.00000  Uiso   1.00
C166   C     0.13113   0.34211   0.26957   0.00000  Uiso   1.00
C167   C     0.34228   0.36900   0.73008   0.00000  Uiso   1.00
C168   C     0.15780   0.13105   0.26976   0.00000  Uiso   1.00
C169   C     0.13109   0.34220   0.73027   0.00000  Uiso   1.00
C170   C     0.36887   0.15789   0.26957   0.00000  Uiso   1.00
C171   C     0.15772   0.13100   0.73008   0.00000  Uiso   1.00
C172   C     0.34220   0.36895   0.26977   0.00000  Uiso   1.00
C173   C     0.36900   0.34228   0.26992   0.00000  Uiso   1.00
C174   C     0.25242   0.03329   0.91802   0.00000  Uiso   1.00
C175   C     0.13105   0.15780   0.73023   0.00000  Uiso   1.00
C176   C     0.34219   0.13109   0.26972   0.00000  Uiso   1.00
C177   C     0.15789   0.36887   0.73043   0.00000  Uiso   1.00
C178   C     0.13101   0.15772   0.26991   0.00000  Uiso   1.00
C179   C     0.36895   0.34220   0.73023   0.00000  Uiso   1.00
C180   C     0.15781   0.36891   0.26972   0.00000  Uiso   1.00
C181   C     0.34211   0.13113   0.73043   0.00000  Uiso   1.00
C182   C     0.49901   0.21652   0.45894   0.00000  Uiso   1.00
C183   C     0.49950   0.28349   0.54107   0.00000  Uiso   1.00
C184   C     0.28349   0.49949   0.45893   0.00000  Uiso   1.00
H185   H     0.49900   0.15755   0.46478   0.00000  Uiso   1.00
H186   H     0.25032   0.09245   0.03524   0.00000  Uiso   1.00
H187   H     0.15556   0.46759   0.66737   0.00000  Uiso   1.00
H188   H     0.12113   0.47460   0.63056   0.00000  Uiso   1.00
H189   H     0.11854   0.40782   0.61766   0.00000  Uiso   1.00
H190   H     0.11074   0.41725   0.66865   0.00000  Uiso   1.00
H191   H     0.15446   0.40008   0.65291   0.00000  Uiso   1.00
H192   H     0.30783   0.05224   0.88217   0.00000  Uiso   1.00
H193   H     0.30204   0.08647   0.91971   0.00000  Uiso   1.00
H194   H     0.28247   0.09442   0.83263   0.00000  Uiso   1.00
H195   H     0.27545   0.12885   0.86945   0.00000  Uiso   1.00
H196   H     0.34223   0.13143   0.88236   0.00000  Uiso   1.00
H197   H     0.09245   0.25036   0.96476   0.00000  Uiso   1.00
H198   H     0.33281   0.13924   0.83136   0.00000  Uiso   1.00
H199   H     0.34998   0.09551   0.84712   0.00000  Uiso   1.00
H200   H     0.30694   0.44706   0.11785   0.00000  Uiso   1.00
H201   H     0.30069   0.41259   0.08063   0.00000  Uiso   1.00
H202   H     0.28081   0.40570   0.16775   0.00000  Uiso   1.00
H203   H     0.27343   0.37103   0.13127   0.00000  Uiso   1.00
H204   H     0.34021   0.36743   0.11862   0.00000  Uiso   1.00
H205   H     0.33054   0.36024   0.16966   0.00000  Uiso   1.00
H206   H     0.34834   0.40357   0.15350   0.00000  Uiso   1.00
H207   H     0.44704   0.30691   0.88215   0.00000  Uiso   1.00
H208   H     0.40755   0.24894   0.03523   0.00000  Uiso   1.00
H209   H     0.41256   0.30065   0.91936   0.00000  Uiso   1.00
H210   H     0.40570   0.28076   0.83225   0.00000  Uiso   1.00
H211   H     0.37102   0.27338   0.86873   0.00000  Uiso   1.00
H212   H     0.40356   0.34829   0.84646   0.00000  Uiso   1.00
H213   H     0.36742   0.34016   0.88135   0.00000  Uiso   1.00
H214   H     0.36022   0.33048   0.83031   0.00000  Uiso   1.00
H215   H     0.05222   0.30786   0.11783   0.00000  Uiso   1.00
H216   H     0.08645   0.30207   0.08027   0.00000  Uiso   1.00
H217   H     0.09442   0.28252   0.16736   0.00000  Uiso   1.00
H218   H     0.12885   0.27551   0.13053   0.00000  Uiso   1.00
H219   H     0.25102   0.09245   0.96477   0.00000  Uiso   1.00
H220   H     0.13141   0.34228   0.11761   0.00000  Uiso   1.00
H221   H     0.13922   0.33288   0.16860   0.00000  Uiso   1.00
H222   H     0.09549   0.35003   0.15286   0.00000  Uiso   1.00
H223   H     0.19217   0.44776   0.88218   0.00000  Uiso   1.00
H224   H     0.19797   0.41351   0.91971   0.00000  Uiso   1.00
H225   H     0.21752   0.40561   0.83262   0.00000  Uiso   1.00
H226   H     0.22456   0.37116   0.86941   0.00000  Uiso   1.00
H227   H     0.15780   0.36854   0.88235   0.00000  Uiso   1.00
H228   H     0.16719   0.36078   0.83134   0.00000  Uiso   1.00
H229   H     0.15002   0.40448   0.84713   0.00000  Uiso   1.00
H230   H     0.24968   0.40755   0.03524   0.00000  Uiso   1.00
H231   H     0.19307   0.05294   0.11786   0.00000  Uiso   1.00
H232   H     0.19930   0.08740   0.08063   0.00000  Uiso   1.00
H233   H     0.21920   0.09432   0.16773   0.00000  Uiso   1.00
H234   H     0.22655   0.12898   0.13123   0.00000  Uiso   1.00
H235   H     0.15977   0.13254   0.11861   0.00000  Uiso   1.00
H236   H     0.16946   0.13977   0.16965   0.00000  Uiso   1.00
H237   H     0.15167   0.09642   0.15353   0.00000  Uiso   1.00
H238   H     0.05296   0.19309   0.88215   0.00000  Uiso   1.00
H239   H     0.08744   0.19935   0.91936   0.00000  Uiso   1.00
H240   H     0.09431   0.21924   0.83225   0.00000  Uiso   1.00
H241   H     0.40755   0.24964   0.96476   0.00000  Uiso   1.00
H242   H     0.12898   0.22662   0.86873   0.00000  Uiso   1.00
H243   H     0.13258   0.15983   0.88135   0.00000  Uiso   1.00
H244   H     0.13978   0.16952   0.83031   0.00000  Uiso   1.00
H245   H     0.09644   0.15172   0.84646   0.00000  Uiso   1.00
H246   H     0.44778   0.19215   0.11784   0.00000  Uiso   1.00
H247   H     0.41356   0.19792   0.08028   0.00000  Uiso   1.00
H248   H     0.40557   0.21748   0.16736   0.00000  Uiso   1.00
H249   H     0.37115   0.22449   0.13053   0.00000  Uiso   1.00
H250   H     0.36860   0.15771   0.11761   0.00000  Uiso   1.00
H251   H     0.36078   0.16712   0.16861   0.00000  Uiso   1.00
H252   H     0.09245   0.25106   0.03522   0.00000  Uiso   1.00
H253   H     0.40451   0.14998   0.15287   0.00000  Uiso   1.00
H254   H     0.11373   0.43313   0.21499   0.00000  Uiso   1.00
H255   H     0.38635   0.06673   0.78474   0.00000  Uiso   1.00
H256   H     0.06702   0.11387   0.21465   0.00000  Uiso   1.00
H257   H     0.00030   0.34245   0.53524   0.00000  Uiso   1.00
H258   H     0.43311   0.38620   0.78510   0.00000  Uiso   1.00
H259   H     0.38628   0.06687   0.21500   0.00000  Uiso   1.00
H260   H     0.11365   0.43326   0.78474   0.00000  Uiso   1.00
H261   H     0.43297   0.38612   0.21464   0.00000  Uiso   1.00
H262   H     0.06689   0.11380   0.78510   0.00000  Uiso   1.00
H263   H     0.11388   0.06702   0.78536   0.00000  Uiso   1.00
H264   H     0.38620   0.43311   0.21490   0.00000  Uiso   1.00
H265   H     0.06687   0.38627   0.78502   0.00000  Uiso   1.00
H266   H     0.43327   0.11364   0.21527   0.00000  Uiso   1.00
H267   H     0.38612   0.43297   0.78536   0.00000  Uiso   1.00
H268   H     0.34245   0.00027   0.46476   0.00000  Uiso   1.00
H269   H     0.11379   0.06689   0.21491   0.00000  Uiso   1.00
H270   H     0.43313   0.11373   0.78502   0.00000  Uiso   1.00
H271   H     0.06673   0.38636   0.21526   0.00000  Uiso   1.00
H272   H     0.36373   0.18313   0.71498   0.00000  Uiso   1.00
H273   H     0.13636   0.31673   0.28474   0.00000  Uiso   1.00
H274   H     0.31703   0.36388   0.71464   0.00000  Uiso   1.00
H275   H     0.18311   0.13621   0.28509   0.00000  Uiso   1.00
H276   H     0.13627   0.31687   0.71498   0.00000  Uiso   1.00
H277   H     0.36364   0.18327   0.28473   0.00000  Uiso   1.00
H278   H     0.18298   0.13612   0.71464   0.00000  Uiso   1.00
H279   H     0.15755   0.49903   0.53523   0.00000  Uiso   1.00
H280   H     0.31689   0.36379   0.28510   0.00000  Uiso   1.00
H281   H     0.36388   0.31702   0.28536   0.00000  Uiso   1.00
H282   H     0.13620   0.18311   0.71490   0.00000  Uiso   1.00
H283   H     0.31687   0.13627   0.28501   0.00000  Uiso   1.00
H284   H     0.18326   0.36365   0.71525   0.00000  Uiso   1.00
H285   H     0.13613   0.18298   0.28535   0.00000  Uiso   1.00
H286   H     0.36380   0.31689   0.71490   0.00000  Uiso   1.00
H287   H     0.18313   0.36373   0.28501   0.00000  Uiso   1.00
H288   H     0.31673   0.13635   0.71526   0.00000  Uiso   1.00
H289   H     0.05781   0.30225   0.38217   0.00000  Uiso   1.00
H290   H     0.00099   0.34245   0.46477   0.00000  Uiso   1.00
H291   H     0.05201   0.33649   0.41971   0.00000  Uiso   1.00
H292   H     0.03244   0.34441   0.33262   0.00000  Uiso   1.00
H293   H     0.02541   0.37885   0.36943   0.00000  Uiso   1.00
H294   H     0.09219   0.38146   0.38234   0.00000  Uiso   1.00
H295   H     0.08277   0.38924   0.33134   0.00000  Uiso   1.00
H296   H     0.09995   0.34553   0.34711   0.00000  Uiso   1.00
H297   H     0.05696   0.19707   0.61785   0.00000  Uiso   1.00
H298   H     0.05072   0.16262   0.58062   0.00000  Uiso   1.00
H299   H     0.03084   0.15568   0.66772   0.00000  Uiso   1.00
H300   H     0.02349   0.12102   0.63122   0.00000  Uiso   1.00
H301   H     0.49970   0.15755   0.53524   0.00000  Uiso   1.00
H302   H     0.09027   0.11748   0.61858   0.00000  Uiso   1.00
H303   H     0.08060   0.11024   0.66962   0.00000  Uiso   1.00
H304   H     0.09837   0.15360   0.65350   0.00000  Uiso   1.00
H305   H     0.19709   0.05697   0.38214   0.00000  Uiso   1.00
H306   H     0.16264   0.05075   0.41939   0.00000  Uiso   1.00
H307   H     0.15566   0.03087   0.33229   0.00000  Uiso   1.00
H308   H     0.12102   0.02354   0.36881   0.00000  Uiso   1.00
H309   H     0.11752   0.09032   0.38144   0.00000  Uiso   1.00
H310   H     0.11024   0.08064   0.33041   0.00000  Uiso   1.00
H311   H     0.15362   0.09839   0.34650   0.00000  Uiso   1.00
H312   H     0.15755   0.49973   0.46476   0.00000  Uiso   1.00
H313   H     0.30226   0.05780   0.61783   0.00000  Uiso   1.00
H314   H     0.33650   0.05199   0.58029   0.00000  Uiso   1.00
H315   H     0.34442   0.03242   0.66738   0.00000  Uiso   1.00
H316   H     0.37886   0.02539   0.63058   0.00000  Uiso   1.00
H317   H     0.38147   0.09217   0.61767   0.00000  Uiso   1.00
H318   H     0.38925   0.08274   0.66867   0.00000  Uiso   1.00
H319   H     0.34554   0.09993   0.65290   0.00000  Uiso   1.00
H320   H     0.44219   0.19775   0.38215   0.00000  Uiso   1.00
H321   H     0.44797   0.16353   0.41972   0.00000  Uiso   1.00
H322   H     0.46757   0.15555   0.33264   0.00000  Uiso   1.00
H323   H     0.34245   0.00097   0.53523   0.00000  Uiso   1.00
H324   H     0.47456   0.12113   0.36948   0.00000  Uiso   1.00
H325   H     0.40777   0.11858   0.38236   0.00000  Uiso   1.00
H326   H     0.41721   0.11074   0.33137   0.00000  Uiso   1.00
H327   H     0.40005   0.15448   0.34709   0.00000  Uiso   1.00
H328   H     0.44304   0.30292   0.61785   0.00000  Uiso   1.00
H329   H     0.44928   0.33739   0.58062   0.00000  Uiso   1.00
H330   H     0.46916   0.34431   0.66773   0.00000  Uiso   1.00
H331   H     0.47652   0.37897   0.63124   0.00000  Uiso   1.00
H332   H     0.40974   0.38252   0.61859   0.00000  Uiso   1.00
H333   H     0.41941   0.38975   0.66963   0.00000  Uiso   1.00
H334   H     0.24898   0.40755   0.96477   0.00000  Uiso   1.00
H335   H     0.40163   0.34640   0.65350   0.00000  Uiso   1.00
H336   H     0.30292   0.44303   0.38214   0.00000  Uiso   1.00
H337   H     0.33736   0.44925   0.41939   0.00000  Uiso   1.00
H338   H     0.34434   0.46914   0.33229   0.00000  Uiso   1.00
H339   H     0.37898   0.47648   0.36881   0.00000  Uiso   1.00
H340   H     0.38250   0.40969   0.38144   0.00000  Uiso   1.00
H341   H     0.38976   0.41937   0.33041   0.00000  Uiso   1.00
H342   H     0.34639   0.40161   0.34650   0.00000  Uiso   1.00
H343   H     0.19774   0.44220   0.61784   0.00000  Uiso   1.00
H344   H     0.16351   0.44800   0.58029   0.00000  Uiso   1.00
O345   O     0.25000  -0.00000   0.25000   0.00000  Uiso   1.00
O346   O     0.25000   0.46963   0.66245   0.00000  Uiso   1.00
O347   O     0.46963   0.25000   0.33755   0.00000  Uiso   1.00
O348   O     0.03036   0.25000   0.66245   0.00000  Uiso   1.00
O349   O    -0.00000   0.21963   0.83755   0.00000  Uiso   1.00
O350   O     0.00000   0.28036   0.16245   0.00000  Uiso   1.00
O351   O     0.28036  -0.00000   0.83755   0.00000  Uiso   1.00
O352   O     0.21963  -0.00000   0.16245   0.00000  Uiso   1.00
O353   O    -0.00000   0.28036   0.83755   0.00000  Uiso   1.00
O354   O    -0.00000   0.21963   0.16245   0.00000  Uiso   1.00
O355   O     0.21963  -0.00000   0.83755   0.00000  Uiso   1.00
O356   O     0.25000  -0.00000   0.75000   0.00000  Uiso   1.00
O357   O     0.28036  -0.00000   0.16245   0.00000  Uiso   1.00
O358   O     0.20724   0.07307   0.27302   0.00000  Uiso   1.00
O359   O     0.29275   0.42692   0.72698   0.00000  Uiso   1.00
O360   O     0.42692   0.20724   0.27302   0.00000  Uiso   1.00
O361   O     0.07307   0.29275   0.72698   0.00000  Uiso   1.00
O362   O     0.29275   0.42692   0.27302   0.00000  Uiso   1.00
O363   O     0.20724   0.07307   0.72698   0.00000  Uiso   1.00
O364   O     0.07307   0.29275   0.27302   0.00000  Uiso   1.00
O365   O     0.42692   0.20724   0.72698   0.00000  Uiso   1.00
O366   O     0.20724   0.42692   0.72698   0.00000  Uiso   1.00
O367   O     0.00000   0.25000   0.25000   0.00000  Uiso   1.00
O368   O     0.29275   0.07307   0.27302   0.00000  Uiso   1.00
O369   O     0.42692   0.29275   0.72698   0.00000  Uiso   1.00
O370   O     0.07307   0.20724   0.27302   0.00000  Uiso   1.00
O371   O     0.29275   0.07307   0.72698   0.00000  Uiso   1.00
O372   O     0.20724   0.42692   0.27302   0.00000  Uiso   1.00
O373   O     0.07307   0.20724   0.72698   0.00000  Uiso   1.00
O374   O     0.42692   0.29275   0.27302   0.00000  Uiso   1.00
O375   O     0.45724   0.32307   0.77302   0.00000  Uiso   1.00
O376   O     0.04275   0.17692   0.22698   0.00000  Uiso   1.00
O377   O     0.17692   0.45724   0.77302   0.00000  Uiso   1.00
O378   O     0.00000   0.25000   0.75000   0.00000  Uiso   1.00
O379   O     0.32307   0.04275   0.22698   0.00000  Uiso   1.00
O380   O     0.04275   0.17692   0.77302   0.00000  Uiso   1.00
O381   O     0.45724   0.32307   0.22698   0.00000  Uiso   1.00
O382   O     0.32307   0.04275   0.77302   0.00000  Uiso   1.00
O383   O     0.17692   0.45724   0.22698   0.00000  Uiso   1.00
O384   O     0.45724   0.17692   0.22698   0.00000  Uiso   1.00
O385   O     0.04275   0.32307   0.77302   0.00000  Uiso   1.00
O386   O     0.17692   0.04275   0.22698   0.00000  Uiso   1.00
O387   O     0.32307   0.45724   0.77302   0.00000  Uiso   1.00
O388   O     0.04275   0.32307   0.22698   0.00000  Uiso   1.00
O389   O     0.25000   0.46963   0.33755   0.00000  Uiso   1.00
O390   O     0.45724   0.17692   0.77302   0.00000  Uiso   1.00
O391   O     0.32307   0.45724   0.22698   0.00000  Uiso   1.00
O392   O     0.17692   0.04275   0.77302   0.00000  Uiso   1.00
O393   O     0.00378   0.31560   0.39712   0.00000  Uiso   1.00
O394   O     0.00276   0.18435   0.60288   0.00000  Uiso   1.00
O395   O     0.18435   0.00278   0.39712   0.00000  Uiso   1.00
O396   O     0.31560   0.00377   0.60287   0.00000  Uiso   1.00
O397   O     0.49621   0.18440   0.39713   0.00000  Uiso   1.00
O398   O     0.49724   0.31565   0.60288   0.00000  Uiso   1.00
O399   O     0.31565   0.49722   0.39712   0.00000  Uiso   1.00
O400   O     0.25000   0.03036   0.66245   0.00000  Uiso   1.00
O401   O     0.18440   0.49623   0.60287   0.00000  Uiso   1.00
O402   O     0.25380   0.06560   0.89713   0.00000  Uiso   1.00
O403   O     0.25273   0.43435   0.10288   0.00000  Uiso   1.00
O404   O     0.43435   0.25270   0.89712   0.00000  Uiso   1.00
O405   O     0.06560   0.25384   0.10287   0.00000  Uiso   1.00
O406   O     0.24620   0.43440   0.89713   0.00000  Uiso   1.00
O407   O     0.24726   0.06565   0.10288   0.00000  Uiso   1.00
O408   O     0.06565   0.24729   0.89712   0.00000  Uiso   1.00
O409   O     0.43440   0.24616   0.10287   0.00000  Uiso   1.00
O410   O     0.03036   0.25000   0.33755   0.00000  Uiso   1.00
O411   O     0.46963   0.25000   0.66245   0.00000  Uiso   1.00
O412   O     0.25000   0.03036   0.33755   0.00000  Uiso   1.00
Zn413  Zn    0.20659  -0.00000   0.21735   0.00000  Uiso   1.00
Zn414  Zn    0.04340   0.25000   0.28265   0.00000  Uiso   1.00
Zn415  Zn    0.25000   0.45659   0.71735   0.00000  Uiso   1.00
Zn416  Zn    0.25000   0.04340   0.28265   0.00000  Uiso   1.00
Zn417  Zn    0.04340   0.25000   0.71735   0.00000  Uiso   1.00
Zn418  Zn    0.45659   0.25000   0.28265   0.00000  Uiso   1.00
Zn419  Zn    0.25000   0.04340   0.71735   0.00000  Uiso   1.00
Zn420  Zn    0.25000   0.45659   0.28265   0.00000  Uiso   1.00
Zn421  Zn    0.29340  -0.00000   0.78265   0.00000  Uiso   1.00
Zn422  Zn    0.00000   0.20659   0.21735   0.00000  Uiso   1.00
Zn423  Zn   -0.00000   0.29340   0.78265   0.00000  Uiso   1.00
Zn424  Zn    0.29340  -0.00000   0.21735   0.00000  Uiso   1.00
Zn425  Zn    0.20659  -0.00000   0.78265   0.00000  Uiso   1.00
Zn426  Zn   -0.00000   0.29340   0.21735   0.00000  Uiso   1.00
Zn427  Zn    0.00000   0.20659   0.78265   0.00000  Uiso   1.00
Zn428  Zn    0.45659   0.25000   0.71735   0.00000  Uiso   1.00
C429   C     0.50241   0.28329   0.41802   0.00000  Uiso   1.00
C430   C     0.75187   0.46668   0.08199   0.00000  Uiso   1.00
C431   C     0.71652   0.49902   0.54106   0.00000  Uiso   1.00
C432   C     0.50099   0.28348   0.45894   0.00000  Uiso   1.00
C433   C     0.50050   0.21651   0.54107   0.00000  Uiso   1.00
C434   C     0.71650   0.00051   0.45893   0.00000  Uiso   1.00
C435   C     0.78348   0.00098   0.54106   0.00000  Uiso   1.00
C436   C     0.74900   0.46652   0.95894   0.00000  Uiso   1.00
C437   C     0.74951   0.03350   0.04107   0.00000  Uiso   1.00
C438   C     0.53350   0.24953   0.95893   0.00000  Uiso   1.00
C439   C     0.96652   0.24898   0.04106   0.00000  Uiso   1.00
C440   C     0.75100   0.03348   0.95894   0.00000  Uiso   1.00
C441   C     0.96668   0.25185   0.91801   0.00000  Uiso   1.00
C442   C     0.75049   0.46650   0.04107   0.00000  Uiso   1.00
C443   C     0.96650   0.25047   0.95893   0.00000  Uiso   1.00
C444   C     0.53348   0.25102   0.04106   0.00000  Uiso   1.00
C445   C     0.59813   0.34813   0.25000   0.00000  Uiso   1.00
C446   C     0.90186   0.15185   0.75000   0.00000  Uiso   1.00
C447   C     0.65187   0.09813   0.25000   0.00000  Uiso   1.00
C448   C     0.84814   0.40185   0.75000   0.00000  Uiso   1.00
C449   C     0.90187   0.15187   0.25000   0.00000  Uiso   1.00
C450   C     0.59814   0.34814   0.75000   0.00000  Uiso   1.00
C451   C     0.84813   0.40187   0.25000   0.00000  Uiso   1.00
C452   C     0.53329   0.25243   0.08198   0.00000  Uiso   1.00
C453   C     0.65185   0.09815   0.75000   0.00000  Uiso   1.00
C454   C     0.59813   0.15187   0.75000   0.00000  Uiso   1.00
C455   C     0.90185   0.34814   0.25000   0.00000  Uiso   1.00
C456   C     0.65187   0.40187   0.75000   0.00000  Uiso   1.00
C457   C     0.84814   0.09814   0.25000   0.00000  Uiso   1.00
C458   C     0.90187   0.34813   0.75000   0.00000  Uiso   1.00
C459   C     0.59815   0.15185   0.25000   0.00000  Uiso   1.00
C460   C     0.84813   0.09813   0.75000   0.00000  Uiso   1.00
C461   C     0.65185   0.40185   0.25000   0.00000  Uiso   1.00
C462   C     0.50000   0.25000   0.47945   0.00000  Uiso   1.00
C463   C     0.74758   0.46671   0.91802   0.00000  Uiso   1.00
C464   C     0.50000   0.25000   0.52056   0.00000  Uiso   1.00
C465   C     0.75000  -0.00000   0.47944   0.00000  Uiso   1.00
C466   C     0.75000  -0.00000   0.52055   0.00000  Uiso   1.00
C467   C     0.75000  -0.00000   0.97945   0.00000  Uiso   1.00
C468   C     0.75000  -0.00000   0.02056   0.00000  Uiso   1.00
C469   C     0.50000   0.25000   0.97944   0.00000  Uiso   1.00
C470   C     0.50000   0.25000   0.02055   0.00000  Uiso   1.00
C471   C     0.54068   0.32569   0.39190   0.00000  Uiso   1.00
C472   C     0.54283   0.35541   0.36073   0.00000  Uiso   1.00
C473   C     0.58192   0.36868   0.35510   0.00000  Uiso   1.00
C474   C     0.74813   0.03332   0.08199   0.00000  Uiso   1.00
C475   C     0.53951   0.17380   0.60830   0.00000  Uiso   1.00
C476   C     0.54117   0.14432   0.63975   0.00000  Uiso   1.00
C477   C     0.58007   0.13061   0.64566   0.00000  Uiso   1.00
C478   C     0.67381   0.03953   0.39170   0.00000  Uiso   1.00
C479   C     0.64432   0.04121   0.36026   0.00000  Uiso   1.00
C480   C     0.63063   0.08011   0.35436   0.00000  Uiso   1.00
C481   C     0.82570   0.04067   0.60810   0.00000  Uiso   1.00
C482   C     0.85541   0.04280   0.63927   0.00000  Uiso   1.00
C483   C     0.86868   0.08189   0.64491   0.00000  Uiso   1.00
C484   C     0.95931   0.17431   0.39190   0.00000  Uiso   1.00
C485   C     0.53332   0.24815   0.91801   0.00000  Uiso   1.00
C486   C     0.95716   0.14458   0.36076   0.00000  Uiso   1.00
C487   C     0.91807   0.13133   0.35512   0.00000  Uiso   1.00
C488   C     0.96050   0.32620   0.60830   0.00000  Uiso   1.00
C489   C     0.95883   0.35567   0.63976   0.00000  Uiso   1.00
C490   C     0.91993   0.36938   0.64567   0.00000  Uiso   1.00
C491   C     0.82619   0.46047   0.39170   0.00000  Uiso   1.00
C492   C     0.85568   0.45880   0.36026   0.00000  Uiso   1.00
C493   C     0.86938   0.41990   0.35436   0.00000  Uiso   1.00
C494   C     0.67430   0.45933   0.60810   0.00000  Uiso   1.00
C495   C     0.64458   0.45719   0.63926   0.00000  Uiso   1.00
C496   C     0.96671   0.24756   0.08198   0.00000  Uiso   1.00
C497   C     0.63131   0.41810   0.64490   0.00000  Uiso   1.00
C498   C     0.79071   0.07568   0.89190   0.00000  Uiso   1.00
C499   C     0.79286   0.10540   0.86075   0.00000  Uiso   1.00
C500   C     0.83195   0.11866   0.85512   0.00000  Uiso   1.00
C501   C     0.78948   0.42379   0.10831   0.00000  Uiso   1.00
C502   C     0.79113   0.39433   0.13978   0.00000  Uiso   1.00
C503   C     0.83003   0.38059   0.14569   0.00000  Uiso   1.00
C504   C     0.92377   0.28944   0.89168   0.00000  Uiso   1.00
C505   C     0.89432   0.29108   0.86021   0.00000  Uiso   1.00
C506   C     0.88058   0.32997   0.85429   0.00000  Uiso   1.00
C507   C     0.50000   0.25000   0.39802   0.00000  Uiso   1.00
C508   C     0.57567   0.29074   0.10809   0.00000  Uiso   1.00
C509   C     0.60539   0.29291   0.13924   0.00000  Uiso   1.00
C510   C     0.61864   0.33201   0.14485   0.00000  Uiso   1.00
C511   C     0.70930   0.42431   0.89190   0.00000  Uiso   1.00
C512   C     0.70715   0.39461   0.86073   0.00000  Uiso   1.00
C513   C     0.66806   0.38134   0.85511   0.00000  Uiso   1.00
C514   C     0.71052   0.07621   0.10831   0.00000  Uiso   1.00
C515   C     0.70887   0.10569   0.13977   0.00000  Uiso   1.00
C516   C     0.66997   0.11940   0.14569   0.00000  Uiso   1.00
C517   C     0.57623   0.21056   0.89168   0.00000  Uiso   1.00
C518   C     0.50000   0.25000   0.60199   0.00000  Uiso   1.00
C519   C     0.60569   0.20892   0.86021   0.00000  Uiso   1.00
C520   C     0.61942   0.17003   0.85429   0.00000  Uiso   1.00
C521   C     0.92433   0.20926   0.10809   0.00000  Uiso   1.00
C522   C     0.89460   0.20709   0.13924   0.00000  Uiso   1.00
C523   C     0.88136   0.16799   0.14486   0.00000  Uiso   1.00
C524   C     0.75000  -0.00000   0.39801   0.00000  Uiso   1.00
C525   C     0.50188   0.21668   0.58199   0.00000  Uiso   1.00
C526   C     0.75000  -0.00000   0.60198   0.00000  Uiso   1.00
C527   C     0.75000   0.00000   0.89802   0.00000  Uiso   1.00
C528   C     0.75000   0.00000   0.10199   0.00000  Uiso   1.00
C529   C     0.50000   0.25000   0.89801   0.00000  Uiso   1.00
C530   C     0.50000   0.25000   0.10198   0.00000  Uiso   1.00
C531   C     0.99920   0.18356   0.47973   0.00000  Uiso   1.00
C532   C     0.50014   0.31645   0.52028   0.00000  Uiso   1.00
C533   C     0.81645   0.00013   0.47972   0.00000  Uiso   1.00
C534   C     0.68356   0.49922   0.52027   0.00000  Uiso   1.00
C535   C     0.50080   0.31644   0.47973   0.00000  Uiso   1.00
C536   C     0.71668   0.00189   0.41801   0.00000  Uiso   1.00
C537   C     0.99986   0.18355   0.52028   0.00000  Uiso   1.00
C538   C     0.68355   0.49987   0.47972   0.00000  Uiso   1.00
C539   C     0.81644   0.00078   0.52027   0.00000  Uiso   1.00
C540   C     0.74919   0.43356   0.97973   0.00000  Uiso   1.00
C541   C     0.75016   0.06645   0.02028   0.00000  Uiso   1.00
C542   C     0.56645   0.25019   0.97972   0.00000  Uiso   1.00
C543   C     0.93356   0.24916   0.02027   0.00000  Uiso   1.00
C544   C     0.75081   0.06644   0.97973   0.00000  Uiso   1.00
C545   C     0.74984   0.43355   0.02028   0.00000  Uiso   1.00
C546   C     0.93355   0.24981   0.97972   0.00000  Uiso   1.00
C547   C     0.78329   0.00240   0.58198   0.00000  Uiso   1.00
C548   C     0.56644   0.25084   0.02027   0.00000  Uiso   1.00
C549   C     0.75000  -0.00000   0.35576   0.00000  Uiso   1.00
C550   C     0.75000  -0.00000   0.64424   0.00000  Uiso   1.00
C551   C     0.50000   0.25000   0.35576   0.00000  Uiso   1.00
C552   C     0.50000   0.25000   0.64424   0.00000  Uiso   1.00
C553   C     0.50000   0.25000   0.85576   0.00000  Uiso   1.00
C554   C     0.50000   0.25000   0.14424   0.00000  Uiso   1.00
C555   C     0.75000  -0.00000   0.85576   0.00000  Uiso   1.00
C556   C     0.75000  -0.00000   0.14424   0.00000  Uiso   1.00
C557   C     0.67993   0.07007   0.25000   0.00000  Uiso   1.00
C558   C     0.99759   0.21671   0.41802   0.00000  Uiso   1.00
C559   C     0.82008   0.42992   0.75000   0.00000  Uiso   1.00
C560   C     0.92993   0.17993   0.25000   0.00000  Uiso   1.00
C561   C     0.57008   0.32008   0.75000   0.00000  Uiso   1.00
C562   C     0.82007   0.42992   0.25000   0.00000  Uiso   1.00
C563   C     0.67992   0.07008   0.75000   0.00000  Uiso   1.00
C564   C     0.57007   0.32007   0.25000   0.00000  Uiso   1.00
C565   C     0.92992   0.17992   0.75000   0.00000  Uiso   1.00
C566   C     0.67993   0.42993   0.75000   0.00000  Uiso   1.00
C567   C     0.82008   0.07008   0.25000   0.00000  Uiso   1.00
C568   C     0.92992   0.32007   0.75000   0.00000  Uiso   1.00
C569   C     0.99812   0.28332   0.58199   0.00000  Uiso   1.00
C570   C     0.57008   0.17992   0.25000   0.00000  Uiso   1.00
C571   C     0.82007   0.07007   0.75000   0.00000  Uiso   1.00
C572   C     0.67992   0.42992   0.25000   0.00000  Uiso   1.00
C573   C     0.57007   0.17993   0.75000   0.00000  Uiso   1.00
C574   C     0.92992   0.32008   0.25000   0.00000  Uiso   1.00
C575   C     0.61891   0.40781   0.23028   0.00000  Uiso   1.00
C576   C     0.88113   0.09211   0.76957   0.00000  Uiso   1.00
C577   C     0.59228   0.11899   0.23009   0.00000  Uiso   1.00
C578   C     0.90780   0.38104   0.76977   0.00000  Uiso   1.00
C579   C     0.88109   0.09219   0.23028   0.00000  Uiso   1.00
C580   C     0.78332   0.49811   0.41801   0.00000  Uiso   1.00
C581   C     0.61887   0.40789   0.76957   0.00000  Uiso   1.00
C582   C     0.90772   0.38100   0.23008   0.00000  Uiso   1.00
C583   C     0.59220   0.11895   0.76977   0.00000  Uiso   1.00
C584   C     0.61900   0.09228   0.76992   0.00000  Uiso   1.00
C585   C     0.88105   0.40780   0.23023   0.00000  Uiso   1.00
C586   C     0.59220   0.38109   0.76973   0.00000  Uiso   1.00
C587   C     0.90789   0.11887   0.23044   0.00000  Uiso   1.00
C588   C     0.88100   0.40772   0.76992   0.00000  Uiso   1.00
C589   C     0.61895   0.09220   0.23024   0.00000  Uiso   1.00
C590   C     0.90780   0.11891   0.76973   0.00000  Uiso   1.00
C591   C     0.71671   0.49760   0.58198   0.00000  Uiso   1.00
C592   C     0.59211   0.38113   0.23043   0.00000  Uiso   1.00
C593   C     0.86891   0.15780   0.73027   0.00000  Uiso   1.00
C594   C     0.63113   0.34211   0.26957   0.00000  Uiso   1.00
C595   C     0.84228   0.36900   0.73008   0.00000  Uiso   1.00
C596   C     0.65780   0.13105   0.26976   0.00000  Uiso   1.00
C597   C     0.63109   0.34220   0.73027   0.00000  Uiso   1.00
C598   C     0.86887   0.15789   0.26957   0.00000  Uiso   1.00
C599   C     0.65772   0.13100   0.73008   0.00000  Uiso   1.00
C600   C     0.84220   0.36895   0.26977   0.00000  Uiso   1.00
C601   C     0.86900   0.34228   0.26992   0.00000  Uiso   1.00
C602   C     0.75242   0.03329   0.91802   0.00000  Uiso   1.00
C603   C     0.63105   0.15780   0.73023   0.00000  Uiso   1.00
C604   C     0.84219   0.13109   0.26972   0.00000  Uiso   1.00
C605   C     0.65789   0.36887   0.73043   0.00000  Uiso   1.00
C606   C     0.63101   0.15772   0.26991   0.00000  Uiso   1.00
C607   C     0.86895   0.34220   0.73023   0.00000  Uiso   1.00
C608   C     0.65781   0.36891   0.26972   0.00000  Uiso   1.00
C609   C     0.84211   0.13113   0.73043   0.00000  Uiso   1.00
C610   C     0.99901   0.21652   0.45894   0.00000  Uiso   1.00
C611   C     0.99950   0.28349   0.54107   0.00000  Uiso   1.00
C612   C     0.78349   0.49949   0.45893   0.00000  Uiso   1.00
H613   H     0.99900   0.15755   0.46478   0.00000  Uiso   1.00
H614   H     0.75032   0.09245   0.03524   0.00000  Uiso   1.00
H615   H     0.65556   0.46759   0.66737   0.00000  Uiso   1.00
H616   H     0.62113   0.47460   0.63056   0.00000  Uiso   1.00
H617   H     0.61854   0.40782   0.61766   0.00000  Uiso   1.00
H618   H     0.61074   0.41725   0.66865   0.00000  Uiso   1.00
H619   H     0.65446   0.40008   0.65291   0.00000  Uiso   1.00
H620   H     0.80783   0.05224   0.88217   0.00000  Uiso   1.00
H621   H     0.80204   0.08647   0.91971   0.00000  Uiso   1.00
H622   H     0.78247   0.09442   0.83263   0.00000  Uiso   1.00
H623   H     0.77545   0.12885   0.86945   0.00000  Uiso   1.00
H624   H     0.84223   0.13143   0.88236   0.00000  Uiso   1.00
H625   H     0.59245   0.25036   0.96476   0.00000  Uiso   1.00
H626   H     0.83281   0.13924   0.83136   0.00000  Uiso   1.00
H627   H     0.84998   0.09551   0.84712   0.00000  Uiso   1.00
H628   H     0.80694   0.44706   0.11785   0.00000  Uiso   1.00
H629   H     0.80069   0.41259   0.08063   0.00000  Uiso   1.00
H630   H     0.78081   0.40570   0.16775   0.00000  Uiso   1.00
H631   H     0.77343   0.37103   0.13127   0.00000  Uiso   1.00
H632   H     0.84021   0.36743   0.11862   0.00000  Uiso   1.00
H633   H     0.83054   0.36024   0.16966   0.00000  Uiso   1.00
H634   H     0.84834   0.40357   0.15350   0.00000  Uiso   1.00
H635   H     0.94704   0.30691   0.88215   0.00000  Uiso   1.00
H636   H     0.90755   0.24894   0.03523   0.00000  Uiso   1.00
H637   H     0.91256   0.30065   0.91936   0.00000  Uiso   1.00
H638   H     0.90570   0.28076   0.83225   0.00000  Uiso   1.00
H639   H     0.87102   0.27338   0.86873   0.00000  Uiso   1.00
H640   H     0.90356   0.34829   0.84646   0.00000  Uiso   1.00
H641   H     0.86742   0.34016   0.88135   0.00000  Uiso   1.00
H642   H     0.86022   0.33048   0.83031   0.00000  Uiso   1.00
H643   H     0.55222   0.30786   0.11783   0.00000  Uiso   1.00
H644   H     0.58645   0.30207   0.08027   0.00000  Uiso   1.00
H645   H     0.59442   0.28252   0.16736   0.00000  Uiso   1.00
H646   H     0.62885   0.27551   0.13053   0.00000  Uiso   1.00
H647   H     0.75102   0.09245   0.96477   0.00000  Uiso   1.00
H648   H     0.63141   0.34228   0.11761   0.00000  Uiso   1.00
H649   H     0.63922   0.33288   0.16860   0.00000  Uiso   1.00
H650   H     0.59549   0.35003   0.15286   0.00000  Uiso   1.00
H651   H     0.69217   0.44776   0.88218   0.00000  Uiso   1.00
H652   H     0.69797   0.41351   0.91971   0.00000  Uiso   1.00
H653   H     0.71752   0.40561   0.83262   0.00000  Uiso   1.00
H654   H     0.72456   0.37116   0.86941   0.00000  Uiso   1.00
H655   H     0.65780   0.36854   0.88235   0.00000  Uiso   1.00
H656   H     0.66719   0.36078   0.83134   0.00000  Uiso   1.00
H657   H     0.65002   0.40448   0.84713   0.00000  Uiso   1.00
H658   H     0.74968   0.40755   0.03524   0.00000  Uiso   1.00
H659   H     0.69307   0.05294   0.11786   0.00000  Uiso   1.00
H660   H     0.69930   0.08740   0.08063   0.00000  Uiso   1.00
H661   H     0.71920   0.09432   0.16773   0.00000  Uiso   1.00
H662   H     0.72655   0.12898   0.13123   0.00000  Uiso   1.00
H663   H     0.65977   0.13254   0.11861   0.00000  Uiso   1.00
H664   H     0.66946   0.13977   0.16965   0.00000  Uiso   1.00
H665   H     0.65167   0.09642   0.15353   0.00000  Uiso   1.00
H666   H     0.55296   0.19309   0.88215   0.00000  Uiso   1.00
H667   H     0.58744   0.19935   0.91936   0.00000  Uiso   1.00
H668   H     0.59431   0.21924   0.83225   0.00000  Uiso   1.00
H669   H     0.90755   0.24964   0.96476   0.00000  Uiso   1.00
H670   H     0.62898   0.22662   0.86873   0.00000  Uiso   1.00
H671   H     0.63258   0.15983   0.88135   0.00000  Uiso   1.00
H672   H     0.63978   0.16952   0.83031   0.00000  Uiso   1.00
H673   H     0.59644   0.15172   0.84646   0.00000  Uiso   1.00
H674   H     0.94778   0.19215   0.11784   0.00000  Uiso   1.00
H675   H     0.91356   0.19792   0.08028   0.00000  Uiso   1.00
H676   H     0.90557   0.21748   0.16736   0.00000  Uiso   1.00
H677   H     0.87115   0.22449   0.13053   0.00000  Uiso   1.00
H678   H     0.86860   0.15771   0.11761   0.00000  Uiso   1.00
H679   H     0.86078   0.16712   0.16861   0.00000  Uiso   1.00
H680   H     0.59245   0.25106   0.03522   0.00000  Uiso   1.00
H681   H     0.90451   0.14998   0.15287   0.00000  Uiso   1.00
H682   H     0.61373   0.43313   0.21499   0.00000  Uiso   1.00
H683   H     0.88635   0.06673   0.78474   0.00000  Uiso   1.00
H684   H     0.56702   0.11387   0.21465   0.00000  Uiso   1.00
H685   H     0.50030   0.34245   0.53524   0.00000  Uiso   1.00
H686   H     0.93311   0.38620   0.78510   0.00000  Uiso   1.00
H687   H     0.88628   0.06687   0.21500   0.00000  Uiso   1.00
H688   H     0.61365   0.43326   0.78474   0.00000  Uiso   1.00
H689   H     0.93297   0.38612   0.21464   0.00000  Uiso   1.00
H690   H     0.56689   0.11380   0.78510   0.00000  Uiso   1.00
H691   H     0.61388   0.06702   0.78536   0.00000  Uiso   1.00
H692   H     0.88620   0.43311   0.21490   0.00000  Uiso   1.00
H693   H     0.56687   0.38627   0.78502   0.00000  Uiso   1.00
H694   H     0.93327   0.11364   0.21527   0.00000  Uiso   1.00
H695   H     0.88612   0.43297   0.78536   0.00000  Uiso   1.00
H696   H     0.84245   0.00027   0.46476   0.00000  Uiso   1.00
H697   H     0.61379   0.06689   0.21491   0.00000  Uiso   1.00
H698   H     0.93313   0.11373   0.78502   0.00000  Uiso   1.00
H699   H     0.56673   0.38636   0.21526   0.00000  Uiso   1.00
H700   H     0.86373   0.18313   0.71498   0.00000  Uiso   1.00
H701   H     0.63636   0.31673   0.28474   0.00000  Uiso   1.00
H702   H     0.81703   0.36388   0.71464   0.00000  Uiso   1.00
H703   H     0.68311   0.13621   0.28509   0.00000  Uiso   1.00
H704   H     0.63627   0.31687   0.71498   0.00000  Uiso   1.00
H705   H     0.86364   0.18327   0.28473   0.00000  Uiso   1.00
H706   H     0.68298   0.13612   0.71464   0.00000  Uiso   1.00
H707   H     0.65755   0.49903   0.53523   0.00000  Uiso   1.00
H708   H     0.81689   0.36379   0.28510   0.00000  Uiso   1.00
H709   H     0.86388   0.31702   0.28536   0.00000  Uiso   1.00
H710   H     0.63620   0.18311   0.71490   0.00000  Uiso   1.00
H711   H     0.81687   0.13627   0.28501   0.00000  Uiso   1.00
H712   H     0.68326   0.36365   0.71525   0.00000  Uiso   1.00
H713   H     0.63613   0.18298   0.28535   0.00000  Uiso   1.00
H714   H     0.86380   0.31689   0.71490   0.00000  Uiso   1.00
H715   H     0.68313   0.36373   0.28501   0.00000  Uiso   1.00
H716   H     0.81673   0.13635   0.71526   0.00000  Uiso   1.00
H717   H     0.55781   0.30225   0.38217   0.00000  Uiso   1.00
H718   H     0.50099   0.34245   0.46477   0.00000  Uiso   1.00
H719   H     0.55201   0.33649   0.41971   0.00000  Uiso   1.00
H720   H     0.53244   0.34441   0.33262   0.00000  Uiso   1.00
H721   H     0.52541   0.37885   0.36943   0.00000  Uiso   1.00
H722   H     0.59219   0.38146   0.38234   0.00000  Uiso   1.00
H723   H     0.58277   0.38924   0.33134   0.00000  Uiso   1.00
H724   H     0.59995   0.34553   0.34711   0.00000  Uiso   1.00
H725   H     0.55696   0.19707   0.61785   0.00000  Uiso   1.00
H726   H     0.55072   0.16262   0.58062   0.00000  Uiso   1.00
H727   H     0.53084   0.15568   0.66772   0.00000  Uiso   1.00
H728   H     0.52349   0.12102   0.63122   0.00000  Uiso   1.00
H729   H     0.99970   0.15755   0.53524   0.00000  Uiso   1.00
H730   H     0.59027   0.11748   0.61858   0.00000  Uiso   1.00
H731   H     0.58060   0.11024   0.66962   0.00000  Uiso   1.00
H732   H     0.59837   0.15360   0.65350   0.00000  Uiso   1.00
H733   H     0.69709   0.05697   0.38214   0.00000  Uiso   1.00
H734   H     0.66264   0.05075   0.41939   0.00000  Uiso   1.00
H735   H     0.65566   0.03087   0.33229   0.00000  Uiso   1.00
H736   H     0.62102   0.02354   0.36881   0.00000  Uiso   1.00
H737   H     0.61752   0.09032   0.38144   0.00000  Uiso   1.00
H738   H     0.61024   0.08064   0.33041   0.00000  Uiso   1.00
H739   H     0.65362   0.09839   0.34650   0.00000  Uiso   1.00
H740   H     0.65755   0.49973   0.46476   0.00000  Uiso   1.00
H741   H     0.80226   0.05780   0.61783   0.00000  Uiso   1.00
H742   H     0.83650   0.05199   0.58029   0.00000  Uiso   1.00
H743   H     0.84442   0.03242   0.66738   0.00000  Uiso   1.00
H744   H     0.87886   0.02539   0.63058   0.00000  Uiso   1.00
H745   H     0.88147   0.09217   0.61767   0.00000  Uiso   1.00
H746   H     0.88925   0.08274   0.66867   0.00000  Uiso   1.00
H747   H     0.84554   0.09993   0.65290   0.00000  Uiso   1.00
H748   H     0.94219   0.19775   0.38215   0.00000  Uiso   1.00
H749   H     0.94797   0.16353   0.41972   0.00000  Uiso   1.00
H750   H     0.96757   0.15555   0.33264   0.00000  Uiso   1.00
H751   H     0.84245   0.00097   0.53523   0.00000  Uiso   1.00
H752   H     0.97456   0.12113   0.36948   0.00000  Uiso   1.00
H753   H     0.90777   0.11858   0.38236   0.00000  Uiso   1.00
H754   H     0.91721   0.11074   0.33137   0.00000  Uiso   1.00
H755   H     0.90005   0.15448   0.34709   0.00000  Uiso   1.00
H756   H     0.94304   0.30292   0.61785   0.00000  Uiso   1.00
H757   H     0.94928   0.33739   0.58062   0.00000  Uiso   1.00
H758   H     0.96916   0.34431   0.66773   0.00000  Uiso   1.00
H759   H     0.97652   0.37897   0.63124   0.00000  Uiso   1.00
H760   H     0.90974   0.38252   0.61859   0.00000  Uiso   1.00
H761   H     0.91941   0.38975   0.66963   0.00000  Uiso   1.00
H762   H     0.74898   0.40755   0.96477   0.00000  Uiso   1.00
H763   H     0.90163   0.34640   0.65350   0.00000  Uiso   1.00
H764   H     0.80292   0.44303   0.38214   0.00000  Uiso   1.00
H765   H     0.83736   0.44925   0.41939   0.00000  Uiso   1.00
H766   H     0.84434   0.46914   0.33229   0.00000  Uiso   1.00
H767   H     0.87898   0.47648   0.36881   0.00000  Uiso   1.00
H768   H     0.88250   0.40969   0.38144   0.00000  Uiso   1.00
H769   H     0.88976   0.41937   0.33041   0.00000  Uiso   1.00
H770   H     0.84639   0.40161   0.34650   0.00000  Uiso   1.00
H771   H     0.69774   0.44220   0.61784   0.00000  Uiso   1.00
H772   H     0.66351   0.44800   0.58029   0.00000  Uiso   1.00
O773   O     0.75000  -0.00000   0.25000   0.00000  Uiso   1.00
O774   O     0.75000   0.46963   0.66245   0.00000  Uiso   1.00
O775   O     0.96963   0.25000   0.33755   0.00000  Uiso   1.00
O776   O     0.53036   0.25000   0.66245   0.00000  Uiso   1.00
O777   O     0.50000   0.21963   0.83755   0.00000  Uiso   1.00
O778   O     0.50000   0.28036   0.16245   0.00000  Uiso   1.00
O779   O     0.78036  -0.00000   0.83755   0.00000  Uiso   1.00
O780   O     0.71963  -0.00000   0.16245   0.00000  Uiso   1.00
O781   O     0.50000   0.28036   0.83755   0.00000  Uiso   1.00
O782   O     0.50000   0.21963   0.16245   0.00000  Uiso   1.00
O783   O     0.71963  -0.00000   0.83755   0.00000  Uiso   1.00
O784   O     0.75000  -0.00000   0.75000   0.00000  Uiso   1.00
O785   O     0.78036  -0.00000   0.16245   0.00000  Uiso   1.00
O786   O     0.70724   0.07307   0.27302   0.00000  Uiso   1.00
O787   O     0.79275   0.42692   0.72698   0.00000  Uiso   1.00
O788   O     0.92692   0.20724   0.27302   0.00000  Uiso   1.00
O789   O     0.57307   0.29275   0.72698   0.00000  Uiso   1.00
O790   O     0.79275   0.42692   0.27302   0.00000  Uiso   1.00
O791   O     0.70724   0.07307   0.72698   0.00000  Uiso   1.00
O792   O     0.57307   0.29275   0.27302   0.00000  Uiso   1.00
O793   O     0.92692   0.20724   0.72698   0.00000  Uiso   1.00
O794   O     0.70724   0.42692   0.72698   0.00000  Uiso   1.00
O795   O     0.50000   0.25000   0.25000   0.00000  Uiso   1.00
O796   O     0.79275   0.07307   0.27302   0.00000  Uiso   1.00
O797   O     0.92692   0.29275   0.72698   0.00000  Uiso   1.00
O798   O     0.57307   0.20724   0.27302   0.00000  Uiso   1.00
O799   O     0.79275   0.07307   0.72698   0.00000  Uiso   1.00
O800   O     0.70724   0.42692   0.27302   0.00000  Uiso   1.00
O801   O     0.57307   0.20724   0.72698   0.00000  Uiso   1.00
O802   O     0.92692   0.29275   0.27302   0.00000  Uiso   1.00
O803   O     0.95724   0.32307   0.77302   0.00000  Uiso   1.00
O804   O     0.54275   0.17692   0.22698   0.00000  Uiso   1.00
O805   O     0.67692   0.45724   0.77302   0.00000  Uiso   1.00
O806   O     0.50000   0.25000   0.75000   0.00000  Uiso   1.00
O807   O     0.82307   0.04275   0.22698   0.00000  Uiso   1.00
O808   O     0.54275   0.17692   0.77302   0.00000  Uiso   1.00
O809   O     0.95724   0.32307   0.22698   0.00000  Uiso   1.00
O810   O     0.82307   0.04275   0.77302   0.00000  Uiso   1.00
O811   O     0.67692   0.45724   0.22698   0.00000  Uiso   1.00
O812   O     0.95724   0.17692   0.22698   0.00000  Uiso   1.00
O813   O     0.54275   0.32307   0.77302   0.00000  Uiso   1.00
O814   O     0.67692   0.04275   0.22698   0.00000  Uiso   1.00
O815   O     0.82307   0.45724   0.77302   0.00000  Uiso   1.00
O816   O     0.54275   0.32307   0.22698   0.00000  Uiso   1.00
O817   O     0.75000   0.46963   0.33755   0.00000  Uiso   1.00
O818   O     0.95724   0.17692   0.77302   0.00000  Uiso   1.00
O819   O     0.82307   0.45724   0.22698   0.00000  Uiso   1.00
O820   O     0.67692   0.04275   0.77302   0.00000  Uiso   1.00
O821   O     0.50378   0.31560   0.39712   0.00000  Uiso   1.00
O822   O     0.50276   0.18435   0.60288   0.00000  Uiso   1.00
O823   O     0.68435   0.00278   0.39712   0.00000  Uiso   1.00
O824   O     0.81560   0.00377   0.60287   0.00000  Uiso   1.00
O825   O     0.99621   0.18440   0.39713   0.00000  Uiso   1.00
O826   O     0.99724   0.31565   0.60288   0.00000  Uiso   1.00
O827   O     0.81565   0.49722   0.39712   0.00000  Uiso   1.00
O828   O     0.75000   0.03036   0.66245   0.00000  Uiso   1.00
O829   O     0.68440   0.49623   0.60287   0.00000  Uiso   1.00
O830   O     0.75380   0.06560   0.89713   0.00000  Uiso   1.00
O831   O     0.75273   0.43435   0.10288   0.00000  Uiso   1.00
O832   O     0.93435   0.25270   0.89712   0.00000  Uiso   1.00
O833   O     0.56560   0.25384   0.10287   0.00000  Uiso   1.00
O834   O     0.74620   0.43440   0.89713   0.00000  Uiso   1.00
O835   O     0.74726   0.06565   0.10288   0.00000  Uiso   1.00
O836   O     0.56565   0.24729   0.89712   0.00000  Uiso   1.00
O837   O     0.93440   0.24616   0.10287   0.00000  Uiso   1.00
O838   O     0.53036   0.25000   0.33755   0.00000  Uiso   1.00
O839   O     0.96963   0.25000   0.66245   0.00000  Uiso   1.00
O840   O     0.75000   0.03036   0.33755   0.00000  Uiso   1.00
Zn841  Zn    0.70659  -0.00000   0.21735   0.00000  Uiso   1.00
Zn842  Zn    0.54340   0.25000   0.28265   0.00000  Uiso   1.00
Zn843  Zn    0.75000   0.45659   0.71735   0.00000  Uiso   1.00
Zn844  Zn    0.75000   0.04340   0.28265   0.00000  Uiso   1.00
Zn845  Zn    0.54340   0.25000   0.71735   0.00000  Uiso   1.00
Zn846  Zn    0.95659   0.25000   0.28265   0.00000  Uiso   1.00
Zn847  Zn    0.75000   0.04340   0.71735   0.00000  Uiso   1.00
Zn848  Zn    0.75000   0.45659   0.28265   0.00000  Uiso   1.00
Zn849  Zn    0.79340  -0.00000   0.78265   0.00000  Uiso   1.00
Zn850  Zn    0.50000   0.20659   0.21735   0.00000  Uiso   1.00
Zn851  Zn    0.50000   0.29340   0.78265   0.00000  Uiso   1.00
Zn852  Zn    0.79340  -0.00000   0.21735   0.00000  Uiso   1.00
Zn853  Zn    0.70659  -0.00000   0.78265   0.00000  Uiso   1.00
Zn854  Zn    0.50000   0.29340   0.21735   0.00000  Uiso   1.00
Zn855  Zn    0.50000   0.20659   0.78265   0.00000  Uiso   1.00
Zn856  Zn    0.95659   0.25000   0.71735   0.00000  Uiso   1.00
C857   C     0.00241   0.78329   0.41802   0.00000  Uiso   1.00
C858   C     0.25187   0.96668   0.08199   0.00000  Uiso   1.00
C859   C     0.21652   0.99902   0.54106   0.00000  Uiso   1.00
C860   C     0.00099   0.78348   0.45894   0.00000  Uiso   1.00
C861   C     0.00050   0.71651   0.54107   0.00000  Uiso   1.00
C862   C     0.21650   0.50051   0.45893   0.00000  Uiso   1.00
C863   C     0.28348   0.50098   0.54106   0.00000  Uiso   1.00
C864   C     0.24900   0.96652   0.95894   0.00000  Uiso   1.00
C865   C     0.24951   0.53350   0.04107   0.00000  Uiso   1.00
C866   C     0.03350   0.74953   0.95893   0.00000  Uiso   1.00
C867   C     0.46652   0.74898   0.04106   0.00000  Uiso   1.00
C868   C     0.25100   0.53348   0.95894   0.00000  Uiso   1.00
C869   C     0.46668   0.75185   0.91801   0.00000  Uiso   1.00
C870   C     0.25049   0.96650   0.04107   0.00000  Uiso   1.00
C871   C     0.46650   0.75047   0.95893   0.00000  Uiso   1.00
C872   C     0.03348   0.75102   0.04106   0.00000  Uiso   1.00
C873   C     0.09813   0.84813   0.25000   0.00000  Uiso   1.00
C874   C     0.40186   0.65185   0.75000   0.00000  Uiso   1.00
C875   C     0.15187   0.59813   0.25000   0.00000  Uiso   1.00
C876   C     0.34814   0.90185   0.75000   0.00000  Uiso   1.00
C877   C     0.40187   0.65187   0.25000   0.00000  Uiso   1.00
C878   C     0.09814   0.84814   0.75000   0.00000  Uiso   1.00
C879   C     0.34813   0.90187   0.25000   0.00000  Uiso   1.00
C880   C     0.03329   0.75243   0.08198   0.00000  Uiso   1.00
C881   C     0.15185   0.59815   0.75000   0.00000  Uiso   1.00
C882   C     0.09813   0.65187   0.75000   0.00000  Uiso   1.00
C883   C     0.40185   0.84814   0.25000   0.00000  Uiso   1.00
C884   C     0.15187   0.90187   0.75000   0.00000  Uiso   1.00
C885   C     0.34814   0.59814   0.25000   0.00000  Uiso   1.00
C886   C     0.40187   0.84813   0.75000   0.00000  Uiso   1.00
C887   C     0.09815   0.65185   0.25000   0.00000  Uiso   1.00
C888   C     0.34813   0.59813   0.75000   0.00000  Uiso   1.00
C889   C     0.15185   0.90185   0.25000   0.00000  Uiso   1.00
C890   C    -0.00000   0.75000   0.47945   0.00000  Uiso   1.00
C891   C     0.24758   0.96671   0.91802   0.00000  Uiso   1.00
C892   C     0.00000   0.75000   0.52056   0.00000  Uiso   1.00
C893   C     0.25000   0.50000   0.47944   0.00000  Uiso   1.00
C894   C     0.25000   0.50000   0.52055   0.00000  Uiso   1.00
C895   C     0.25000   0.50000   0.97945   0.00000  Uiso   1.00
C896   C     0.25000   0.50000   0.02056   0.00000  Uiso   1.00
C897   C     0.00000   0.75000   0.97944   0.00000  Uiso   1.00
C898   C     0.00000   0.75000   0.02055   0.00000  Uiso   1.00
C899   C     0.04068   0.82569   0.39190   0.00000  Uiso   1.00
C900   C     0.04283   0.85541   0.36073   0.00000  Uiso   1.00
C901   C     0.08192   0.86868   0.35510   0.00000  Uiso   1.00
C902   C     0.24813   0.53332   0.08199   0.00000  Uiso   1.00
C903   C     0.03951   0.67380   0.60830   0.00000  Uiso   1.00
C904   C     0.04117   0.64432   0.63975   0.00000  Uiso   1.00
C905   C     0.08007   0.63061   0.64566   0.00000  Uiso   1.00
C906   C     0.17381   0.53953   0.39170   0.00000  Uiso   1.00
C907   C     0.14432   0.54121   0.36026   0.00000  Uiso   1.00
C908   C     0.13063   0.58011   0.35436   0.00000  Uiso   1.00
C909   C     0.32570   0.54067   0.60810   0.00000  Uiso   1.00
C910   C     0.35541   0.54280   0.63927   0.00000  Uiso   1.00
C911   C     0.36868   0.58189   0.64491   0.00000  Uiso   1.00
C912   C     0.45931   0.67431   0.39190   0.00000  Uiso   1.00
C913   C     0.03332   0.74815   0.91801   0.00000  Uiso   1.00
C914   C     0.45716   0.64458   0.36076   0.00000  Uiso   1.00
C915   C     0.41807   0.63133   0.35512   0.00000  Uiso   1.00
C916   C     0.46050   0.82620   0.60830   0.00000  Uiso   1.00
C917   C     0.45883   0.85567   0.63976   0.00000  Uiso   1.00
C918   C     0.41993   0.86938   0.64567   0.00000  Uiso   1.00
C919   C     0.32619   0.96047   0.39170   0.00000  Uiso   1.00
C920   C     0.35568   0.95880   0.36026   0.00000  Uiso   1.00
C921   C     0.36938   0.91990   0.35436   0.00000  Uiso   1.00
C922   C     0.17430   0.95933   0.60810   0.00000  Uiso   1.00
C923   C     0.14458   0.95719   0.63926   0.00000  Uiso   1.00
C924   C     0.46671   0.74756   0.08198   0.00000  Uiso   1.00
C925   C     0.13131   0.91810   0.64490   0.00000  Uiso   1.00
C926   C     0.29071   0.57568   0.89190   0.00000  Uiso   1.00
C927   C     0.29286   0.60540   0.86075   0.00000  Uiso   1.00
C928   C     0.33195   0.61866   0.85512   0.00000  Uiso   1.00
C929   C     0.28948   0.92379   0.10831   0.00000  Uiso   1.00
C930   C     0.29113   0.89433   0.13978   0.00000  Uiso   1.00
C931   C     0.33003   0.88059   0.14569   0.00000  Uiso   1.00
C932   C     0.42377   0.78944   0.89168   0.00000  Uiso   1.00
C933   C     0.39432   0.79108   0.86021   0.00000  Uiso   1.00
C934   C     0.38058   0.82997   0.85429   0.00000  Uiso   1.00
C935   C    -0.00000   0.75000   0.39802   0.00000  Uiso   1.00
C936   C     0.07567   0.79074   0.10809   0.00000  Uiso   1.00
C937   C     0.10539   0.79291   0.13924   0.00000  Uiso   1.00
C938   C     0.11864   0.83201   0.14485   0.00000  Uiso   1.00
C939   C     0.20930   0.92431   0.89190   0.00000  Uiso   1.00
C940   C     0.20715   0.89461   0.86073   0.00000  Uiso   1.00
C941   C     0.16806   0.88134   0.85511   0.00000  Uiso   1.00
C942   C     0.21052   0.57621   0.10831   0.00000  Uiso   1.00
C943   C     0.20887   0.60569   0.13977   0.00000  Uiso   1.00
C944   C     0.16997   0.61940   0.14569   0.00000  Uiso   1.00
C945   C     0.07623   0.71056   0.89168   0.00000  Uiso   1.00
C946   C     0.00000   0.75000   0.60199   0.00000  Uiso   1.00
C947   C     0.10569   0.70892   0.86021   0.00000  Uiso   1.00
C948   C     0.11942   0.67003   0.85429   0.00000  Uiso   1.00
C949   C     0.42433   0.70926   0.10809   0.00000  Uiso   1.00
C950   C     0.39460   0.70709   0.13924   0.00000  Uiso   1.00
C951   C     0.38136   0.66799   0.14486   0.00000  Uiso   1.00
C952   C     0.25000   0.50000   0.39801   0.00000  Uiso   1.00
C953   C     0.00188   0.71668   0.58199   0.00000  Uiso   1.00
C954   C     0.25000   0.50000   0.60198   0.00000  Uiso   1.00
C955   C     0.25000   0.50000   0.89802   0.00000  Uiso   1.00
C956   C     0.25000   0.50000   0.10199   0.00000  Uiso   1.00
C957   C    -0.00000   0.75000   0.89801   0.00000  Uiso   1.00
C958   C     0.00000   0.75000   0.10198   0.00000  Uiso   1.00
C959   C     0.49920   0.68356   0.47973   0.00000  Uiso   1.00
C960   C     0.00014   0.81645   0.52028   0.00000  Uiso   1.00
C961   C     0.31645   0.50013   0.47972   0.00000  Uiso   1.00
C962   C     0.18356   0.99922   0.52027   0.00000  Uiso   1.00
C963   C     0.00080   0.81644   0.47973   0.00000  Uiso   1.00
C964   C     0.21668   0.50189   0.41801   0.00000  Uiso   1.00
C965   C     0.49986   0.68355   0.52028   0.00000  Uiso   1.00
C966   C     0.18355   0.99987   0.47972   0.00000  Uiso   1.00
C967   C     0.31644   0.50078   0.52027   0.00000  Uiso   1.00
C968   C     0.24919   0.93356   0.97973   0.00000  Uiso   1.00
C969   C     0.25016   0.56645   0.02028   0.00000  Uiso   1.00
C970   C     0.06645   0.75019   0.97972   0.00000  Uiso   1.00
C971   C     0.43356   0.74916   0.02027   0.00000  Uiso   1.00
C972   C     0.25081   0.56644   0.97973   0.00000  Uiso   1.00
C973   C     0.24984   0.93355   0.02028   0.00000  Uiso   1.00
C974   C     0.43355   0.74981   0.97972   0.00000  Uiso   1.00
C975   C     0.28329   0.50240   0.58198   0.00000  Uiso   1.00
C976   C     0.06644   0.75084   0.02027   0.00000  Uiso   1.00
C977   C     0.25000   0.50000   0.35576   0.00000  Uiso   1.00
C978   C     0.25000   0.50000   0.64424   0.00000  Uiso   1.00
C979   C    -0.00000   0.75000   0.35576   0.00000  Uiso   1.00
C980   C     0.00000   0.75000   0.64424   0.00000  Uiso   1.00
C981   C    -0.00000   0.75000   0.85576   0.00000  Uiso   1.00
C982   C     0.00000   0.75000   0.14424   0.00000  Uiso   1.00
C983   C     0.25000   0.50000   0.85576   0.00000  Uiso   1.00
C984   C     0.25000   0.50000   0.14424   0.00000  Uiso   1.00
C985   C     0.17993   0.57007   0.25000   0.00000  Uiso   1.00
C986   C     0.49759   0.71671   0.41802   0.00000  Uiso   1.00
C987   C     0.32008   0.92992   0.75000   0.00000  Uiso   1.00
C988   C     0.42993   0.67993   0.25000   0.00000  Uiso   1.00
C989   C     0.07008   0.82008   0.75000   0.00000  Uiso   1.00
C990   C     0.32007   0.92992   0.25000   0.00000  Uiso   1.00
C991   C     0.17992   0.57008   0.75000   0.00000  Uiso   1.00
C992   C     0.07007   0.82007   0.25000   0.00000  Uiso   1.00
C993   C     0.42992   0.67992   0.75000   0.00000  Uiso   1.00
C994   C     0.17993   0.92993   0.75000   0.00000  Uiso   1.00
C995   C     0.32008   0.57008   0.25000   0.00000  Uiso   1.00
C996   C     0.42992   0.82007   0.75000   0.00000  Uiso   1.00
C997   C     0.49812   0.78332   0.58199   0.00000  Uiso   1.00
C998   C     0.07008   0.67992   0.25000   0.00000  Uiso   1.00
C999   C     0.32007   0.57007   0.75000   0.00000  Uiso   1.00
C1000  C     0.17992   0.92992   0.25000   0.00000  Uiso   1.00
C1001  C     0.07007   0.67993   0.75000   0.00000  Uiso   1.00
C1002  C     0.42992   0.82008   0.25000   0.00000  Uiso   1.00
C1003  C     0.11891   0.90781   0.23028   0.00000  Uiso   1.00
C1004  C     0.38113   0.59211   0.76957   0.00000  Uiso   1.00
C1005  C     0.09228   0.61899   0.23009   0.00000  Uiso   1.00
C1006  C     0.40780   0.88104   0.76977   0.00000  Uiso   1.00
C1007  C     0.38109   0.59219   0.23028   0.00000  Uiso   1.00
C1008  C     0.28332   0.99811   0.41801   0.00000  Uiso   1.00
C1009  C     0.11887   0.90789   0.76957   0.00000  Uiso   1.00
C1010  C     0.40772   0.88100   0.23008   0.00000  Uiso   1.00
C1011  C     0.09220   0.61895   0.76977   0.00000  Uiso   1.00
C1012  C     0.11900   0.59228   0.76992   0.00000  Uiso   1.00
C1013  C     0.38105   0.90780   0.23023   0.00000  Uiso   1.00
C1014  C     0.09220   0.88109   0.76973   0.00000  Uiso   1.00
C1015  C     0.40789   0.61887   0.23044   0.00000  Uiso   1.00
C1016  C     0.38100   0.90772   0.76992   0.00000  Uiso   1.00
C1017  C     0.11895   0.59220   0.23024   0.00000  Uiso   1.00
C1018  C     0.40780   0.61891   0.76973   0.00000  Uiso   1.00
C1019  C     0.21671   0.99760   0.58198   0.00000  Uiso   1.00
C1020  C     0.09211   0.88113   0.23043   0.00000  Uiso   1.00
C1021  C     0.36891   0.65780   0.73027   0.00000  Uiso   1.00
C1022  C     0.13113   0.84211   0.26957   0.00000  Uiso   1.00
C1023  C     0.34228   0.86900   0.73008   0.00000  Uiso   1.00
C1024  C     0.15780   0.63105   0.26976   0.00000  Uiso   1.00
C1025  C     0.13109   0.84220   0.73027   0.00000  Uiso   1.00
C1026  C     0.36887   0.65789   0.26957   0.00000  Uiso   1.00
C1027  C     0.15772   0.63100   0.73008   0.00000  Uiso   1.00
C1028  C     0.34220   0.86895   0.26977   0.00000  Uiso   1.00
C1029  C     0.36900   0.84228   0.26992   0.00000  Uiso   1.00
C1030  C     0.25242   0.53329   0.91802   0.00000  Uiso   1.00
C1031  C     0.13105   0.65780   0.73023   0.00000  Uiso   1.00
C1032  C     0.34219   0.63109   0.26972   0.00000  Uiso   1.00
C1033  C     0.15789   0.86887   0.73043   0.00000  Uiso   1.00
C1034  C     0.13101   0.65772   0.26991   0.00000  Uiso   1.00
C1035  C     0.36895   0.84220   0.73023   0.00000  Uiso   1.00
C1036  C     0.15781   0.86891   0.26972   0.00000  Uiso   1.00
C1037  C     0.34211   0.63113   0.73043   0.00000  Uiso   1.00
C1038  C     0.49901   0.71652   0.45894   0.00000  Uiso   1.00
C1039  C     0.49950   0.78349   0.54107   0.00000  Uiso   1.00
C1040  C     0.28349   0.99949   0.45893   0.00000  Uiso   1.00
H1041  H     0.49900   0.65755   0.46478   0.00000  Uiso   1.00
H1042  H     0.25032   0.59245   0.03524   0.00000  Uiso   1.00
H1043  H     0.15556   0.96759   0.66737   0.00000  Uiso   1.00
H1044  H     0.12113   0.97460   0.63056   0.00000  Uiso   1.00
H1045  H     0.11854   0.90782   0.61766   0.00000  Uiso   1.00
H1046  H     0.11074   0.91725   0.66865   0.00000  Uiso   1.00
H1047  H     0.15446   0.90008   0.65291   0.00000  Uiso   1.00
H1048  H     0.30783   0.55224   0.88217   0.00000  Uiso   1.00
H1049  H     0.30204   0.58647   0.91971   0.00000  Uiso   1.00
H1050  H     0.28247   0.59442   0.83263   0.00000  Uiso   1.00
H1051  H     0.27545   0.62885   0.86945   0.00000  Uiso   1.00
H1052  H     0.34223   0.63143   0.88236   0.00000  Uiso   1.00
H1053  H     0.09245   0.75036   0.96476   0.00000  Uiso   1.00
H1054  H     0.33281   0.63924   0.83136   0.00000  Uiso   1.00
H1055  H     0.34998   0.59551   0.84712   0.00000  Uiso   1.00
H1056  H     0.30694   0.94706   0.11785   0.00000  Uiso   1.00
H1057  H     0.30069   0.91259   0.08063   0.00000  Uiso   1.00
H1058  H     0.28081   0.90570   0.16775   0.00000  Uiso   1.00
H1059  H     0.27343   0.87103   0.13127   0.00000  Uiso   1.00
H1060  H     0.34021   0.86743   0.11862   0.00000  Uiso   1.00
H1061  H     0.33054   0.86024   0.16966   0.00000  Uiso   1.00
H1062  H     0.34834   0.90357   0.15350   0.00000  Uiso   1.00
H1063  H     0.44704   0.80691   0.88215   0.00000  Uiso   1.00
H1064  H     0.40755   0.74894   0.03523   0.00000  Uiso   1.00
H1065  H     0.41256   0.80065   0.91936   0.00000  Uiso   1.00
H1066  H     0.40570   0.78076   0.83225   0.00000  Uiso   1.00
H1067  H     0.37102   0.77338   0.86873   0.00000  Uiso   1.00
H1068  H     0.40356   0.84829   0.84646   0.00000  Uiso   1.00
H1069  H     0.36742   0.84016   0.88135   0.00000  Uiso   1.00
H1070  H     0.36022   0.83048   0.83031   0.00000  Uiso   1.00
H1071  H     0.05222   0.80786   0.11783   0.00000  Uiso   1.00
H1072  H     0.08645   0.80207   0.08027   0.00000  Uiso   1.00
H1073  H     0.09442   0.78252   0.16736   0.00000  Uiso   1.00
H1074  H     0.12885   0.77551   0.13053   0.00000  Uiso   1.00
H1075  H     0.25102   0.59245   0.96477   0.00000  Uiso   1.00
H1076  H     0.13141   0.84228   0.11761   0.00000  Uiso   1.00
H1077  H     0.13922   0.83288   0.16860   0.00000  Uiso   1.00
H1078  H     0.09549   0.85003   0.15286   0.00000  Uiso   1.00
H1079  H     0.19217   0.94776   0.88218   0.00000  Uiso   1.00
H1080  H     0.19797   0.91351   0.91971   0.00000  Uiso   1.00
H1081  H     0.21752   0.90561   0.83262   0.00000  Uiso   1.00
H1082  H     0.22456   0.87116   0.86941   0.00000  Uiso   1.00
H1083  H     0.15780   0.86854   0.88235   0.00000  Uiso   1.00
H1084  H     0.16719   0.86078   0.83134   0.00000  Uiso   1.00
H1085  H     0.15002   0.90448   0.84713   0.00000  Uiso   1.00
H1086  H     0.24968   0.90755   0.03524   0.00000  Uiso   1.00
H1087  H     0.19307   0.55294   0.11786   0.00000  Uiso   1.00
H1088  H     0.19930   0.58740   0.08063   0.00000  Uiso   1.00
H1089  H     0.21920   0.59432   0.16773   0.00000  Uiso   1.00
H1090  H     0.22655   0.62898   0.13123   0.00000  Uiso   1.00
H1091  H     0.15977   0.63254   0.11861   0.00000  Uiso   1.00
H1092  H     0.16946   0.63977   0.16965   0.00000  Uiso   1.00
H1093  H     0.15167   0.59642   0.15353   0.00000  Uiso   1.00
H1094  H     0.05296   0.69309   0.88215   0.00000  Uiso   1.00
H1095  H     0.08744   0.69935   0.91936   0.00000  Uiso   1.00
H1096  H     0.09431   0.71924   0.83225   0.00000  Uiso   1.00
H1097  H     0.40755   0.74964   0.96476   0.00000  Uiso   1.00
H1098  H     0.12898   0.72662   0.86873   0.00000  Uiso   1.00
H1099  H     0.13258   0.65983   0.88135   0.00000  Uiso   1.00
H1100  H     0.13978   0.66952   0.83031   0.00000  Uiso   1.00
H1101  H     0.09644   0.65172   0.84646   0.00000  Uiso   1.00
H1102  H     0.44778   0.69215   0.11784   0.00000  Uiso   1.00
H1103  H     0.41356   0.69792   0.08028   0.00000  Uiso   1.00
H1104  H     0.40557   0.71748   0.16736   0.00000  Uiso   1.00
H1105  H     0.37115   0.72449   0.13053   0.00000  Uiso   1.00
H1106  H     0.36860   0.65771   0.11761   0.00000  Uiso   1.00
H1107  H     0.36078   0.66712   0.16861   0.00000  Uiso   1.00
H1108  H     0.09245   0.75106   0.03522   0.00000  Uiso   1.00
H1109  H     0.40451   0.64998   0.15287   0.00000  Uiso   1.00
H1110  H     0.11373   0.93313   0.21499   0.00000  Uiso   1.00
H1111  H     0.38635   0.56673   0.78474   0.00000  Uiso   1.00
H1112  H     0.06702   0.61387   0.21465   0.00000  Uiso   1.00
H1113  H     0.00030   0.84245   0.53524   0.00000  Uiso   1.00
H1114  H     0.43311   0.88620   0.78510   0.00000  Uiso   1.00
H1115  H     0.38628   0.56687   0.21500   0.00000  Uiso   1.00
H1116  H     0.11365   0.93326   0.78474   0.00000  Uiso   1.00
H1117  H     0.43297   0.88612   0.21464   0.00000  Uiso   1.00
H1118  H     0.06689   0.61380   0.78510   0.00000  Uiso   1.00
H1119  H     0.11388   0.56702   0.78536   0.00000  Uiso   1.00
H1120  H     0.38620   0.93311   0.21490   0.00000  Uiso   1.00
H1121  H     0.06687   0.88627   0.78502   0.00000  Uiso   1.00
H1122  H     0.43327   0.61364   0.21527   0.00000  Uiso   1.00
H1123  H     0.38612   0.93297   0.78536   0.00000  Uiso   1.00
H1124  H     0.34245   0.50027   0.46476   0.00000  Uiso   1.00
H1125  H     0.11379   0.56689   0.21491   0.00000  Uiso   1.00
H1126  H     0.43313   0.61373   0.78502   0.00000  Uiso   1.00
H1127  H     0.06673   0.88636   0.21526   0.00000  Uiso   1.00
H1128  H     0.36373   0.68313   0.71498   0.00000  Uiso   1.00
H1129  H     0.13636   0.81673   0.28474   0.00000  Uiso   1.00
H1130  H     0.31703   0.86388   0.71464   0.00000  Uiso   1.00
H1131  H     0.18311   0.63621   0.28509   0.00000  Uiso   1.00
H1132  H     0.13627   0.81687   0.71498   0.00000  Uiso   1.00
H1133  H     0.36364   0.68327   0.28473   0.00000  Uiso   1.00
H1134  H     0.18298   0.63612   0.71464   0.00000  Uiso   1.00
H1135  H     0.15755   0.99903   0.53523   0.00000  Uiso   1.00
H1136  H     0.31689   0.86379   0.28510   0.00000  Uiso   1.00
H1137  H     0.36388   0.81702   0.28536   0.00000  Uiso   1.00
H1138  H     0.13620   0.68311   0.71490   0.00000  Uiso   1.00
H1139  H     0.31687   0.63627   0.28501   0.00000  Uiso   1.00
H1140  H     0.18326   0.86365   0.71525   0.00000  Uiso   1.00
H1141  H     0.13613   0.68298   0.28535   0.00000  Uiso   1.00
H1142  H     0.36380   0.81689   0.71490   0.00000  Uiso   1.00
H1143  H     0.18313   0.86373   0.28501   0.00000  Uiso   1.00
H1144  H     0.31673   0.63635   0.71526   0.00000  Uiso   1.00
H1145  H     0.05781   0.80225   0.38217   0.00000  Uiso   1.00
H1146  H     0.00099   0.84245   0.46477   0.00000  Uiso   1.00
H1147  H     0.05201   0.83649   0.41971   0.00000  Uiso   1.00
H1148  H     0.03244   0.84441   0.33262   0.00000  Uiso   1.00
H1149  H     0.02541   0.87885   0.36943   0.00000  Uiso   1.00
H1150  H     0.09219   0.88146   0.38234   0.00000  Uiso   1.00
H1151  H     0.08277   0.88924   0.33134   0.00000  Uiso   1.00
H1152  H     0.09995   0.84553   0.34711   0.00000  Uiso   1.00
H1153  H     0.05696   0.69707   0.61785   0.00000  Uiso   1.00
H1154  H     0.05072   0.66262   0.58062   0.00000  Uiso   1.00
H1155  H     0.03084   0.65568   0.66772   0.00000  Uiso   1.00
H1156  H     0.02349   0.62102   0.63122   0.00000  Uiso   1.00
H1157  H     0.49970   0.65755   0.53524   0.00000  Uiso   1.00
H1158  H     0.09027   0.61748   0.61858   0.00000  Uiso   1.00
H1159  H     0.08060   0.61024   0.66962   0.00000  Uiso   1.00
H1160  H     0.09837   0.65360   0.65350   0.00000  Uiso   1.00
H1161  H     0.19709   0.55697   0.38214   0.00000  Uiso   1.00
H1162  H     0.16264   0.55075   0.41939   0.00000  Uiso   1.00
H1163  H     0.15566   0.53087   0.33229   0.00000  Uiso   1.00
H1164  H     0.12102   0.52354   0.36881   0.00000  Uiso   1.00
H1165  H     0.11752   0.59032   0.38144   0.00000  Uiso   1.00
H1166  H     0.11024   0.58064   0.33041   0.00000  Uiso   1.00
H1167  H     0.15362   0.59839   0.34650   0.00000  Uiso   1.00
H1168  H     0.15755   0.99973   0.46476   0.00000  Uiso   1.00
H1169  H     0.30226   0.55780   0.61783   0.00000  Uiso   1.00
H1170  H     0.33650   0.55199   0.58029   0.00000  Uiso   1.00
H1171  H     0.34442   0.53242   0.66738   0.00000  Uiso   1.00
H1172  H     0.37886   0.52539   0.63058   0.00000  Uiso   1.00
H1173  H     0.38147   0.59217   0.61767   0.00000  Uiso   1.00
H1174  H     0.38925   0.58274   0.66867   0.00000  Uiso   1.00
H1175  H     0.34554   0.59993   0.65290   0.00000  Uiso   1.00
H1176  H     0.44219   0.69775   0.38215   0.00000  Uiso   1.00
H1177  H     0.44797   0.66353   0.41972   0.00000  Uiso   1.00
H1178  H     0.46757   0.65555   0.33264   0.00000  Uiso   1.00
H1179  H     0.34245   0.50097   0.53523   0.00000  Uiso   1.00
H1180  H     0.47456   0.62113   0.36948   0.00000  Uiso   1.00
H1181  H     0.40777   0.61858   0.38236   0.00000  Uiso   1.00
H1182  H     0.41721   0.61074   0.33137   0.00000  Uiso   1.00
H1183  H     0.40005   0.65448   0.34709   0.00000  Uiso   1.00
H1184  H     0.44304   0.80292   0.61785   0.00000  Uiso   1.00
H1185  H     0.44928   0.83739   0.58062   0.00000  Uiso   1.00
H1186  H     0.46916   0.84431   0.66773   0.00000  Uiso   1.00
H1187  H     0.47652   0.87897   0.63124   0.00000  Uiso   1.00
H1188  H     0.40974   0.88252   0.61859   0.00000  Uiso   1.00
H1189  H     0.41941   0.88975   0.66963   0.00000  Uiso   1.00
H1190  H     0.24898   0.90755   0.96477   0.00000  Uiso   1.00
H1191  H     0.40163   0.84640   0.65350   0.00000  Uiso   1.00
H1192  H     0.30292   0.94303   0.38214   0.00000  Uiso   1.00
H1193  H     0.33736   0.94925   0.41939   0.00000  Uiso   1.00
H1194  H     0.34434   0.96914   0.33229   0.00000  Uiso   1.00
H1195  H     0.37898   0.97648   0.36881   0.00000  Uiso   1.00
H1196  H     0.38250   0.90969   0.38144   0.00000  Uiso   1.00
H1197  H     0.38976   0.91937   0.33041   0.00000  Uiso   1.00
H1198  H     0.34639   0.90161   0.34650   0.00000  Uiso   1.00
H1199  H     0.19774   0.94220   0.61784   0.00000  Uiso   1.00
H1200  H     0.16351   0.94800   0.58029   0.00000  Uiso   1.00
O1201  O     0.25000   0.50000   0.25000   0.00000  Uiso   1.00
O1202  O     0.25000   0.96963   0.66245   0.00000  Uiso   1.00
O1203  O     0.46963   0.75000   0.33755   0.00000  Uiso   1.00
O1204  O     0.03036   0.75000   0.66245   0.00000  Uiso   1.00
O1205  O    -0.00000   0.71963   0.83755   0.00000  Uiso   1.00
O1206  O     0.00000   0.78036   0.16245   0.00000  Uiso   1.00
O1207  O     0.28036   0.50000   0.83755   0.00000  Uiso   1.00
O1208  O     0.21963   0.50000   0.16245   0.00000  Uiso   1.00
O1209  O    -0.00000   0.78036   0.83755   0.00000  Uiso   1.00
O1210  O    -0.00000   0.71963   0.16245   0.00000  Uiso   1.00
O1211  O     0.21963   0.50000   0.83755   0.00000  Uiso   1.00
O1212  O     0.25000   0.50000   0.75000   0.00000  Uiso   1.00
O1213  O     0.28036   0.50000   0.16245   0.00000  Uiso   1.00
O1214  O     0.20724   0.57307   0.27302   0.00000  Uiso   1.00
O1215  O     0.29275   0.92692   0.72698   0.00000  Uiso   1.00
O1216  O     0.42692   0.70724   0.27302   0.00000  Uiso   1.00
O1217  O     0.07307   0.79275   0.72698   0.00000  Uiso   1.00
O1218  O     0.29275   0.92692   0.27302   0.00000  Uiso   1.00
O1219  O     0.20724   0.57307   0.72698   0.00000  Uiso   1.00
O1220  O     0.07307   0.79275   0.27302   0.00000  Uiso   1.00
O1221  O     0.42692   0.70724   0.72698   0.00000  Uiso   1.00
O1222  O     0.20724   0.92692   0.72698   0.00000  Uiso   1.00
O1223  O     0.00000   0.75000   0.25000   0.00000  Uiso   1.00
O1224  O     0.29275   0.57307   0.27302   0.00000  Uiso   1.00
O1225  O     0.42692   0.79275   0.72698   0.00000  Uiso   1.00
O1226  O     0.07307   0.70724   0.27302   0.00000  Uiso   1.00
O1227  O     0.29275   0.57307   0.72698   0.00000  Uiso   1.00
O1228  O     0.20724   0.92692   0.27302   0.00000  Uiso   1.00
O1229  O     0.07307   0.70724   0.72698   0.00000  Uiso   1.00
O1230  O     0.42692   0.79275   0.27302   0.00000  Uiso   1.00
O1231  O     0.45724   0.82307   0.77302   0.00000  Uiso   1.00
O1232  O     0.04275   0.67692   0.22698   0.00000  Uiso   1.00
O1233  O     0.17692   0.95724   0.77302   0.00000  Uiso   1.00
O1234  O     0.00000   0.75000   0.75000   0.00000  Uiso   1.00
O1235  O     0.32307   0.54275   0.22698   0.00000  Uiso   1.00
O1236  O     0.04275   0.67692   0.77302   0.00000  Uiso   1.00
O1237  O     0.45724   0.82307   0.22698   0.00000  Uiso   1.00
O1238  O     0.32307   0.54275   0.77302   0.00000  Uiso   1.00
O1239  O     0.17692   0.95724   0.22698   0.00000  Uiso   1.00
O1240  O     0.45724   0.67692   0.22698   0.00000  Uiso   1.00
O1241  O     0.04275   0.82307   0.77302   0.00000  Uiso   1.00
O1242  O     0.17692   0.54275   0.22698   0.00000  Uiso   1.00
O1243  O     0.32307   0.95724   0.77302   0.00000  Uiso   1.00
O1244  O     0.04275   0.82307   0.22698   0.00000  Uiso   1.00
O1245  O     0.25000   0.96963   0.33755   0.00000  Uiso   1.00
O1246  O     0.45724   0.67692   0.77302   0.00000  Uiso   1.00
O1247  O     0.32307   0.95724   0.22698   0.00000  Uiso   1.00
O1248  O     0.17692   0.54275   0.77302   0.00000  Uiso   1.00
O1249  O     0.00378   0.81560   0.39712   0.00000  Uiso   1.00
O1250  O     0.00276   0.68435   0.60288   0.00000  Uiso   1.00
O1251  O     0.18435   0.50278   0.39712   0.00000  Uiso   1.00
O1252  O     0.31560   0.50377   0.60287   0.00000  Uiso   1.00
O1253  O     0.49621   0.68440   0.39713   0.00000  Uiso   1.00
O1254  O     0.49724   0.81565   0.60288   0.00000  Uiso   1.00
O1255  O     0.31565   0.99722   0.39712   0.00000  Uiso   1.00
O1256  O     0.25000   0.53036   0.66245   0.00000  Uiso   1.00
O1257  O     0.18440   0.99623   0.60287   0.00000  Uiso   1.00
O1258  O     0.25380   0.56560   0.89713   0.00000  Uiso   1.00
O1259  O     0.25273   0.93435   0.10288   0.00000  Uiso   1.00
O1260  O     0.43435   0.75270   0.89712   0.00000  Uiso   1.00
O1261  O     0.06560   0.75384   0.10287   0.00000  Uiso   1.00
O1262  O     0.24620   0.93440   0.89713   0.00000  Uiso   1.00
O1263  O     0.24726   0.56565   0.10288   0.00000  Uiso   1.00
O1264  O     0.06565   0.74729   0.89712   0.00000  Uiso   1.00
O1265  O     0.43440   0.74616   0.10287   0.00000  Uiso   1.00
O1266  O     0.03036   0.75000   0.33755   0.00000  Uiso   1.00
O1267  O     0.46963   0.75000   0.66245   0.00000  Uiso   1.00
O1268  O     0.25000   0.53036   0.33755   0.00000  Uiso   1.00
Zn1269 Zn    0.20659   0.50000   0.21735   0.00000  Uiso   1.00
Zn1270 Zn    0.04340   0.75000   0.28265   0.00000  Uiso   1.00
Zn1271 Zn    0.25000   0.95659   0.71735   0.00000  Uiso   1.00
Zn1272 Zn    0.25000   0.54340   0.28265   0.00000  Uiso   1.00
Zn1273 Zn    0.04340   0.75000   0.71735   0.00000  Uiso   1.00
Zn1274 Zn    0.45659   0.75000   0.28265   0.00000  Uiso   1.00
Zn1275 Zn    0.25000   0.54340   0.71735   0.00000  Uiso   1.00
Zn1276 Zn    0.25000   0.95659   0.28265   0.00000  Uiso   1.00
Zn1277 Zn    0.29340   0.50000   0.78265   0.00000  Uiso   1.00
Zn1278 Zn    0.00000   0.70659   0.21735   0.00000  Uiso   1.00
Zn1279 Zn   -0.00000   0.79340   0.78265   0.00000  Uiso   1.00
Zn1280 Zn    0.29340   0.50000   0.21735   0.00000  Uiso   1.00
Zn1281 Zn    0.20659   0.50000   0.78265   0.00000  Uiso   1.00
Zn1282 Zn   -0.00000   0.79340   0.21735   0.00000  Uiso   1.00
Zn1283 Zn    0.00000   0.70659   0.78265   0.00000  Uiso   1.00
Zn1284 Zn    0.45659   0.75000   0.71735   0.00000  Uiso   1.00
C1285  C     0.50241   0.78329   0.41802   0.00000  Uiso   1.00
C1286  C     0.75187   0.96668   0.08199   0.00000  Uiso   1.00
C1287  C     0.71652   0.99902   0.54106   0.00000  Uiso   1.00
C1288  C     0.50099   0.78348   0.45894   0.00000  Uiso   1.00
C1289  C     0.50050   0.71651   0.54107   0.00000  Uiso   1.00
C1290  C     0.71650   0.50051   0.45893   0.00000  Uiso   1.00
C1291  C     0.78348   0.50098   0.54106   0.00000  Uiso   1.00
C1292  C     0.74900   0.96652   0.95894   0.00000  Uiso   1.00
C1293  C     0.74951   0.53350   0.04107   0.00000  Uiso   1.00
C1294  C     0.53350   0.74953   0.95893   0.00000  Uiso   1.00
C1295  C     0.96652   0.74898   0.04106   0.00000  Uiso   1.00
C1296  C     0.75100   0.53348   0.95894   0.00000  Uiso   1.00
C1297  C     0.96668   0.75185   0.91801   0.00000  Uiso   1.00
C1298  C     0.75049   0.96650   0.04107   0.00000  Uiso   1.00
C1299  C     0.96650   0.75047   0.95893   0.00000  Uiso   1.00
C1300  C     0.53348   0.75102   0.04106   0.00000  Uiso   1.00
C1301  C     0.59813   0.84813   0.25000   0.00000  Uiso   1.00
C1302  C     0.90186   0.65185   0.75000   0.00000  Uiso   1.00
C1303  C     0.65187   0.59813   0.25000   0.00000  Uiso   1.00
C1304  C     0.84814   0.90185   0.75000   0.00000  Uiso   1.00
C1305  C     0.90187   0.65187   0.25000   0.00000  Uiso   1.00
C1306  C     0.59814   0.84814   0.75000   0.00000  Uiso   1.00
C1307  C     0.84813   0.90187   0.25000   0.00000  Uiso   1.00
C1308  C     0.53329   0.75243   0.08198   0.00000  Uiso   1.00
C1309  C     0.65185   0.59815   0.75000   0.00000  Uiso   1.00
C1310  C     0.59813   0.65187   0.75000   0.00000  Uiso   1.00
C1311  C     0.90185   0.84814   0.25000   0.00000  Uiso   1.00
C1312  C     0.65187   0.90187   0.75000   0.00000  Uiso   1.00
C1313  C     0.84814   0.59814   0.25000   0.00000  Uiso   1.00
C1314  C     0.90187   0.84813   0.75000   0.00000  Uiso   1.00
C1315  C     0.59815   0.65185   0.25000   0.00000  Uiso   1.00
C1316  C     0.84813   0.59813   0.75000   0.00000  Uiso   1.00
C1317  C     0.65185   0.90185   0.25000   0.00000  Uiso   1.00
C1318  C     0.50000   0.75000   0.47945   0.00000  Uiso   1.00
C1319  C     0.74758   0.96671   0.91802   0.00000  Uiso   1.00
C1320  C     0.50000   0.75000   0.52056   0.00000  Uiso   1.00
C1321  C     0.75000   0.50000   0.47944   0.00000  Uiso   1.00
C1322  C     0.75000   0.50000   0.52055   0.00000  Uiso   1.00
C1323  C     0.75000   0.50000   0.97945   0.00000  Uiso   1.00
C1324  C     0.75000   0.50000   0.02056   0.00000  Uiso   1.00
C1325  C     0.50000   0.75000   0.97944   0.00000  Uiso   1.00
C1326  C     0.50000   0.75000   0.02055   0.00000  Uiso   1.00
C1327  C     0.54068   0.82569   0.39190   0.00000  Uiso   1.00
C1328  C     0.54283   0.85541   0.36073   0.00000  Uiso   1.00
C1329  C     0.58192   0.86868   0.35510   0.00000  Uiso   1.00
C1330  C     0.74813   0.53332   0.08199   0.00000  Uiso   1.00
C1331  C     0.53951   0.67380   0.60830   0.00000  Uiso   1.00
C1332  C     0.54117   0.64432   0.63975   0.00000  Uiso   1.00
C1333  C     0.58007   0.63061   0.64566   0.00000  Uiso   1.00
C1334  C     0.67381   0.53953   0.39170   0.00000  Uiso   1.00
C1335  C     0.64432   0.54121   0.36026   0.00000  Uiso   1.00
C1336  C     0.63063   0.58011   0.35436   0.00000  Uiso   1.00
C1337  C     0.82570   0.54067   0.60810   0.00000  Uiso   1.00
C1338  C     0.85541   0.54280   0.63927   0.00000  Uiso   1.00
C1339  C     0.86868   0.58189   0.64491   0.00000  Uiso   1.00
C1340  C     0.95931   0.67431   0.39190   0.00000  Uiso   1.00
C1341  C     0.53332   0.74815   0.91801   0.00000  Uiso   1.00
C1342  C     0.95716   0.64458   0.36076   0.00000  Uiso   1.00
C1343  C     0.91807   0.63133   0.35512   0.00000  Uiso   1.00
C1344  C     0.96050   0.82620   0.60830   0.00000  Uiso   1.00
C1345  C     0.95883   0.85567   0.63976   0.00000  Uiso   1.00
C1346  C     0.91993   0.86938   0.64567   0.00000  Uiso   1.00
C1347  C     0.82619   0.96047   0.39170   0.00000  Uiso   1.00
C1348  C     0.85568   0.95880   0.36026   0.00000  Uiso   1.00
C1349  C     0.86938   0.91990   0.35436   0.00000  Uiso   1.00
C1350  C     0.67430   0.95933   0.60810   0.00000  Uiso   1.00
C1351  C     0.64458   0.95719   0.63926   0.00000  Uiso   1.00
C1352  C     0.96671   0.74756   0.08198   0.00000  Uiso   1.00
C1353  C     0.63131   0.91810   0.64490   0.00000  Uiso   1.00
C1354  C     0.79071   0.57568   0.89190   0.00000  Uiso   1.00
C1355  C     0.79286   0.60540   0.86075   0.00000  Uiso   1.00
C1356  C     0.83195   0.61866   0.85512   0.00000  Uiso   1.00
C1357  C     0.78948   0.92379   0.10831   0.00000  Uiso   1.00
C1358  C     0.79113   0.89433   0.13978   0.00000  Uiso   1.00
C1359  C     0.83003   0.88059   0.14569   0.00000  Uiso   1.00
C1360  C     0.92377   0.78944   0.89168   0.00000  Uiso   1.00
C1361  C     0.89432   0.79108   0.86021   0.00000  Uiso   1.00
C1362  C     0.88058   0.82997   0.85429   0.00000  Uiso   1.00
C1363  C     0.50000   0.75000   0.39802   0.00000  Uiso   1.00
C1364  C     0.57567   0.79074   0.10809   0.00000  Uiso   1.00
C1365  C     0.60539   0.79291   0.13924   0.00000  Uiso   1.00
C1366  C     0.61864   0.83201   0.14485   0.00000  Uiso   1.00
C1367  C     0.70930   0.92431   0.89190   0.00000  Uiso   1.00
C1368  C     0.70715   0.89461   0.86073   0.00000  Uiso   1.00
C1369  C     0.66806   0.88134   0.85511   0.00000  Uiso   1.00
C1370  C     0.71052   0.57621   0.10831   0.00000  Uiso   1.00
C1371  C     0.70887   0.60569   0.13977   0.00000  Uiso   1.00
C1372  C     0.66997   0.61940   0.14569   0.00000  Uiso   1.00
C1373  C     0.57623   0.71056   0.89168   0.00000  Uiso   1.00
C1374  C     0.50000   0.75000   0.60199   0.00000  Uiso   1.00
C1375  C     0.60569   0.70892   0.86021   0.00000  Uiso   1.00
C1376  C     0.61942   0.67003   0.85429   0.00000  Uiso   1.00
C1377  C     0.92433   0.70926   0.10809   0.00000  Uiso   1.00
C1378  C     0.89460   0.70709   0.13924   0.00000  Uiso   1.00
C1379  C     0.88136   0.66799   0.14486   0.00000  Uiso   1.00
C1380  C     0.75000   0.50000   0.39801   0.00000  Uiso   1.00
C1381  C     0.50188   0.71668   0.58199   0.00000  Uiso   1.00
C1382  C     0.75000   0.50000   0.60198   0.00000  Uiso   1.00
C1383  C     0.75000   0.50000   0.89802   0.00000  Uiso   1.00
C1384  C     0.75000   0.50000   0.10199   0.00000  Uiso   1.00
C1385  C     0.50000   0.75000   0.89801   0.00000  Uiso   1.00
C1386  C     0.50000   0.75000   0.10198   0.00000  Uiso   1.00
C1387  C     0.99920   0.68356   0.47973   0.00000  Uiso   1.00
C1388  C     0.50014   0.81645   0.52028   0.00000  Uiso   1.00
C1389  C     0.81645   0.50013   0.47972   0.00000  Uiso   1.00
C1390  C     0.68356   0.99922   0.52027   0.00000  Uiso   1.00
C1391  C     0.50080   0.81644   0.47973   0.00000  Uiso   1.00
C1392  C     0.71668   0.50189   0.41801   0.00000  Uiso   1.00
C1393  C     0.99986   0.68355   0.52028   0.00000  Uiso   1.00
C1394  C     0.68355   0.99987   0.47972   0.00000  Uiso   1.00
C1395  C     0.81644   0.50078   0.52027   0.00000  Uiso   1.00
C1396  C     0.74919   0.93356   0.97973   0.00000  Uiso   1.00
C1397  C     0.75016   0.56645   0.02028   0.00000  Uiso   1.00
C1398  C     0.56645   0.75019   0.97972   0.00000  Uiso   1.00
C1399  C     0.93356   0.74916   0.02027   0.00000  Uiso   1.00
C1400  C     0.75081   0.56644   0.97973   0.00000  Uiso   1.00
C1401  C     0.74984   0.93355   0.02028   0.00000  Uiso   1.00
C1402  C     0.93355   0.74981   0.97972   0.00000  Uiso   1.00
C1403  C     0.78329   0.50240   0.58198   0.00000  Uiso   1.00
C1404  C     0.56644   0.75084   0.02027   0.00000  Uiso   1.00
C1405  C     0.75000   0.50000   0.35576   0.00000  Uiso   1.00
C1406  C     0.75000   0.50000   0.64424   0.00000  Uiso   1.00
C1407  C     0.50000   0.75000   0.35576   0.00000  Uiso   1.00
C1408  C     0.50000   0.75000   0.64424   0.00000  Uiso   1.00
C1409  C     0.50000   0.75000   0.85576   0.00000  Uiso   1.00
C1410  C     0.50000   0.75000   0.14424   0.00000  Uiso   1.00
C1411  C     0.75000   0.50000   0.85576   0.00000  Uiso   1.00
C1412  C     0.75000   0.50000   0.14424   0.00000  Uiso   1.00
C1413  C     0.67993   0.57007   0.25000   0.00000  Uiso   1.00
C1414  C     0.99759   0.71671   0.41802   0.00000  Uiso   1.00
C1415  C     0.82008   0.92992   0.75000   0.00000  Uiso   1.00
C1416  C     0.92993   0.67993   0.25000   0.00000  Uiso   1.00
C1417  C     0.57008   0.82008   0.75000   0.00000  Uiso   1.00
C1418  C     0.82007   0.92992   0.25000   0.00000  Uiso   1.00
C1419  C     0.67992   0.57008   0.75000   0.00000  Uiso   1.00
C1420  C     0.57007   0.82007   0.25000   0.00000  Uiso   1.00
C1421  C     0.92992   0.67992   0.75000   0.00000  Uiso   1.00
C1422  C     0.67993   0.92993   0.75000   0.00000  Uiso   1.00
C1423  C     0.82008   0.57008   0.25000   0.00000  Uiso   1.00
C1424  C     0.92992   0.82007   0.75000   0.00000  Uiso   1.00
C1425  C     0.99812   0.78332   0.58199   0.00000  Uiso   1.00
C1426  C     0.57008   0.67992   0.25000   0.00000  Uiso   1.00
C1427  C     0.82007   0.57007   0.75000   0.00000  Uiso   1.00
C1428  C     0.67992   0.92992   0.25000   0.00000  Uiso   1.00
C1429  C     0.57007   0.67993   0.75000   0.00000  Uiso   1.00
C1430  C     0.92992   0.82008   0.25000   0.00000  Uiso   1.00
C1431  C     0.61891   0.90781   0.23028   0.00000  Uiso   1.00
C1432  C     0.88113   0.59211   0.76957   0.00000  Uiso   1.00
C1433  C     0.59228   0.61899   0.23009   0.00000  Uiso   1.00
C1434  C     0.90780   0.88104   0.76977   0.00000  Uiso   1.00
C1435  C     0.88109   0.59219   0.23028   0.00000  Uiso   1.00
C1436  C     0.78332   0.99811   0.41801   0.00000  Uiso   1.00
C1437  C     0.61887   0.90789   0.76957   0.00000  Uiso   1.00
C1438  C     0.90772   0.88100   0.23008   0.00000  Uiso   1.00
C1439  C     0.59220   0.61895   0.76977   0.00000  Uiso   1.00
C1440  C     0.61900   0.59228   0.76992   0.00000  Uiso   1.00
C1441  C     0.88105   0.90780   0.23023   0.00000  Uiso   1.00
C1442  C     0.59220   0.88109   0.76973   0.00000  Uiso   1.00
C1443  C     0.90789   0.61887   0.23044   0.00000  Uiso   1.00
C1444  C     0.88100   0.90772   0.76992   0.00000  Uiso   1.00
C1445  C     0.61895   0.59220   0.23024   0.00000  Uiso   1.00
C1446  C     0.90780   0.61891   0.76973   0.00000  Uiso   1.00
C1447  C     0.71671   0.99760   0.58198   0.00000  Uiso   1.00
C1448  C     0.59211   0.88113   0.23043   0.00000  Uiso   1.00
C1449  C     0.86891   0.65780   0.73027   0.00000  Uiso   1.00
C1450  C     0.63113   0.84211   0.26957   0.00000  Uiso   1.00
C1451  C     0.84228   0.86900   0.73008   0.00000  Uiso   1.00
C1452  C     0.65780   0.63105   0.26976   0.00000  Uiso   1.00
C1453  C     0.63109   0.84220   0.73027   0.00000  Uiso   1.00
C1454  C     0.86887   0.65789   0.26957   0.00000  Uiso   1.00
C1455  C     0.65772   0.63100   0.73008   0.00000  Uiso   1.00
C1456  C     0.84220   0.86895   0.26977   0.00000  Uiso   1.00
C1457  C     0.86900   0.84228   0.26992   0.00000  Uiso   1.00
C1458  C     0.75242   0.53329   0.91802   0.00000  Uiso   1.00
C1459  C     0.63105   0.65780   0.73023   0.00000  Uiso   1.00
C1460  C     0.84219   0.63109   0.26972   0.00000  Uiso   1.00
C1461  C     0.65789   0.86887   0.73043   0.00000  Uiso   1.00
C1462  C     0.63101   0.65772   0.26991   0.00000  Uiso   1.00
C1463  C     0.86895   0.84220   0.73023   0.00000  Uiso   1.00
C1464  C     0.65781   0.86891   0.26972   0.00000  Uiso   1.00
C1465  C     0.84211   0.63113   0.73043   0.00000  Uiso   1.00
C1466  C     0.99901   0.71652   0.45894   0.00000  Uiso   1.00
C1467  C     0.99950   0.78349   0.54107   0.00000  Uiso   1.00
C1468  C     0.78349   0.99949   0.45893   0.00000  Uiso   1.00
H1469  H     0.99900   0.65755   0.46478   0.00000  Uiso   1.00
H1470  H     0.75032   0.59245   0.03524   0.00000  Uiso   1.00
H1471  H     0.65556   0.96759   0.66737   0.00000  Uiso   1.00
H1472  H     0.62113   0.97460   0.63056   0.00000  Uiso   1.00
H1473  H     0.61854   0.90782   0.61766   0.00000  Uiso   1.00
H1474  H     0.61074   0.91725   0.66865   0.00000  Uiso   1.00
H1475  H     0.65446   0.90008   0.65291   0.00000  Uiso   1.00
H1476  H     0.80783   0.55224   0.88217   0.00000  Uiso   1.00
H1477  H     0.80204   0.58647   0.91971   0.00000  Uiso   1.00
H1478  H     0.78247   0.59442   0.83263   0.00000  Uiso   1.00
H1479  H     0.77545   0.62885   0.86945   0.00000  Uiso   1.00
H1480  H     0.84223   0.63143   0.88236   0.00000  Uiso   1.00
H1481  H     0.59245   0.75036   0.96476   0.00000  Uiso   1.00
H1482  H     0.83281   0.63924   0.83136   0.00000  Uiso   1.00
H1483  H     0.84998   0.59551   0.84712   0.00000  Uiso   1.00
H1484  H     0.80694   0.94706   0.11785   0.00000  Uiso   1.00
H1485  H     0.80069   0.91259   0.08063   0.00000  Uiso   1.00
H1486  H     0.78081   0.90570   0.16775   0.00000  Uiso   1.00
H1487  H     0.77343   0.87103   0.13127   0.00000  Uiso   1.00
H1488  H     0.84021   0.86743   0.11862   0.00000  Uiso   1.00
H1489  H     0.83054   0.86024   0.16966   0.00000  Uiso   1.00
H1490  H     0.84834   0.90357   0.15350   0.00000  Uiso   1.00
H1491  H     0.94704   0.80691   0.88215   0.00000  Uiso   1.00
H1492  H     0.90755   0.74894   0.03523   0.00000  Uiso   1.00
H1493  H     0.91256   0.80065   0.91936   0.00000  Uiso   1.00
H1494  H     0.90570   0.78076   0.83225   0.00000  Uiso   1.00
H1495  H     0.87102   0.77338   0.86873   0.00000  Uiso   1.00
H1496  H     0.90356   0.84829   0.84646   0.00000  Uiso   1.00
H1497  H     0.86742   0.84016   0.88135   0.00000  Uiso   1.00
H1498  H     0.86022   0.83048   0.83031   0.00000  Uiso   1.00
H1499  H     0.55222   0.80786   0.11783   0.00000  Uiso   1.00
H1500  H     0.58645   0.80207   0.08027   0.00000  Uiso   1.00
H1501  H     0.59442   0.78252   0.16736   0.00000  Uiso   1.00
H1502  H     0.62885   0.77551   0.13053   0.00000  Uiso   1.00
H1503  H     0.75102   0.59245   0.96477   0.00000  Uiso   1.00
H1504  H     0.63141   0.84228   0.11761   0.00000  Uiso   1.00
H1505  H     0.63922   0.83288   0.16860   0.00000  Uiso   1.00
H1506  H     0.59549   0.85003   0.15286   0.00000  Uiso   1.00
H1507  H     0.69217   0.94776   0.88218   0.00000  Uiso   1.00
H1508  H     0.69797   0.91351   0.91971   0.00000  Uiso   1.00
H1509  H     0.71752   0.90561   0.83262   0.00000  Uiso   1.00
H1510  H     0.72456   0.87116   0.86941   0.00000  Uiso   1.00
H1511  H     0.65780   0.86854   0.88235   0.00000  Uiso   1.00
H1512  H     0.66719   0.86078   0.83134   0.00000  Uiso   1.00
H1513  H     0.65002   0.90448   0.84713   0.00000  Uiso   1.00
H1514  H     0.74968   0.90755   0.03524   0.00000  Uiso   1.00
H1515  H     0.69307   0.55294   0.11786   0.00000  Uiso   1.00
H1516  H     0.69930   0.58740   0.08063   0.00000  Uiso   1.00
H1517  H     0.71920   0.59432   0.16773   0.00000  Uiso   1.00
H1518  H     0.72655   0.62898   0.13123   0.00000  Uiso   1.00
H1519  H     0.65977   0.63254   0.11861   0.00000  Uiso   1.00
H1520  H     0.66946   0.63977   0.16965   0.00000  Uiso   1.00
H1521  H     0.65167   0.59642   0.15353   0.00000  Uiso   1.00
H1522  H     0.55296   0.69309   0.88215   0.00000  Uiso   1.00
H1523  H     0.58744   0.69935   0.91936   0.00000  Uiso   1.00
H1524  H     0.59431   0.71924   0.83225   0.00000  Uiso   1.00
H1525  H     0.90755   0.74964   0.96476   0.00000  Uiso   1.00
H1526  H     0.62898   0.72662   0.86873   0.00000  Uiso   1.00
H1527  H     0.63258   0.65983   0.88135   0.00000  Uiso   1.00
H1528  H     0.63978   0.66952   0.83031   0.00000  Uiso   1.00
H1529  H     0.59644   0.65172   0.84646   0.00000  Uiso   1.00
H1530  H     0.94778   0.69215   0.11784   0.00000  Uiso   1.00
H1531  H     0.91356   0.69792   0.08028   0.00000  Uiso   1.00
H1532  H     0.90557   0.71748   0.16736   0.00000  Uiso   1.00
H1533  H     0.87115   0.72449   0.13053   0.00000  Uiso   1.00
H1534  H     0.86860   0.65771   0.11761   0.00000  Uiso   1.00
H1535  H     0.86078   0.66712   0.16861   0.00000  Uiso   1.00
H1536  H     0.59245   0.75106   0.03522   0.00000  Uiso   1.00
H1537  H     0.90451   0.64998   0.15287   0.00000  Uiso   1.00
H1538  H     0.61373   0.93313   0.21499   0.00000  Uiso   1.00
H1539  H     0.88635   0.56673   0.78474   0.00000  Uiso   1.00
H1540  H     0.56702   0.61387   0.21465   0.00000  Uiso   1.00
H1541  H     0.50030   0.84245   0.53524   0.00000  Uiso   1.00
H1542  H     0.93311   0.88620   0.78510   0.00000  Uiso   1.00
H1543  H     0.88628   0.56687   0.21500   0.00000  Uiso   1.00
H1544  H     0.61365   0.93326   0.78474   0.00000  Uiso   1.00
H1545  H     0.93297   0.88612   0.21464   0.00000  Uiso   1.00
H1546  H     0.56689   0.61380   0.78510   0.00000  Uiso   1.00
H1547  H     0.61388   0.56702   0.78536   0.00000  Uiso   1.00
H1548  H     0.88620   0.93311   0.21490   0.00000  Uiso   1.00
H1549  H     0.56687   0.88627   0.78502   0.00000  Uiso   1.00
H1550  H     0.93327   0.61364   0.21527   0.00000  Uiso   1.00
H1551  H     0.88612   0.93297   0.78536   0.00000  Uiso   1.00
H1552  H     0.84245   0.50027   0.46476   0.00000  Uiso   1.00
H1553  H     0.61379   0.56689   0.21491   0.00000  Uiso   1.00
H1554  H     0.93313   0.61373   0.78502   0.00000  Uiso   1.00
H1555  H     0.56673   0.88636   0.21526   0.00000  Uiso   1.00
H1556  H     0.86373   0.68313   0.71498   0.00000  Uiso   1.00
H1557  H     0.63636   0.81673   0.28474   0.00000  Uiso   1.00
H1558  H     0.81703   0.86388   0.71464   0.00000  Uiso   1.00
H1559  H     0.68311   0.63621   0.28509   0.00000  Uiso   1.00
H1560  H     0.63627   0.81687   0.71498   0.00000  Uiso   1.00
H1561  H     0.86364   0.68327   0.28473   0.00000  Uiso   1.00
H1562  H     0.68298   0.63612   0.71464   0.00000  Uiso   1.00
H1563  H     0.65755   0.99903   0.53523   0.00000  Uiso   1.00
H1564  H     0.81689   0.86379   0.28510   0.00000  Uiso   1.00
H1565  H     0.86388   0.81702   0.28536   0.00000  Uiso   1.00
H1566  H     0.63620   0.68311   0.71490   0.00000  Uiso   1.00
H1567  H     0.81687   0.63627   0.28501   0.00000  Uiso   1.00
H1568  H     0.68326   0.86365   0.71525   0.00000  Uiso   1.00
H1569  H     0.63613   0.68298   0.28535   0.00000  Uiso   1.00
H1570  H     0.86380   0.81689   0.71490   0.00000  Uiso   1.00
H1571  H     0.68313   0.86373   0.28501   0.00000  Uiso   1.00
H1572  H     0.81673   0.63635   0.71526   0.00000  Uiso   1.00
H1573  H     0.55781   0.80225   0.38217   0.00000  Uiso   1.00
H1574  H     0.50099   0.84245   0.46477   0.00000  Uiso   1.00
H1575  H     0.55201   0.83649   0.41971   0.00000  Uiso   1.00
H1576  H     0.53244   0.84441   0.33262   0.00000  Uiso   1.00
H1577  H     0.52541   0.87885   0.36943   0.00000  Uiso   1.00
H1578  H     0.59219   0.88146   0.38234   0.00000  Uiso   1.00
H1579  H     0.58277   0.88924   0.33134   0.00000  Uiso   1.00
H1580  H     0.59995   0.84553   0.34711   0.00000  Uiso   1.00
H1581  H     0.55696   0.69707   0.61785   0.00000  Uiso   1.00
H1582  H     0.55072   0.66262   0.58062   0.00000  Uiso   1.00
H1583  H     0.53084   0.65568   0.66772   0.00000  Uiso   1.00
H1584  H     0.52349   0.62102   0.63122   0.00000  Uiso   1.00
H1585  H     0.99970   0.65755   0.53524   0.00000  Uiso   1.00
H1586  H     0.59027   0.61748   0.61858   0.00000  Uiso   1.00
H1587  H     0.58060   0.61024   0.66962   0.00000  Uiso   1.00
H1588  H     0.59837   0.65360   0.65350   0.00000  Uiso   1.00
H1589  H     0.69709   0.55697   0.38214   0.00000  Uiso   1.00
H1590  H     0.66264   0.55075   0.41939   0.00000  Uiso   1.00
H1591  H     0.65566   0.53087   0.33229   0.00000  Uiso   1.00
H1592  H     0.62102   0.52354   0.36881   0.00000  Uiso   1.00
H1593  H     0.61752   0.59032   0.38144   0.00000  Uiso   1.00
H1594  H     0.61024   0.58064   0.33041   0.00000  Uiso   1.00
H1595  H     0.65362   0.59839   0.34650   0.00000  Uiso   1.00
H1596  H     0.65755   0.99973   0.46476   0.00000  Uiso   1.00
H1597  H     0.80226   0.55780   0.61783   0.00000  Uiso   1.00
H1598  H     0.83650   0.55199   0.58029   0.00000  Uiso   1.00
H1599  H     0.84442   0.53242   0.66738   0.00000  Uiso   1.00
H1600  H     0.87886   0.52539   0.63058   0.00000  Uiso   1.00
H1601  H     0.88147   0.59217   0.61767   0.00000  Uiso   1.00
H1602  H     0.88925   0.58274   0.66867   0.00000  Uiso   1.00
H1603  H     0.84554   0.59993   0.65290   0.00000  Uiso   1.00
H1604  H     0.94219   0.69775   0.38215   0.00000  Uiso   1.00
H1605  H     0.94797   0.66353   0.41972   0.00000  Uiso   1.00
H1606  H     0.96757   0.65555   0.33264   0.00000  Uiso   1.00
H1607  H     0.84245   0.50097   0.53523   0.00000  Uiso   1.00
H1608  H     0.97456   0.62113   0.36948   0.00000  Uiso   1.00
H1609  H     0.90777   0.61858   0.38236   0.00000  Uiso   1.00
H1610  H     0.91721   0.61074   0.33137   0.00000  Uiso   1.00
H1611  H     0.90005   0.65448   0.34709   0.00000  Uiso   1.00
H1612  H     0.94304   0.80292   0.61785   0.00000  Uiso   1.00
H1613  H     0.94928   0.83739   0.58062   0.00000  Uiso   1.00
H1614  H     0.96916   0.84431   0.66773   0.00000  Uiso   1.00
H1615  H     0.97652   0.87897   0.63124   0.00000  Uiso   1.00
H1616  H     0.90974   0.88252   0.61859   0.00000  Uiso   1.00
H1617  H     0.91941   0.88975   0.66963   0.00000  Uiso   1.00
H1618  H     0.74898   0.90755   0.96477   0.00000  Uiso   1.00
H1619  H     0.90163   0.84640   0.65350   0.00000  Uiso   1.00
H1620  H     0.80292   0.94303   0.38214   0.00000  Uiso   1.00
H1621  H     0.83736   0.94925   0.41939   0.00000  Uiso   1.00
H1622  H     0.84434   0.96914   0.33229   0.00000  Uiso   1.00
H1623  H     0.87898   0.97648   0.36881   0.00000  Uiso   1.00
H1624  H     0.88250   0.90969   0.38144   0.00000  Uiso   1.00
H1625  H     0.88976   0.91937   0.33041   0.00000  Uiso   1.00
H1626  H     0.84639   0.90161   0.34650   0.00000  Uiso   1.00
H1627  H     0.69774   0.94220   0.61784   0.00000  Uiso   1.00
H1628  H     0.66351   0.94800   0.58029   0.00000  Uiso   1.00
O1629  O     0.75000   0.50000   0.25000   0.00000  Uiso   1.00
O1630  O     0.75000   0.96963   0.66245   0.00000  Uiso   1.00
O1631  O     0.96963   0.75000   0.33755   0.00000  Uiso   1.00
O1632  O     0.53036   0.75000   0.66245   0.00000  Uiso   1.00
O1633  O     0.50000   0.71963   0.83755   0.00000  Uiso   1.00
O1634  O     0.50000   0.78036   0.16245   0.00000  Uiso   1.00
O1635  O     0.78036   0.50000   0.83755   0.00000  Uiso   1.00
O1636  O     0.71963   0.50000   0.16245   0.00000  Uiso   1.00
O1637  O     0.50000   0.78036   0.83755   0.00000  Uiso   1.00
O1638  O     0.50000   0.71963   0.16245   0.00000  Uiso   1.00
O1639  O     0.71963   0.50000   0.83755   0.00000  Uiso   1.00
O1640  O     0.75000   0.50000   0.75000   0.00000  Uiso   1.00
O1641  O     0.78036   0.50000   0.16245   0.00000  Uiso   1.00
O1642  O     0.70724   0.57307   0.27302   0.00000  Uiso   1.00
O1643  O     0.79275   0.92692   0.72698   0.00000  Uiso   1.00
O1644  O     0.92692   0.70724   0.27302   0.00000  Uiso   1.00
O1645  O     0.57307   0.79275   0.72698   0.00000  Uiso   1.00
O1646  O     0.79275   0.92692   0.27302   0.00000  Uiso   1.00
O1647  O     0.70724   0.57307   0.72698   0.00000  Uiso   1.00
O1648  O     0.57307   0.79275   0.27302   0.00000  Uiso   1.00
O1649  O     0.92692   0.70724   0.72698   0.00000  Uiso   1.00
O1650  O     0.70724   0.92692   0.72698   0.00000  Uiso   1.00
O1651  O     0.50000   0.75000   0.25000   0.00000  Uiso   1.00
O1652  O     0.79275   0.57307   0.27302   0.00000  Uiso   1.00
O1653  O     0.92692   0.79275   0.72698   0.00000  Uiso   1.00
O1654  O     0.57307   0.70724   0.27302   0.00000  Uiso   1.00
O1655  O     0.79275   0.57307   0.72698   0.00000  Uiso   1.00
O1656  O     0.70724   0.92692   0.27302   0.00000  Uiso   1.00
O1657  O     0.57307   0.70724   0.72698   0.00000  Uiso   1.00
O1658  O     0.92692   0.79275   0.27302   0.00000  Uiso   1.00
O1659  O     0.95724   0.82307   0.77302   0.00000  Uiso   1.00
O1660  O     0.54275   0.67692   0.22698   0.00000  Uiso   1.00
O1661  O     0.67692   0.95724   0.77302   0.00000  Uiso   1.00
O1662  O     0.50000   0.75000   0.75000   0.00000  Uiso   1.00
O1663  O     0.82307   0.54275   0.22698   0.00000  Uiso   1.00
O1664  O     0.54275   0.67692   0.77302   0.00000  Uiso   1.00
O1665  O     0.95724   0.82307   0.22698   0.00000  Uiso   1.00
O1666  O     0.82307   0.54275   0.77302   0.00000  Uiso   1.00
O1667  O     0.67692   0.95724   0.22698   0.00000  Uiso   1.00
O1668  O     0.95724   0.67692   0.22698   0.00000  Uiso   1.00
O1669  O     0.54275   0.82307   0.77302   0.00000  Uiso   1.00
O1670  O     0.67692   0.54275   0.22698   0.00000  Uiso   1.00
O1671  O     0.82307   0.95724   0.77302   0.00000  Uiso   1.00
O1672  O     0.54275   0.82307   0.22698   0.00000  Uiso   1.00
O1673  O     0.75000   0.96963   0.33755   0.00000  Uiso   1.00
O1674  O     0.95724   0.67692   0.77302   0.00000  Uiso   1.00
O1675  O     0.82307   0.95724   0.22698   0.00000  Uiso   1.00
O1676  O     0.67692   0.54275   0.77302   0.00000  Uiso   1.00
O1677  O     0.50378   0.81560   0.39712   0.00000  Uiso   1.00
O1678  O     0.50276   0.68435   0.60288   0.00000  Uiso   1.00
O1679  O     0.68435   0.50278   0.39712   0.00000  Uiso   1.00
O1680  O     0.81560   0.50377   0.60287   0.00000  Uiso   1.00
O1681  O     0.99621   0.68440   0.39713   0.00000  Uiso   1.00
O1682  O     0.99724   0.81565   0.60288   0.00000  Uiso   1.00
O1683  O     0.81565   0.99722   0.39712   0.00000  Uiso   1.00
O1684  O     0.75000   0.53036   0.66245   0.00000  Uiso   1.00
O1685  O     0.68440   0.99623   0.60287   0.00000  Uiso   1.00
O1686  O     0.75380   0.56560   0.89713   0.00000  Uiso   1.00
O1687  O     0.75273   0.93435   0.10288   0.00000  Uiso   1.00
O1688  O     0.93435   0.75270   0.89712   0.00000  Uiso   1.00
O1689  O     0.56560   0.75384   0.10287   0.00000  Uiso   1.00
O1690  O     0.74620   0.93440   0.89713   0.00000  Uiso   1.00
O1691  O     0.74726   0.56565   0.10288   0.00000  Uiso   1.00
O1692  O     0.56565   0.74729   0.89712   0.00000  Uiso   1.00
O1693  O     0.93440   0.74616   0.10287   0.00000  Uiso   1.00
O1694  O     0.53036   0.75000   0.33755   0.00000  Uiso   1.00
O1695  O     0.96963   0.75000   0.66245   0.00000  Uiso   1.00
O1696  O     0.75000   0.53036   0.33755   0.00000  Uiso   1.00
Zn1697 Zn    0.70659   0.50000   0.21735   0.00000  Uiso   1.00
Zn1698 Zn    0.54340   0.75000   0.28265   0.00000  Uiso   1.00
Zn1699 Zn    0.75000   0.95659   0.71735   0.00000  Uiso   1.00
Zn1700 Zn    0.75000   0.54340   0.28265   0.00000  Uiso   1.00
Zn1701 Zn    0.54340   0.75000   0.71735   0.00000  Uiso   1.00
Zn1702 Zn    0.95659   0.75000   0.28265   0.00000  Uiso   1.00
Zn1703 Zn    0.75000   0.54340   0.71735   0.00000  Uiso   1.00
Zn1704 Zn    0.75000   0.95659   0.28265   0.00000  Uiso   1.00
Zn1705 Zn    0.79340   0.50000   0.78265   0.00000  Uiso   1.00
Zn1706 Zn    0.50000   0.70659   0.21735   0.00000  Uiso   1.00
Zn1707 Zn    0.50000   0.79340   0.78265   0.00000  Uiso   1.00
Zn1708 Zn    0.79340   0.50000   0.21735   0.00000  Uiso   1.00
Zn1709 Zn    0.70659   0.50000   0.78265   0.00000  Uiso   1.00
Zn1710 Zn    0.50000   0.79340   0.21735   0.00000  Uiso   1.00
Zn1711 Zn    0.50000   0.70659   0.78265   0.00000  Uiso   1.00
Zn1712 Zn    0.95659   0.75000   0.71735   0.00000  Uiso   1.00
loop_
_geom_bond_atom_site_label_1
_geom_bond_atom_site_label_2
_geom_bond_distance
_geom_bond_site_symmetry_2
_ccdc_geom_bond_type
C1     O393    1.386   .     S
C1     C4      1.404   .     A
C1     C79     1.403   .     S
C2     C14     1.404   .     A
C2     O403    1.385   .     S
C2     C956    1.403   .     S
C3     C163    1.404   .     A
C3     C106    1.403   .     A
C3     C894    1.415   .     S
C4     C107    1.403   .     A
C4     C34     1.415   .     S
C5     C36     1.415   .     A
C5     C97     1.404   .     A
C5     C537    1.403   1_455 S
C6     C108    1.404   .     A
C6     C37     1.415   .     S
C6     C966    1.403   1_545 S
C7     C119    1.404   .     A
C7     C111    1.403   .     A
C7     C38     1.415   .     A
C8     C35     1.404   .     A
C8     C112    1.403   .     A
C8     C895    1.415   .     S
C9     C46     1.404   .     A
C9     C40     1.415   .     A
C9     C113    1.403   .     A
C10    C41     1.415   .     A
C10    C114    1.403   .     A
C10    C57     1.404   .     A
C11    C115    1.403   .     A
C11    C68     1.404   .     A
C11    C470    1.415   .     S
C12    C174    1.404   .     A
C12    C116    1.403   .     A
C12    C39     1.415   .     A
C13    O404    1.385   .     S
C13    C15     1.404   .     A
C13    C529    1.403   .     A
C14    C117    1.403   .     A
C14    C896    1.415   .     S
C15    C118    1.403   .     A
C15    C469    1.415   .     S
C16    C120    1.403   .     A
C16    C24     1.404   .     A
C16    C42     1.415   .     A
C17    C164    1.401   .     A
C17    C166    1.401   .     A
C17    C136    1.455   .     S
C18    C137    1.455   .     S
C18    C165    1.401   .     A
C18    C162    1.401   .     A
C19    C129    1.455   .     S
C19    C161    1.401   .     A
C19    C168    1.401   .     A
C20    C160    1.401   .     A
C20    C167    1.401   .     A
C20    C131    1.455   .     S
C21    C170    1.401   .     A
C21    C159    1.401   .     A
C21    C132    1.455   .     S
C22    C133    1.455   .     S
C22    C158    1.401   .     A
C22    C169    1.401   .     A
C23    C134    1.455   .     S
C23    C157    1.401   .     A
C23    C172    1.401   .     A
C24    C102    1.403   .     A
C24    O405    1.386   .     S
C25    C171    1.401   .     A
C25    C135    1.455   .     S
C25    C156    1.401   .     A
C26    C145    1.455   .     S
C26    C155    1.401   .     A
C26    C175    1.401   .     A
C27    C154    1.401   .     A
C27    C146    1.455   .     S
C27    C173    1.401   .     A
C28    C153    1.401   .     A
C28    C177    1.401   .     A
C28    C138    1.455   .     S
C29    C139    1.455   .     S
C29    C151    1.401   .     A
C29    C176    1.401   .     A
C30    C150    1.401   .     A
C30    C179    1.401   .     A
C30    C140    1.455   .     S
C31    C178    1.401   .     A
C31    C149    1.401   .     A
C31    C142    1.455   .     S
C32    C181    1.401   .     A
C32    C148    1.401   .     A
C32    C143    1.455   .     S
C33    C147    1.401   .     A
C33    C144    1.455   .     S
C33    C180    1.401   .     A
C34    C610    1.415   1_455 A
C34    C36     1.410   .     S
C35    O406    1.385   .     S
C35    C955    1.403   .     S
C36    C611    1.415   1_455 S
C37    C1040   1.415   1_545 A
C37    C38     1.410   .     S
C38    C859    1.415   1_545 S
C39    C864    1.415   1_545 S
C39    C40     1.410   1_556 S
C40    C870    1.415   1_545 S
C40    C39     1.410   1_554 S
C41    C443    1.415   1_455 S
C41    C42     1.410   1_556 S
C42    C439    1.415   1_455 S
C42    C41     1.410   1_554 S
C43    C44     1.528   .     S
C43    H291    1.113   .     S
C43    O393    1.414   .     S
C43    H289    1.116   .     S
C44    C45     1.526   .     S
C44    H293    1.112   .     S
C44    H292    1.112   .     S
C45    H294    1.111   .     S
C45    H295    1.111   .     S
C45    H296    1.110   .     S
C46    C100    1.403   .     A
C46    O407    1.385   .     S
C47    O394    1.414   .     S
C47    H298    1.113   .     S
C47    H297    1.116   .     S
C47    C48     1.528   .     S
C48    H300    1.112   .     S
C48    C49     1.526   .     S
C48    H299    1.112   .     S
C49    H302    1.111   .     S
C49    H304    1.110   .     S
C49    H303    1.111   .     S
C50    H305    1.116   .     S
C50    H306    1.113   .     S
C50    C51     1.528   .     S
C50    O395    1.414   .     S
C51    C52     1.526   .     S
C51    H308    1.112   .     S
C51    H307    1.112   .     S
C52    H310    1.111   .     S
C52    H309    1.111   .     S
C52    H311    1.110   .     S
C53    O396    1.414   .     S
C53    C54     1.528   .     S
C53    H314    1.113   .     S
C53    H313    1.116   .     S
C54    H316    1.112   .     S
C54    C55     1.526   .     S
C54    H315    1.112   .     S
C55    H318    1.111   .     S
C55    H317    1.111   .     S
C55    H319    1.110   .     S
C56    H321    1.113   .     S
C56    C58     1.528   .     S
C56    O397    1.414   .     S
C56    H320    1.116   .     S
C57    O408    1.385   .     S
C57    C101    1.403   .     S
C58    H324    1.112   .     S
C58    H322    1.112   .     S
C58    C59     1.526   .     S
C59    H326    1.111   .     S
C59    H327    1.110   .     S
C59    H325    1.111   .     S
C60    H328    1.116   .     S
C60    C61     1.528   .     S
C60    H329    1.113   .     S
C60    O398    1.414   .     S
C61    H331    1.112   .     S
C61    C62     1.526   .     S
C61    H330    1.112   .     S
C62    H332    1.111   .     S
C62    H335    1.110   .     S
C62    H333    1.111   .     S
C63    O399    1.414   .     S
C63    H337    1.113   .     S
C63    C64     1.528   .     S
C63    H336    1.116   .     S
C64    H339    1.112   .     S
C64    H338    1.112   .     S
C64    C65     1.526   .     S
C65    H342    1.110   .     S
C65    H341    1.111   .     S
C65    H340    1.111   .     S
C66    C67     1.528   .     S
C66    O401    1.414   .     S
C66    H343    1.116   .     S
C66    H344    1.113   .     S
C67    H187    1.112   .     S
C67    H188    1.112   .     S
C67    C69     1.526   .     S
C68    O409    1.385   .     S
C68    C530    1.403   .     S
C69    H191    1.110   .     S
C69    H190    1.111   .     S
C69    H189    1.111   .     S
C70    H192    1.116   .     S
C70    H193    1.113   .     S
C70    O402    1.414   .     S
C70    C71     1.528   .     S
C71    H194    1.112   .     S
C71    H195    1.112   .     S
C71    C72     1.526   .     S
C72    H196    1.111   .     S
C72    H199    1.110   .     S
C72    H198    1.111   .     S
C73    H201    1.113   .     S
C73    O403    1.414   .     S
C73    C74     1.528   .     S
C73    H200    1.116   .     S
C74    H203    1.112   .     S
C74    H202    1.112   .     S
C74    C75     1.526   .     S
C75    H205    1.111   .     S
C75    H206    1.110   .     S
C75    H204    1.111   .     S
C76    H209    1.113   .     S
C76    O404    1.414   .     S
C76    H207    1.116   .     S
C76    C77     1.528   .     S
C77    H210    1.112   .     S
C77    C78     1.526   .     S
C77    H211    1.112   .     S
C78    H214    1.111   .     S
C78    H212    1.110   .     S
C78    H213    1.111   .     S
C79    C558    1.403   1_455 A
C79    C123    1.449   .     S
C80    H216    1.113   .     S
C80    H215    1.116   .     S
C80    C81     1.528   .     S
C80    O405    1.414   .     S
C81    H217    1.112   .     S
C81    C82     1.526   .     S
C81    H218    1.112   .     S
C82    H222    1.110   .     S
C82    H220    1.111   .     S
C82    H221    1.111   .     S
C83    H223    1.116   .     S
C83    C84     1.528   .     S
C83    O406    1.414   .     S
C83    H224    1.113   .     S
C84    H225    1.112   .     S
C84    C85     1.526   .     S
C84    H226    1.112   .     S
C85    H229    1.110   .     S
C85    H228    1.111   .     S
C85    H227    1.111   .     S
C86    H231    1.116   .     S
C86    O407    1.414   .     S
C86    H232    1.113   .     S
C86    C87     1.528   .     S
C87    H233    1.112   .     S
C87    C88     1.526   .     S
C87    H234    1.112   .     S
C88    H235    1.111   .     S
C88    H237    1.110   .     S
C88    H236    1.111   .     S
C89    H238    1.116   .     S
C89    C91     1.528   .     S
C89    H239    1.113   .     S
C89    O408    1.414   .     S
C90    C97     1.403   .     A
C90    C124    1.449   .     S
C90    C569    1.403   1_455 S
C91    C92     1.526   .     S
C91    H240    1.112   .     S
C91    H242    1.112   .     S
C92    H243    1.111   .     S
C92    H245    1.110   .     S
C92    H244    1.111   .     S
C93    H247    1.113   .     S
C93    O409    1.414   .     S
C93    H246    1.116   .     S
C93    C94     1.528   .     S
C94    H248    1.112   .     S
C94    C95     1.526   .     S
C94    H249    1.112   .     S
C95    H253    1.110   .     S
C95    H250    1.111   .     S
C95    H251    1.111   .     S
C96    C121    1.449   .     S
C96    C1008   1.403   1_545 A
C96    C108    1.403   .     S
C97    O394    1.385   .     S
C98    C122    1.449   .     S
C98    C119    1.403   .     A
C98    C1019   1.403   1_545 S
C99    C174    1.403   .     A
C99    C127    1.449   .     S
C99    C891    1.403   1_545 S
C100   C128    1.449   .     S
C100   C858    1.403   1_545 S
C101   C125    1.449   .     S
C101   C441    1.403   1_455 A
C102   C126    1.449   .     S
C102   C496    1.403   1_455 S
C103   H185    1.083   .     S
C103   C109    1.390   .     A
C103   C182    1.403   .     A
C104   C107    1.390   .     A
C104   H257    1.083   .     S
C104   C611    1.403   1_455 S
C105   H268    1.083   .     S
C105   C111    1.390   .     A
C105   C1040   1.403   1_545 S
C106   H279    1.083   .     S
C106   C110    1.390   .     A
C107   H290    1.083   .     S
C108   O395    1.385   .     S
C109   H301    1.083   .     S
C109   C433    1.403   .     S
C110   H312    1.083   .     S
C110   C862    1.403   .     S
C111   H323    1.083   .     S
C112   H334    1.083   .     S
C112   C117    1.390   1_556 S
C113   H186    1.083   .     S
C113   C116    1.390   1_554 S
C114   H197    1.083   .     S
C114   C120    1.390   1_556 S
C115   H208    1.083   .     S
C115   C118    1.390   1_554 S
C116   H219    1.083   .     S
C116   C113    1.390   1_556 S
C117   H230    1.083   .     S
C117   C112    1.390   1_554 S
C118   H241    1.083   .     S
C118   C115    1.390   1_556 S
C119   O396    1.385   .     S
C120   H252    1.083   .     S
C120   C114    1.390   1_554 S
C121   O1245   1.276   1_545 A
C121   O412    1.276   .     S
C122   O400    1.276   .     A
C122   O1202   1.276   1_545 S
C123   O775    1.276   1_455 A
C123   O410    1.276   .     S
C124   O348    1.276   .     A
C124   O839    1.276   1_455 S
C125   O349    1.276   .     A
C125   O353    1.276   .     A
C126   O350    1.277   .     A
C126   O354    1.276   .     S
C127   O351    1.276   .     A
C127   O355    1.276   .     A
C128   O352    1.276   .     A
C128   O357    1.276   .     A
C129   O386    1.280   .     A
C129   O358    1.280   .     A
C130   C507    1.403   .     A
C130   O397    1.385   .     S
C130   C182    1.404   .     A
C131   O387    1.280   .     A
C131   O359    1.280   .     A
C132   O360    1.280   .     A
C132   O384    1.280   .     A
C133   O385    1.280   .     A
C133   O361    1.280   .     A
C134   O391    1.280   .     A
C134   O362    1.280   .     A
C135   O363    1.280   .     A
C135   O392    1.280   .     A
C136   O388    1.280   .     A
C136   O364    1.280   .     A
C137   O390    1.280   .     A
C137   O365    1.280   .     A
C138   O366    1.280   .     A
C138   O377    1.280   .     A
C139   O379    1.280   .     A
C139   O368    1.280   .     A
C140   O375    1.280   .     A
C140   O369    1.280   .     A
C141   C183    1.404   .     A
C141   O398    1.385   .     S
C141   C518    1.403   .     S
C142   O370    1.280   .     A
C142   O376    1.280   .     A
C143   O371    1.280   .     A
C143   O382    1.280   .     A
C144   O383    1.280   .     A
C144   O372    1.280   .     A
C145   O380    1.280   .     A
C145   O373    1.280   .     A
C146   O374    1.280   .     A
C146   O381    1.280   .     A
C147   C164    1.386   .     A
C147   H254    1.083   .     S
C148   C162    1.386   .     A
C148   H255    1.083   .     S
C149   H256    1.083   .     S
C149   C161    1.386   .     A
C150   C160    1.386   .     A
C150   H258    1.083   .     S
C151   H259    1.083   .     S
C151   C159    1.386   .     A
C152   C952    1.403   .     A
C152   O399    1.385   .     S
C152   C184    1.404   .     A
C153   C158    1.386   .     A
C153   H260    1.083   .     S
C154   H261    1.083   .     S
C154   C157    1.386   .     A
C155   C156    1.386   .     A
C155   H262    1.083   .     S
C156   H263    1.083   .     S
C157   H264    1.083   .     S
C158   H265    1.083   .     S
C159   H266    1.083   .     S
C160   H267    1.083   .     S
C161   H269    1.083   .     S
C162   H270    1.083   .     S
C163   O401    1.385   .     S
C163   C954    1.403   .     S
C164   H271    1.083   .     S
C165   H272    1.083   .     S
C165   C181    1.386   .     A
C166   H273    1.083   .     S
C166   C180    1.386   .     A
C167   C179    1.386   .     A
C167   H274    1.083   .     S
C168   H275    1.083   .     S
C168   C178    1.386   .     A
C169   H276    1.083   .     S
C169   C177    1.386   .     A
C170   C176    1.386   .     A
C170   H277    1.083   .     S
C171   C175    1.386   .     A
C171   H278    1.083   .     S
C172   H280    1.083   .     S
C172   C173    1.386   .     A
C173   H281    1.083   .     S
C174   O402    1.385   .     S
C175   H282    1.083   .     S
C176   H283    1.083   .     S
C177   H284    1.083   .     S
C178   H285    1.083   .     S
C179   H286    1.083   .     S
C180   H287    1.083   .     S
C181   H288    1.083   .     S
C182   C462    1.415   .     A
C183   C464    1.415   .     S
C183   C532    1.403   .     S
C184   C893    1.415   .     A
C184   C961    1.403   .     S
O345   Zn416   1.946   .     S
O345   Zn413   1.946   .     S
O345   Zn424   1.946   .     S
O345   Zn1276  1.946   1_545 S
O346   Zn415   1.942   .     S
O346   C978    1.276   .     S
O347   Zn418   1.942   .     S
O347   C551    1.276   .     A
O348   Zn417   1.942   .     S
O349   Zn427   1.942   .     S
O350   Zn426   1.942   .     S
O351   Zn421   1.942   .     S
O352   Zn413   1.942   .     S
O353   Zn423   1.942   .     S
O354   Zn422   1.942   .     S
O355   Zn425   1.942   .     S
O356   Zn425   1.946   .     S
O356   Zn419   1.946   .     S
O356   Zn421   1.946   .     S
O356   Zn1271  1.946   1_545 S
O357   Zn424   1.942   .     S
O358   Zn416   1.937   .     S
O359   Zn415   1.937   .     S
O360   Zn418   1.937   .     S
O361   Zn417   1.937   .     S
O362   Zn420   1.937   .     S
O363   Zn419   1.937   .     S
O364   Zn414   1.937   .     S
O365   Zn428   1.937   .     S
O366   Zn415   1.937   .     S
O367   Zn422   1.946   .     S
O367   Zn414   1.946   .     S
O367   Zn846   1.946   1_455 S
O367   Zn426   1.946   .     S
O368   Zn416   1.937   .     S
O369   Zn428   1.937   .     S
O370   Zn414   1.937   .     S
O371   Zn419   1.937   .     S
O372   Zn420   1.937   .     S
O373   Zn417   1.937   .     S
O374   Zn418   1.937   .     S
O375   Zn851   1.937   .     S
O376   Zn422   1.937   .     S
O377   Zn1281  1.937   .     S
O378   Zn417   1.946   .     S
O378   Zn427   1.946   .     S
O378   Zn423   1.946   .     S
O378   Zn856   1.946   1_455 S
O379   Zn424   1.937   .     S
O380   Zn427   1.937   .     S
O381   Zn854   1.937   .     S
O382   Zn421   1.937   .     S
O383   Zn1269  1.937   .     S
O384   Zn850   1.937   .     S
O385   Zn423   1.937   .     S
O386   Zn413   1.937   .     S
O387   Zn1277  1.937   .     S
O388   Zn426   1.937   .     S
O389   Zn420   1.942   .     S
O389   C977    1.276   .     A
O390   Zn855   1.937   .     S
O391   Zn1280  1.937   .     S
O392   Zn425   1.937   .     S
O400   Zn419   1.942   .     S
O410   Zn414   1.942   .     S
O411   Zn428   1.942   .     S
O411   C552    1.276   .     S
O412   Zn416   1.942   .     S
Zn413  O1239   1.937   1_545 S
Zn415  O1212   1.946   .     S
Zn418  O795    1.946   .     S
Zn420  O1201   1.946   .     S
Zn421  O1243   1.937   1_545 S
Zn422  O812    1.937   1_455 S
Zn423  O803    1.937   1_455 S
Zn424  O1247   1.937   1_545 S
Zn425  O1233   1.937   1_545 S
Zn426  O809    1.937   1_455 S
Zn427  O818    1.937   1_455 S
Zn428  O806    1.946   .     S
C429   O821    1.386   .     S
C429   C432    1.404   .     A
C429   C507    1.403   .     S
C430   C442    1.404   .     A
C430   O831    1.385   .     S
C430   C1384   1.403   .     S
C431   C591    1.404   .     A
C431   C534    1.403   .     A
C431   C1322   1.415   .     S
C432   C535    1.403   .     A
C432   C462    1.415   .     S
C433   C464    1.415   .     A
C433   C525    1.404   .     A
C434   C536    1.404   .     A
C434   C465    1.415   .     S
C434   C1394   1.403   1_545 S
C435   C547    1.404   .     A
C435   C539    1.403   .     A
C435   C466    1.415   .     A
C436   C463    1.404   .     A
C436   C540    1.403   .     A
C436   C1323   1.415   .     S
C437   C474    1.404   .     A
C437   C468    1.415   .     A
C437   C541    1.403   .     A
C438   C469    1.415   .     A
C438   C542    1.403   .     A
C438   C485    1.404   .     A
C439   C543    1.403   .     A
C439   C496    1.404   .     A
C439   C42     1.415   1_655 S
C440   C602    1.404   .     A
C440   C544    1.403   .     A
C440   C467    1.415   .     A
C441   O832    1.385   .     S
C441   C443    1.404   .     A
C441   C101    1.403   1_655 A
C442   C545    1.403   .     A
C442   C1324   1.415   .     S
C443   C546    1.403   .     A
C443   C41     1.415   1_655 S
C444   C548    1.403   .     A
C444   C452    1.404   .     A
C444   C470    1.415   .     A
C445   C592    1.401   .     A
C445   C594    1.401   .     A
C445   C564    1.455   .     S
C446   C565    1.455   .     S
C446   C593    1.401   .     A
C446   C590    1.401   .     A
C447   C557    1.455   .     S
C447   C589    1.401   .     A
C447   C596    1.401   .     A
C448   C588    1.401   .     A
C448   C595    1.401   .     A
C448   C559    1.455   .     S
C449   C598    1.401   .     A
C449   C587    1.401   .     A
C449   C560    1.455   .     S
C450   C561    1.455   .     S
C450   C586    1.401   .     A
C450   C597    1.401   .     A
C451   C562    1.455   .     S
C451   C585    1.401   .     A
C451   C600    1.401   .     A
C452   C530    1.403   .     A
C452   O833    1.386   .     S
C453   C599    1.401   .     A
C453   C563    1.455   .     S
C453   C584    1.401   .     A
C454   C573    1.455   .     S
C454   C583    1.401   .     A
C454   C603    1.401   .     A
C455   C582    1.401   .     A
C455   C574    1.455   .     S
C455   C601    1.401   .     A
C456   C581    1.401   .     A
C456   C605    1.401   .     A
C456   C566    1.455   .     S
C457   C567    1.455   .     S
C457   C579    1.401   .     A
C457   C604    1.401   .     A
C458   C578    1.401   .     A
C458   C607    1.401   .     A
C458   C568    1.455   .     S
C459   C606    1.401   .     A
C459   C577    1.401   .     A
C459   C570    1.455   .     S
C460   C609    1.401   .     A
C460   C576    1.401   .     A
C460   C571    1.455   .     S
C461   C575    1.401   .     A
C461   C572    1.455   .     S
C461   C608    1.401   .     A
C462   C464    1.410   .     S
C463   O834    1.385   .     S
C463   C1383   1.403   .     S
C465   C1468   1.415   1_545 A
C465   C466    1.410   .     S
C466   C1287   1.415   1_545 S
C467   C1292   1.415   1_545 S
C467   C468    1.410   1_556 S
C468   C1298   1.415   1_545 S
C468   C467    1.410   1_554 S
C469   C470    1.410   1_556 S
C470   C469    1.410   1_554 S
C471   C472    1.528   .     S
C471   H719    1.113   .     S
C471   O821    1.414   .     S
C471   H717    1.116   .     S
C472   C473    1.526   .     S
C472   H721    1.112   .     S
C472   H720    1.112   .     S
C473   H722    1.111   .     S
C473   H723    1.111   .     S
C473   H724    1.110   .     S
C474   C528    1.403   .     A
C474   O835    1.385   .     S
C475   O822    1.414   .     S
C475   H726    1.113   .     S
C475   H725    1.116   .     S
C475   C476    1.528   .     S
C476   H728    1.112   .     S
C476   C477    1.526   .     S
C476   H727    1.112   .     S
C477   H730    1.111   .     S
C477   H732    1.110   .     S
C477   H731    1.111   .     S
C478   H733    1.116   .     S
C478   H734    1.113   .     S
C478   C479    1.528   .     S
C478   O823    1.414   .     S
C479   C480    1.526   .     S
C479   H736    1.112   .     S
C479   H735    1.112   .     S
C480   H738    1.111   .     S
C480   H737    1.111   .     S
C480   H739    1.110   .     S
C481   O824    1.414   .     S
C481   C482    1.528   .     S
C481   H742    1.113   .     S
C481   H741    1.116   .     S
C482   H744    1.112   .     S
C482   C483    1.526   .     S
C482   H743    1.112   .     S
C483   H746    1.111   .     S
C483   H745    1.111   .     S
C483   H747    1.110   .     S
C484   H749    1.113   .     S
C484   C486    1.528   .     S
C484   O825    1.414   .     S
C484   H748    1.116   .     S
C485   O836    1.385   .     S
C485   C529    1.403   .     S
C486   H752    1.112   .     S
C486   H750    1.112   .     S
C486   C487    1.526   .     S
C487   H754    1.111   .     S
C487   H755    1.110   .     S
C487   H753    1.111   .     S
C488   H756    1.116   .     S
C488   C489    1.528   .     S
C488   H757    1.113   .     S
C488   O826    1.414   .     S
C489   H759    1.112   .     S
C489   C490    1.526   .     S
C489   H758    1.112   .     S
C490   H760    1.111   .     S
C490   H763    1.110   .     S
C490   H761    1.111   .     S
C491   O827    1.414   .     S
C491   H765    1.113   .     S
C491   C492    1.528   .     S
C491   H764    1.116   .     S
C492   H767    1.112   .     S
C492   H766    1.112   .     S
C492   C493    1.526   .     S
C493   H770    1.110   .     S
C493   H769    1.111   .     S
C493   H768    1.111   .     S
C494   C495    1.528   .     S
C494   O829    1.414   .     S
C494   H771    1.116   .     S
C494   H772    1.113   .     S
C495   H615    1.112   .     S
C495   H616    1.112   .     S
C495   C497    1.526   .     S
C496   O837    1.385   .     S
C496   C102    1.403   1_655 S
C497   H619    1.110   .     S
C497   H618    1.111   .     S
C497   H617    1.111   .     S
C498   H620    1.116   .     S
C498   H621    1.113   .     S
C498   O830    1.414   .     S
C498   C499    1.528   .     S
C499   H622    1.112   .     S
C499   H623    1.112   .     S
C499   C500    1.526   .     S
C500   H624    1.111   .     S
C500   H627    1.110   .     S
C500   H626    1.111   .     S
C501   H629    1.113   .     S
C501   O831    1.414   .     S
C501   C502    1.528   .     S
C501   H628    1.116   .     S
C502   H631    1.112   .     S
C502   H630    1.112   .     S
C502   C503    1.526   .     S
C503   H633    1.111   .     S
C503   H634    1.110   .     S
C503   H632    1.111   .     S
C504   H637    1.113   .     S
C504   O832    1.414   .     S
C504   H635    1.116   .     S
C504   C505    1.528   .     S
C505   H638    1.112   .     S
C505   C506    1.526   .     S
C505   H639    1.112   .     S
C506   H642    1.111   .     S
C506   H640    1.110   .     S
C506   H641    1.111   .     S
C507   C551    1.449   .     S
C508   H644    1.113   .     S
C508   H643    1.116   .     S
C508   C509    1.528   .     S
C508   O833    1.414   .     S
C509   H645    1.112   .     S
C509   C510    1.526   .     S
C509   H646    1.112   .     S
C510   H650    1.110   .     S
C510   H648    1.111   .     S
C510   H649    1.111   .     S
C511   H651    1.116   .     S
C511   C512    1.528   .     S
C511   O834    1.414   .     S
C511   H652    1.113   .     S
C512   H653    1.112   .     S
C512   C513    1.526   .     S
C512   H654    1.112   .     S
C513   H657    1.110   .     S
C513   H656    1.111   .     S
C513   H655    1.111   .     S
C514   H659    1.116   .     S
C514   O835    1.414   .     S
C514   H660    1.113   .     S
C514   C515    1.528   .     S
C515   H661    1.112   .     S
C515   C516    1.526   .     S
C515   H662    1.112   .     S
C516   H663    1.111   .     S
C516   H665    1.110   .     S
C516   H664    1.111   .     S
C517   H666    1.116   .     S
C517   C519    1.528   .     S
C517   H667    1.113   .     S
C517   O836    1.414   .     S
C518   C525    1.403   .     A
C518   C552    1.449   .     S
C519   C520    1.526   .     S
C519   H668    1.112   .     S
C519   H670    1.112   .     S
C520   H671    1.111   .     S
C520   H673    1.110   .     S
C520   H672    1.111   .     S
C521   H675    1.113   .     S
C521   O837    1.414   .     S
C521   H674    1.116   .     S
C521   C522    1.528   .     S
C522   H676    1.112   .     S
C522   C523    1.526   .     S
C522   H677    1.112   .     S
C523   H681    1.110   .     S
C523   H678    1.111   .     S
C523   H679    1.111   .     S
C524   C549    1.449   .     S
C524   C1436   1.403   1_545 A
C524   C536    1.403   .     S
C525   O822    1.385   .     S
C526   C550    1.449   .     S
C526   C547    1.403   .     A
C526   C1447   1.403   1_545 S
C527   C602    1.403   .     A
C527   C555    1.449   .     S
C527   C1319   1.403   1_545 S
C528   C556    1.449   .     S
C528   C1286   1.403   1_545 S
C529   C553    1.449   .     S
C530   C554    1.449   .     S
C531   H613    1.083   .     S
C531   C537    1.390   .     A
C531   C610    1.403   .     A
C532   C535    1.390   .     A
C532   H685    1.083   .     S
C533   H696    1.083   .     S
C533   C539    1.390   .     A
C533   C1468   1.403   1_545 S
C534   H707    1.083   .     S
C534   C538    1.390   .     A
C535   H718    1.083   .     S
C536   O823    1.385   .     S
C537   H729    1.083   .     S
C537   C5      1.403   1_655 S
C538   H740    1.083   .     S
C538   C1290   1.403   .     S
C539   H751    1.083   .     S
C540   H762    1.083   .     S
C540   C545    1.390   1_556 S
C541   H614    1.083   .     S
C541   C544    1.390   1_554 S
C542   H625    1.083   .     S
C542   C548    1.390   1_556 S
C543   H636    1.083   .     S
C543   C546    1.390   1_554 S
C544   H647    1.083   .     S
C544   C541    1.390   1_556 S
C545   H658    1.083   .     S
C545   C540    1.390   1_554 S
C546   H669    1.083   .     S
C546   C543    1.390   1_556 S
C547   O824    1.385   .     S
C548   H680    1.083   .     S
C548   C542    1.390   1_554 S
C549   O1673   1.276   1_545 A
C549   O840    1.276   .     S
C550   O828    1.276   .     A
C550   O1630   1.276   1_545 S
C551   O838    1.276   .     S
C552   O776    1.276   .     A
C553   O777    1.276   .     A
C553   O781    1.276   .     A
C554   O778    1.277   .     A
C554   O782    1.276   .     S
C555   O779    1.276   .     A
C555   O783    1.276   .     A
C556   O780    1.276   .     A
C556   O785    1.276   .     A
C557   O814    1.280   .     A
C557   O786    1.280   .     A
C558   C79     1.403   1_655 A
C558   O825    1.385   .     S
C558   C610    1.404   .     A
C559   O815    1.280   .     A
C559   O787    1.280   .     A
C560   O788    1.280   .     A
C560   O812    1.280   .     A
C561   O813    1.280   .     A
C561   O789    1.280   .     A
C562   O819    1.280   .     A
C562   O790    1.280   .     A
C563   O791    1.280   .     A
C563   O820    1.280   .     A
C564   O816    1.280   .     A
C564   O792    1.280   .     A
C565   O818    1.280   .     A
C565   O793    1.280   .     A
C566   O794    1.280   .     A
C566   O805    1.280   .     A
C567   O807    1.280   .     A
C567   O796    1.280   .     A
C568   O803    1.280   .     A
C568   O797    1.280   .     A
C569   C611    1.404   .     A
C569   O826    1.385   .     S
C569   C90     1.403   1_655 S
C570   O798    1.280   .     A
C570   O804    1.280   .     A
C571   O799    1.280   .     A
C571   O810    1.280   .     A
C572   O811    1.280   .     A
C572   O800    1.280   .     A
C573   O808    1.280   .     A
C573   O801    1.280   .     A
C574   O802    1.280   .     A
C574   O809    1.280   .     A
C575   C592    1.386   .     A
C575   H682    1.083   .     S
C576   C590    1.386   .     A
C576   H683    1.083   .     S
C577   H684    1.083   .     S
C577   C589    1.386   .     A
C578   C588    1.386   .     A
C578   H686    1.083   .     S
C579   H687    1.083   .     S
C579   C587    1.386   .     A
C580   C1380   1.403   .     A
C580   O827    1.385   .     S
C580   C612    1.404   .     A
C581   C586    1.386   .     A
C581   H688    1.083   .     S
C582   H689    1.083   .     S
C582   C585    1.386   .     A
C583   C584    1.386   .     A
C583   H690    1.083   .     S
C584   H691    1.083   .     S
C585   H692    1.083   .     S
C586   H693    1.083   .     S
C587   H694    1.083   .     S
C588   H695    1.083   .     S
C589   H697    1.083   .     S
C590   H698    1.083   .     S
C591   O829    1.385   .     S
C591   C1382   1.403   .     S
C592   H699    1.083   .     S
C593   H700    1.083   .     S
C593   C609    1.386   .     A
C594   H701    1.083   .     S
C594   C608    1.386   .     A
C595   C607    1.386   .     A
C595   H702    1.083   .     S
C596   H703    1.083   .     S
C596   C606    1.386   .     A
C597   H704    1.083   .     S
C597   C605    1.386   .     A
C598   C604    1.386   .     A
C598   H705    1.083   .     S
C599   C603    1.386   .     A
C599   H706    1.083   .     S
C600   H708    1.083   .     S
C600   C601    1.386   .     A
C601   H709    1.083   .     S
C602   O830    1.385   .     S
C603   H710    1.083   .     S
C604   H711    1.083   .     S
C605   H712    1.083   .     S
C606   H713    1.083   .     S
C607   H714    1.083   .     S
C608   H715    1.083   .     S
C609   H716    1.083   .     S
C610   C34     1.415   1_655 A
C611   C36     1.415   1_655 S
C611   C104    1.403   1_655 S
C612   C1321   1.415   .     A
C612   C1389   1.403   .     S
O773   Zn844   1.946   .     S
O773   Zn841   1.946   .     S
O773   Zn852   1.946   .     S
O773   Zn1704  1.946   1_545 S
O774   Zn843   1.942   .     S
O774   C1406   1.276   .     S
O775   Zn846   1.942   .     S
O775   C123    1.276   1_655 A
O776   Zn845   1.942   .     S
O777   Zn855   1.942   .     S
O778   Zn854   1.942   .     S
O779   Zn849   1.942   .     S
O780   Zn841   1.942   .     S
O781   Zn851   1.942   .     S
O782   Zn850   1.942   .     S
O783   Zn853   1.942   .     S
O784   Zn853   1.946   .     S
O784   Zn847   1.946   .     S
O784   Zn849   1.946   .     S
O784   Zn1699  1.946   1_545 S
O785   Zn852   1.942   .     S
O786   Zn844   1.937   .     S
O787   Zn843   1.937   .     S
O788   Zn846   1.937   .     S
O789   Zn845   1.937   .     S
O790   Zn848   1.937   .     S
O791   Zn847   1.937   .     S
O792   Zn842   1.937   .     S
O793   Zn856   1.937   .     S
O794   Zn843   1.937   .     S
O795   Zn850   1.946   .     S
O795   Zn842   1.946   .     S
O795   Zn854   1.946   .     S
O796   Zn844   1.937   .     S
O797   Zn856   1.937   .     S
O798   Zn842   1.937   .     S
O799   Zn847   1.937   .     S
O800   Zn848   1.937   .     S
O801   Zn845   1.937   .     S
O802   Zn846   1.937   .     S
O803   Zn423   1.937   1_655 S
O804   Zn850   1.937   .     S
O805   Zn1709  1.937   .     S
O806   Zn845   1.946   .     S
O806   Zn855   1.946   .     S
O806   Zn851   1.946   .     S
O807   Zn852   1.937   .     S
O808   Zn855   1.937   .     S
O809   Zn426   1.937   1_655 S
O810   Zn849   1.937   .     S
O811   Zn1697  1.937   .     S
O812   Zn422   1.937   1_655 S
O813   Zn851   1.937   .     S
O814   Zn841   1.937   .     S
O815   Zn1705  1.937   .     S
O816   Zn854   1.937   .     S
O817   Zn848   1.942   .     S
O817   C1405   1.276   .     A
O818   Zn427   1.937   1_655 S
O819   Zn1708  1.937   .     S
O820   Zn853   1.937   .     S
O828   Zn847   1.942   .     S
O838   Zn842   1.942   .     S
O839   Zn856   1.942   .     S
O839   C124    1.276   1_655 S
O840   Zn844   1.942   .     S
Zn841  O1667   1.937   1_545 S
Zn843  O1640   1.946   .     S
Zn846  O367    1.946   1_655 S
Zn848  O1629   1.946   .     S
Zn849  O1671   1.937   1_545 S
Zn852  O1675   1.937   1_545 S
Zn853  O1661   1.937   1_545 S
Zn856  O378    1.946   1_655 S
C857   O1249   1.386   .     S
C857   C860    1.404   .     A
C857   C935    1.403   .     S
C858   C870    1.404   .     A
C858   O1259   1.385   .     S
C858   C100    1.403   1_565 S
C859   C1019   1.404   .     A
C859   C962    1.403   .     A
C859   C38     1.415   1_565 S
C860   C963    1.403   .     A
C860   C890    1.415   .     S
C861   C892    1.415   .     A
C861   C953    1.404   .     A
C861   C1393   1.403   1_455 S
C862   C964    1.404   .     A
C862   C893    1.415   .     S
C863   C975    1.404   .     A
C863   C967    1.403   .     A
C863   C894    1.415   .     A
C864   C891    1.404   .     A
C864   C968    1.403   .     A
C864   C39     1.415   1_565 S
C865   C902    1.404   .     A
C865   C896    1.415   .     A
C865   C969    1.403   .     A
C866   C897    1.415   .     A
C866   C970    1.403   .     A
C866   C913    1.404   .     A
C867   C971    1.403   .     A
C867   C924    1.404   .     A
C867   C1326   1.415   .     S
C868   C1030   1.404   .     A
C868   C972    1.403   .     A
C868   C895    1.415   .     A
C869   O1260   1.385   .     S
C869   C871    1.404   .     A
C869   C1385   1.403   .     A
C870   C973    1.403   .     A
C870   C40     1.415   1_565 S
C871   C974    1.403   .     A
C871   C1325   1.415   .     S
C872   C976    1.403   .     A
C872   C880    1.404   .     A
C872   C898    1.415   .     A
C873   C1020   1.401   .     A
C873   C1022   1.401   .     A
C873   C992    1.455   .     S
C874   C993    1.455   .     S
C874   C1021   1.401   .     A
C874   C1018   1.401   .     A
C875   C985    1.455   .     S
C875   C1017   1.401   .     A
C875   C1024   1.401   .     A
C876   C1016   1.401   .     A
C876   C1023   1.401   .     A
C876   C987    1.455   .     S
C877   C1026   1.401   .     A
C877   C1015   1.401   .     A
C877   C988    1.455   .     S
C878   C989    1.455   .     S
C878   C1014   1.401   .     A
C878   C1025   1.401   .     A
C879   C990    1.455   .     S
C879   C1013   1.401   .     A
C879   C1028   1.401   .     A
C880   C958    1.403   .     A
C880   O1261   1.386   .     S
C881   C1027   1.401   .     A
C881   C991    1.455   .     S
C881   C1012   1.401   .     A
C882   C1001   1.455   .     S
C882   C1011   1.401   .     A
C882   C1031   1.401   .     A
C883   C1010   1.401   .     A
C883   C1002   1.455   .     S
C883   C1029   1.401   .     A
C884   C1009   1.401   .     A
C884   C1033   1.401   .     A
C884   C994    1.455   .     S
C885   C995    1.455   .     S
C885   C1007   1.401   .     A
C885   C1032   1.401   .     A
C886   C1006   1.401   .     A
C886   C1035   1.401   .     A
C886   C996    1.455   .     S
C887   C1034   1.401   .     A
C887   C1005   1.401   .     A
C887   C998    1.455   .     S
C888   C1037   1.401   .     A
C888   C1004   1.401   .     A
C888   C999    1.455   .     S
C889   C1003   1.401   .     A
C889   C1000   1.455   .     S
C889   C1036   1.401   .     A
C890   C1466   1.415   1_455 A
C890   C892    1.410   .     S
C891   O1262   1.385   .     S
C891   C99     1.403   1_565 S
C892   C1467   1.415   1_455 S
C893   C894    1.410   .     S
C895   C896    1.410   1_556 S
C896   C895    1.410   1_554 S
C897   C1299   1.415   1_455 S
C897   C898    1.410   1_556 S
C898   C1295   1.415   1_455 S
C898   C897    1.410   1_554 S
C899   C900    1.528   .     S
C899   H1147   1.113   .     S
C899   O1249   1.414   .     S
C899   H1145   1.116   .     S
C900   C901    1.526   .     S
C900   H1149   1.112   .     S
C900   H1148   1.112   .     S
C901   H1150   1.111   .     S
C901   H1151   1.111   .     S
C901   H1152   1.110   .     S
C902   C956    1.403   .     A
C902   O1263   1.385   .     S
C903   O1250   1.414   .     S
C903   H1154   1.113   .     S
C903   H1153   1.116   .     S
C903   C904    1.528   .     S
C904   H1156   1.112   .     S
C904   C905    1.526   .     S
C904   H1155   1.112   .     S
C905   H1158   1.111   .     S
C905   H1160   1.110   .     S
C905   H1159   1.111   .     S
C906   H1161   1.116   .     S
C906   H1162   1.113   .     S
C906   C907    1.528   .     S
C906   O1251   1.414   .     S
C907   C908    1.526   .     S
C907   H1164   1.112   .     S
C907   H1163   1.112   .     S
C908   H1166   1.111   .     S
C908   H1165   1.111   .     S
C908   H1167   1.110   .     S
C909   O1252   1.414   .     S
C909   C910    1.528   .     S
C909   H1170   1.113   .     S
C909   H1169   1.116   .     S
C910   H1172   1.112   .     S
C910   C911    1.526   .     S
C910   H1171   1.112   .     S
C911   H1174   1.111   .     S
C911   H1173   1.111   .     S
C911   H1175   1.110   .     S
C912   H1177   1.113   .     S
C912   C914    1.528   .     S
C912   O1253   1.414   .     S
C912   H1176   1.116   .     S
C913   O1264   1.385   .     S
C913   C957    1.403   .     S
C914   H1180   1.112   .     S
C914   H1178   1.112   .     S
C914   C915    1.526   .     S
C915   H1182   1.111   .     S
C915   H1183   1.110   .     S
C915   H1181   1.111   .     S
C916   H1184   1.116   .     S
C916   C917    1.528   .     S
C916   H1185   1.113   .     S
C916   O1254   1.414   .     S
C917   H1187   1.112   .     S
C917   C918    1.526   .     S
C917   H1186   1.112   .     S
C918   H1188   1.111   .     S
C918   H1191   1.110   .     S
C918   H1189   1.111   .     S
C919   O1255   1.414   .     S
C919   H1193   1.113   .     S
C919   C920    1.528   .     S
C919   H1192   1.116   .     S
C920   H1195   1.112   .     S
C920   H1194   1.112   .     S
C920   C921    1.526   .     S
C921   H1198   1.110   .     S
C921   H1197   1.111   .     S
C921   H1196   1.111   .     S
C922   C923    1.528   .     S
C922   O1257   1.414   .     S
C922   H1199   1.116   .     S
C922   H1200   1.113   .     S
C923   H1043   1.112   .     S
C923   H1044   1.112   .     S
C923   C925    1.526   .     S
C924   O1265   1.385   .     S
C924   C1386   1.403   .     S
C925   H1047   1.110   .     S
C925   H1046   1.111   .     S
C925   H1045   1.111   .     S
C926   H1048   1.116   .     S
C926   H1049   1.113   .     S
C926   O1258   1.414   .     S
C926   C927    1.528   .     S
C927   H1050   1.112   .     S
C927   H1051   1.112   .     S
C927   C928    1.526   .     S
C928   H1052   1.111   .     S
C928   H1055   1.110   .     S
C928   H1054   1.111   .     S
C929   H1057   1.113   .     S
C929   O1259   1.414   .     S
C929   C930    1.528   .     S
C929   H1056   1.116   .     S
C930   H1059   1.112   .     S
C930   H1058   1.112   .     S
C930   C931    1.526   .     S
C931   H1061   1.111   .     S
C931   H1062   1.110   .     S
C931   H1060   1.111   .     S
C932   H1065   1.113   .     S
C932   O1260   1.414   .     S
C932   H1063   1.116   .     S
C932   C933    1.528   .     S
C933   H1066   1.112   .     S
C933   C934    1.526   .     S
C933   H1067   1.112   .     S
C934   H1070   1.111   .     S
C934   H1068   1.110   .     S
C934   H1069   1.111   .     S
C935   C1414   1.403   1_455 A
C935   C979    1.449   .     S
C936   H1072   1.113   .     S
C936   H1071   1.116   .     S
C936   C937    1.528   .     S
C936   O1261   1.414   .     S
C937   H1073   1.112   .     S
C937   C938    1.526   .     S
C937   H1074   1.112   .     S
C938   H1078   1.110   .     S
C938   H1076   1.111   .     S
C938   H1077   1.111   .     S
C939   H1079   1.116   .     S
C939   C940    1.528   .     S
C939   O1262   1.414   .     S
C939   H1080   1.113   .     S
C940   H1081   1.112   .     S
C940   C941    1.526   .     S
C940   H1082   1.112   .     S
C941   H1085   1.110   .     S
C941   H1084   1.111   .     S
C941   H1083   1.111   .     S
C942   H1087   1.116   .     S
C942   O1263   1.414   .     S
C942   H1088   1.113   .     S
C942   C943    1.528   .     S
C943   H1089   1.112   .     S
C943   C944    1.526   .     S
C943   H1090   1.112   .     S
C944   H1091   1.111   .     S
C944   H1093   1.110   .     S
C944   H1092   1.111   .     S
C945   H1094   1.116   .     S
C945   C947    1.528   .     S
C945   H1095   1.113   .     S
C945   O1264   1.414   .     S
C946   C953    1.403   .     A
C946   C980    1.449   .     S
C946   C1425   1.403   1_455 S
C947   C948    1.526   .     S
C947   H1096   1.112   .     S
C947   H1098   1.112   .     S
C948   H1099   1.111   .     S
C948   H1101   1.110   .     S
C948   H1100   1.111   .     S
C949   H1103   1.113   .     S
C949   O1265   1.414   .     S
C949   H1102   1.116   .     S
C949   C950    1.528   .     S
C950   H1104   1.112   .     S
C950   C951    1.526   .     S
C950   H1105   1.112   .     S
C951   H1109   1.110   .     S
C951   H1106   1.111   .     S
C951   H1107   1.111   .     S
C952   C977    1.449   .     S
C952   C964    1.403   .     S
C953   O1250   1.385   .     S
C954   C978    1.449   .     S
C954   C975    1.403   .     A
C955   C1030   1.403   .     A
C955   C983    1.449   .     S
C956   C984    1.449   .     S
C957   C981    1.449   .     S
C957   C1297   1.403   1_455 A
C958   C982    1.449   .     S
C958   C1352   1.403   1_455 S
C959   H1041   1.083   .     S
C959   C965    1.390   .     A
C959   C1038   1.403   .     A
C960   C963    1.390   .     A
C960   H1113   1.083   .     S
C960   C1467   1.403   1_455 S
C961   H1124   1.083   .     S
C961   C967    1.390   .     A
C962   H1135   1.083   .     S
C962   C966    1.390   .     A
C963   H1146   1.083   .     S
C964   O1251   1.385   .     S
C965   H1157   1.083   .     S
C965   C1289   1.403   .     S
C966   H1168   1.083   .     S
C966   C6      1.403   1_565 S
C967   H1179   1.083   .     S
C968   H1190   1.083   .     S
C968   C973    1.390   1_556 S
C969   H1042   1.083   .     S
C969   C972    1.390   1_554 S
C970   H1053   1.083   .     S
C970   C976    1.390   1_556 S
C971   H1064   1.083   .     S
C971   C974    1.390   1_554 S
C972   H1075   1.083   .     S
C972   C969    1.390   1_556 S
C973   H1086   1.083   .     S
C973   C968    1.390   1_554 S
C974   H1097   1.083   .     S
C974   C971    1.390   1_556 S
C975   O1252   1.385   .     S
C976   H1108   1.083   .     S
C976   C970    1.390   1_554 S
C977   O1268   1.276   .     S
C978   O1256   1.276   .     A
C979   O1631   1.276   1_455 A
C979   O1266   1.276   .     S
C980   O1204   1.276   .     A
C980   O1695   1.276   1_455 S
C981   O1205   1.276   .     A
C981   O1209   1.276   .     A
C982   O1206   1.277   .     A
C982   O1210   1.276   .     S
C983   O1207   1.276   .     A
C983   O1211   1.276   .     A
C984   O1208   1.276   .     A
C984   O1213   1.276   .     A
C985   O1242   1.280   .     A
C985   O1214   1.280   .     A
C986   C1363   1.403   .     A
C986   O1253   1.385   .     S
C986   C1038   1.404   .     A
C987   O1243   1.280   .     A
C987   O1215   1.280   .     A
C988   O1216   1.280   .     A
C988   O1240   1.280   .     A
C989   O1241   1.280   .     A
C989   O1217   1.280   .     A
C990   O1247   1.280   .     A
C990   O1218   1.280   .     A
C991   O1219   1.280   .     A
C991   O1248   1.280   .     A
C992   O1244   1.280   .     A
C992   O1220   1.280   .     A
C993   O1246   1.280   .     A
C993   O1221   1.280   .     A
C994   O1222   1.280   .     A
C994   O1233   1.280   .     A
C995   O1235   1.280   .     A
C995   O1224   1.280   .     A
C996   O1231   1.280   .     A
C996   O1225   1.280   .     A
C997   C1039   1.404   .     A
C997   O1254   1.385   .     S
C997   C1374   1.403   .     S
C998   O1226   1.280   .     A
C998   O1232   1.280   .     A
C999   O1227   1.280   .     A
C999   O1238   1.280   .     A
C1000  O1239   1.280   .     A
C1000  O1228   1.280   .     A
C1001  O1236   1.280   .     A
C1001  O1229   1.280   .     A
C1002  O1230   1.280   .     A
C1002  O1237   1.280   .     A
C1003  C1020   1.386   .     A
C1003  H1110   1.083   .     S
C1004  C1018   1.386   .     A
C1004  H1111   1.083   .     S
C1005  H1112   1.083   .     S
C1005  C1017   1.386   .     A
C1006  C1016   1.386   .     A
C1006  H1114   1.083   .     S
C1007  H1115   1.083   .     S
C1007  C1015   1.386   .     A
C1008  C96     1.403   1_565 A
C1008  O1255   1.385   .     S
C1008  C1040   1.404   .     A
C1009  C1014   1.386   .     A
C1009  H1116   1.083   .     S
C1010  H1117   1.083   .     S
C1010  C1013   1.386   .     A
C1011  C1012   1.386   .     A
C1011  H1118   1.083   .     S
C1012  H1119   1.083   .     S
C1013  H1120   1.083   .     S
C1014  H1121   1.083   .     S
C1015  H1122   1.083   .     S
C1016  H1123   1.083   .     S
C1017  H1125   1.083   .     S
C1018  H1126   1.083   .     S
C1019  O1257   1.385   .     S
C1019  C98     1.403   1_565 S
C1020  H1127   1.083   .     S
C1021  H1128   1.083   .     S
C1021  C1037   1.386   .     A
C1022  H1129   1.083   .     S
C1022  C1036   1.386   .     A
C1023  C1035   1.386   .     A
C1023  H1130   1.083   .     S
C1024  H1131   1.083   .     S
C1024  C1034   1.386   .     A
C1025  H1132   1.083   .     S
C1025  C1033   1.386   .     A
C1026  C1032   1.386   .     A
C1026  H1133   1.083   .     S
C1027  C1031   1.386   .     A
C1027  H1134   1.083   .     S
C1028  H1136   1.083   .     S
C1028  C1029   1.386   .     A
C1029  H1137   1.083   .     S
C1030  O1258   1.385   .     S
C1031  H1138   1.083   .     S
C1032  H1139   1.083   .     S
C1033  H1140   1.083   .     S
C1034  H1141   1.083   .     S
C1035  H1142   1.083   .     S
C1036  H1143   1.083   .     S
C1037  H1144   1.083   .     S
C1038  C1318   1.415   .     A
C1039  C1320   1.415   .     S
C1039  C1388   1.403   .     S
C1040  C37     1.415   1_565 A
C1040  C105    1.403   1_565 S
O1201  Zn1272  1.946   .     S
O1201  Zn1269  1.946   .     S
O1201  Zn1280  1.946   .     S
O1202  Zn1271  1.942   .     S
O1202  C122    1.276   1_565 S
O1203  Zn1274  1.942   .     S
O1203  C1407   1.276   .     A
O1204  Zn1273  1.942   .     S
O1205  Zn1283  1.942   .     S
O1206  Zn1282  1.942   .     S
O1207  Zn1277  1.942   .     S
O1208  Zn1269  1.942   .     S
O1209  Zn1279  1.942   .     S
O1210  Zn1278  1.942   .     S
O1211  Zn1281  1.942   .     S
O1212  Zn1281  1.946   .     S
O1212  Zn1275  1.946   .     S
O1212  Zn1277  1.946   .     S
O1213  Zn1280  1.942   .     S
O1214  Zn1272  1.937   .     S
O1215  Zn1271  1.937   .     S
O1216  Zn1274  1.937   .     S
O1217  Zn1273  1.937   .     S
O1218  Zn1276  1.937   .     S
O1219  Zn1275  1.937   .     S
O1220  Zn1270  1.937   .     S
O1221  Zn1284  1.937   .     S
O1222  Zn1271  1.937   .     S
O1223  Zn1278  1.946   .     S
O1223  Zn1270  1.946   .     S
O1223  Zn1702  1.946   1_455 S
O1223  Zn1282  1.946   .     S
O1224  Zn1272  1.937   .     S
O1225  Zn1284  1.937   .     S
O1226  Zn1270  1.937   .     S
O1227  Zn1275  1.937   .     S
O1228  Zn1276  1.937   .     S
O1229  Zn1273  1.937   .     S
O1230  Zn1274  1.937   .     S
O1231  Zn1707  1.937   .     S
O1232  Zn1278  1.937   .     S
O1233  Zn425   1.937   1_565 S
O1234  Zn1273  1.946   .     S
O1234  Zn1283  1.946   .     S
O1234  Zn1279  1.946   .     S
O1234  Zn1712  1.946   1_455 S
O1235  Zn1280  1.937   .     S
O1236  Zn1283  1.937   .     S
O1237  Zn1710  1.937   .     S
O1238  Zn1277  1.937   .     S
O1239  Zn413   1.937   1_565 S
O1240  Zn1706  1.937   .     S
O1241  Zn1279  1.937   .     S
O1242  Zn1269  1.937   .     S
O1243  Zn421   1.937   1_565 S
O1244  Zn1282  1.937   .     S
O1245  Zn1276  1.942   .     S
O1245  C121    1.276   1_565 A
O1246  Zn1711  1.937   .     S
O1247  Zn424   1.937   1_565 S
O1248  Zn1281  1.937   .     S
O1256  Zn1275  1.942   .     S
O1266  Zn1270  1.942   .     S
O1267  Zn1284  1.942   .     S
O1267  C1408   1.276   .     S
O1268  Zn1272  1.942   .     S
Zn1271 O356    1.946   1_565 S
Zn1274 O1651   1.946   .     S
Zn1276 O345    1.946   1_565 S
Zn1278 O1668   1.937   1_455 S
Zn1279 O1659   1.937   1_455 S
Zn1282 O1665   1.937   1_455 S
Zn1283 O1674   1.937   1_455 S
Zn1284 O1662   1.946   .     S
C1285  O1677   1.386   .     S
C1285  C1288   1.404   .     A
C1285  C1363   1.403   .     S
C1286  C1298   1.404   .     A
C1286  O1687   1.385   .     S
C1286  C528    1.403   1_565 S
C1287  C1447   1.404   .     A
C1287  C1390   1.403   .     A
C1287  C466    1.415   1_565 S
C1288  C1391   1.403   .     A
C1288  C1318   1.415   .     S
C1289  C1320   1.415   .     A
C1289  C1381   1.404   .     A
C1290  C1392   1.404   .     A
C1290  C1321   1.415   .     S
C1291  C1403   1.404   .     A
C1291  C1395   1.403   .     A
C1291  C1322   1.415   .     A
C1292  C1319   1.404   .     A
C1292  C1396   1.403   .     A
C1292  C467    1.415   1_565 S
C1293  C1330   1.404   .     A
C1293  C1324   1.415   .     A
C1293  C1397   1.403   .     A
C1294  C1325   1.415   .     A
C1294  C1398   1.403   .     A
C1294  C1341   1.404   .     A
C1295  C1399   1.403   .     A
C1295  C1352   1.404   .     A
C1295  C898    1.415   1_655 S
C1296  C1458   1.404   .     A
C1296  C1400   1.403   .     A
C1296  C1323   1.415   .     A
C1297  O1688   1.385   .     S
C1297  C1299   1.404   .     A
C1297  C957    1.403   1_655 A
C1298  C1401   1.403   .     A
C1298  C468    1.415   1_565 S
C1299  C1402   1.403   .     A
C1299  C897    1.415   1_655 S
C1300  C1404   1.403   .     A
C1300  C1308   1.404   .     A
C1300  C1326   1.415   .     A
C1301  C1448   1.401   .     A
C1301  C1450   1.401   .     A
C1301  C1420   1.455   .     S
C1302  C1421   1.455   .     S
C1302  C1449   1.401   .     A
C1302  C1446   1.401   .     A
C1303  C1413   1.455   .     S
C1303  C1445   1.401   .     A
C1303  C1452   1.401   .     A
C1304  C1444   1.401   .     A
C1304  C1451   1.401   .     A
C1304  C1415   1.455   .     S
C1305  C1454   1.401   .     A
C1305  C1443   1.401   .     A
C1305  C1416   1.455   .     S
C1306  C1417   1.455   .     S
C1306  C1442   1.401   .     A
C1306  C1453   1.401   .     A
C1307  C1418   1.455   .     S
C1307  C1441   1.401   .     A
C1307  C1456   1.401   .     A
C1308  C1386   1.403   .     A
C1308  O1689   1.386   .     S
C1309  C1455   1.401   .     A
C1309  C1419   1.455   .     S
C1309  C1440   1.401   .     A
C1310  C1429   1.455   .     S
C1310  C1439   1.401   .     A
C1310  C1459   1.401   .     A
C1311  C1438   1.401   .     A
C1311  C1430   1.455   .     S
C1311  C1457   1.401   .     A
C1312  C1437   1.401   .     A
C1312  C1461   1.401   .     A
C1312  C1422   1.455   .     S
C1313  C1423   1.455   .     S
C1313  C1435   1.401   .     A
C1313  C1460   1.401   .     A
C1314  C1434   1.401   .     A
C1314  C1463   1.401   .     A
C1314  C1424   1.455   .     S
C1315  C1462   1.401   .     A
C1315  C1433   1.401   .     A
C1315  C1426   1.455   .     S
C1316  C1465   1.401   .     A
C1316  C1432   1.401   .     A
C1316  C1427   1.455   .     S
C1317  C1431   1.401   .     A
C1317  C1428   1.455   .     S
C1317  C1464   1.401   .     A
C1318  C1320   1.410   .     S
C1319  O1690   1.385   .     S
C1319  C527    1.403   1_565 S
C1321  C1322   1.410   .     S
C1323  C1324   1.410   1_556 S
C1324  C1323   1.410   1_554 S
C1325  C1326   1.410   1_556 S
C1326  C1325   1.410   1_554 S
C1327  C1328   1.528   .     S
C1327  H1575   1.113   .     S
C1327  O1677   1.414   .     S
C1327  H1573   1.116   .     S
C1328  C1329   1.526   .     S
C1328  H1577   1.112   .     S
C1328  H1576   1.112   .     S
C1329  H1578   1.111   .     S
C1329  H1579   1.111   .     S
C1329  H1580   1.110   .     S
C1330  C1384   1.403   .     A
C1330  O1691   1.385   .     S
C1331  O1678   1.414   .     S
C1331  H1582   1.113   .     S
C1331  H1581   1.116   .     S
C1331  C1332   1.528   .     S
C1332  H1584   1.112   .     S
C1332  C1333   1.526   .     S
C1332  H1583   1.112   .     S
C1333  H1586   1.111   .     S
C1333  H1588   1.110   .     S
C1333  H1587   1.111   .     S
C1334  H1589   1.116   .     S
C1334  H1590   1.113   .     S
C1334  C1335   1.528   .     S
C1334  O1679   1.414   .     S
C1335  C1336   1.526   .     S
C1335  H1592   1.112   .     S
C1335  H1591   1.112   .     S
C1336  H1594   1.111   .     S
C1336  H1593   1.111   .     S
C1336  H1595   1.110   .     S
C1337  O1680   1.414   .     S
C1337  C1338   1.528   .     S
C1337  H1598   1.113   .     S
C1337  H1597   1.116   .     S
C1338  H1600   1.112   .     S
C1338  C1339   1.526   .     S
C1338  H1599   1.112   .     S
C1339  H1602   1.111   .     S
C1339  H1601   1.111   .     S
C1339  H1603   1.110   .     S
C1340  H1605   1.113   .     S
C1340  C1342   1.528   .     S
C1340  O1681   1.414   .     S
C1340  H1604   1.116   .     S
C1341  O1692   1.385   .     S
C1341  C1385   1.403   .     S
C1342  H1608   1.112   .     S
C1342  H1606   1.112   .     S
C1342  C1343   1.526   .     S
C1343  H1610   1.111   .     S
C1343  H1611   1.110   .     S
C1343  H1609   1.111   .     S
C1344  H1612   1.116   .     S
C1344  C1345   1.528   .     S
C1344  H1613   1.113   .     S
C1344  O1682   1.414   .     S
C1345  H1615   1.112   .     S
C1345  C1346   1.526   .     S
C1345  H1614   1.112   .     S
C1346  H1616   1.111   .     S
C1346  H1619   1.110   .     S
C1346  H1617   1.111   .     S
C1347  O1683   1.414   .     S
C1347  H1621   1.113   .     S
C1347  C1348   1.528   .     S
C1347  H1620   1.116   .     S
C1348  H1623   1.112   .     S
C1348  H1622   1.112   .     S
C1348  C1349   1.526   .     S
C1349  H1626   1.110   .     S
C1349  H1625   1.111   .     S
C1349  H1624   1.111   .     S
C1350  C1351   1.528   .     S
C1350  O1685   1.414   .     S
C1350  H1627   1.116   .     S
C1350  H1628   1.113   .     S
C1351  H1471   1.112   .     S
C1351  H1472   1.112   .     S
C1351  C1353   1.526   .     S
C1352  O1693   1.385   .     S
C1352  C958    1.403   1_655 S
C1353  H1475   1.110   .     S
C1353  H1474   1.111   .     S
C1353  H1473   1.111   .     S
C1354  H1476   1.116   .     S
C1354  H1477   1.113   .     S
C1354  O1686   1.414   .     S
C1354  C1355   1.528   .     S
C1355  H1478   1.112   .     S
C1355  H1479   1.112   .     S
C1355  C1356   1.526   .     S
C1356  H1480   1.111   .     S
C1356  H1483   1.110   .     S
C1356  H1482   1.111   .     S
C1357  H1485   1.113   .     S
C1357  O1687   1.414   .     S
C1357  C1358   1.528   .     S
C1357  H1484   1.116   .     S
C1358  H1487   1.112   .     S
C1358  H1486   1.112   .     S
C1358  C1359   1.526   .     S
C1359  H1489   1.111   .     S
C1359  H1490   1.110   .     S
C1359  H1488   1.111   .     S
C1360  H1493   1.113   .     S
C1360  O1688   1.414   .     S
C1360  H1491   1.116   .     S
C1360  C1361   1.528   .     S
C1361  H1494   1.112   .     S
C1361  C1362   1.526   .     S
C1361  H1495   1.112   .     S
C1362  H1498   1.111   .     S
C1362  H1496   1.110   .     S
C1362  H1497   1.111   .     S
C1363  C1407   1.449   .     S
C1364  H1500   1.113   .     S
C1364  H1499   1.116   .     S
C1364  C1365   1.528   .     S
C1364  O1689   1.414   .     S
C1365  H1501   1.112   .     S
C1365  C1366   1.526   .     S
C1365  H1502   1.112   .     S
C1366  H1506   1.110   .     S
C1366  H1504   1.111   .     S
C1366  H1505   1.111   .     S
C1367  H1507   1.116   .     S
C1367  C1368   1.528   .     S
C1367  O1690   1.414   .     S
C1367  H1508   1.113   .     S
C1368  H1509   1.112   .     S
C1368  C1369   1.526   .     S
C1368  H1510   1.112   .     S
C1369  H1513   1.110   .     S
C1369  H1512   1.111   .     S
C1369  H1511   1.111   .     S
C1370  H1515   1.116   .     S
C1370  O1691   1.414   .     S
C1370  H1516   1.113   .     S
C1370  C1371   1.528   .     S
C1371  H1517   1.112   .     S
C1371  C1372   1.526   .     S
C1371  H1518   1.112   .     S
C1372  H1519   1.111   .     S
C1372  H1521   1.110   .     S
C1372  H1520   1.111   .     S
C1373  H1522   1.116   .     S
C1373  C1375   1.528   .     S
C1373  H1523   1.113   .     S
C1373  O1692   1.414   .     S
C1374  C1381   1.403   .     A
C1374  C1408   1.449   .     S
C1375  C1376   1.526   .     S
C1375  H1524   1.112   .     S
C1375  H1526   1.112   .     S
C1376  H1527   1.111   .     S
C1376  H1529   1.110   .     S
C1376  H1528   1.111   .     S
C1377  H1531   1.113   .     S
C1377  O1693   1.414   .     S
C1377  H1530   1.116   .     S
C1377  C1378   1.528   .     S
C1378  H1532   1.112   .     S
C1378  C1379   1.526   .     S
C1378  H1533   1.112   .     S
C1379  H1537   1.110   .     S
C1379  H1534   1.111   .     S
C1379  H1535   1.111   .     S
C1380  C1405   1.449   .     S
C1380  C1392   1.403   .     S
C1381  O1678   1.385   .     S
C1382  C1406   1.449   .     S
C1382  C1403   1.403   .     A
C1383  C1458   1.403   .     A
C1383  C1411   1.449   .     S
C1384  C1412   1.449   .     S
C1385  C1409   1.449   .     S
C1386  C1410   1.449   .     S
C1387  H1469   1.083   .     S
C1387  C1393   1.390   .     A
C1387  C1466   1.403   .     A
C1388  C1391   1.390   .     A
C1388  H1541   1.083   .     S
C1389  H1552   1.083   .     S
C1389  C1395   1.390   .     A
C1390  H1563   1.083   .     S
C1390  C1394   1.390   .     A
C1391  H1574   1.083   .     S
C1392  O1679   1.385   .     S
C1393  H1585   1.083   .     S
C1393  C861    1.403   1_655 S
C1394  H1596   1.083   .     S
C1394  C434    1.403   1_565 S
C1395  H1607   1.083   .     S
C1396  H1618   1.083   .     S
C1396  C1401   1.390   1_556 S
C1397  H1470   1.083   .     S
C1397  C1400   1.390   1_554 S
C1398  H1481   1.083   .     S
C1398  C1404   1.390   1_556 S
C1399  H1492   1.083   .     S
C1399  C1402   1.390   1_554 S
C1400  H1503   1.083   .     S
C1400  C1397   1.390   1_556 S
C1401  H1514   1.083   .     S
C1401  C1396   1.390   1_554 S
C1402  H1525   1.083   .     S
C1402  C1399   1.390   1_556 S
C1403  O1680   1.385   .     S
C1404  H1536   1.083   .     S
C1404  C1398   1.390   1_554 S
C1405  O1696   1.276   .     S
C1406  O1684   1.276   .     A
C1407  O1694   1.276   .     S
C1408  O1632   1.276   .     A
C1409  O1633   1.276   .     A
C1409  O1637   1.276   .     A
C1410  O1634   1.277   .     A
C1410  O1638   1.276   .     S
C1411  O1635   1.276   .     A
C1411  O1639   1.276   .     A
C1412  O1636   1.276   .     A
C1412  O1641   1.276   .     A
C1413  O1670   1.280   .     A
C1413  O1642   1.280   .     A
C1414  C935    1.403   1_655 A
C1414  O1681   1.385   .     S
C1414  C1466   1.404   .     A
C1415  O1671   1.280   .     A
C1415  O1643   1.280   .     A
C1416  O1644   1.280   .     A
C1416  O1668   1.280   .     A
C1417  O1669   1.280   .     A
C1417  O1645   1.280   .     A
C1418  O1675   1.280   .     A
C1418  O1646   1.280   .     A
C1419  O1647   1.280   .     A
C1419  O1676   1.280   .     A
C1420  O1672   1.280   .     A
C1420  O1648   1.280   .     A
C1421  O1674   1.280   .     A
C1421  O1649   1.280   .     A
C1422  O1650   1.280   .     A
C1422  O1661   1.280   .     A
C1423  O1663   1.280   .     A
C1423  O1652   1.280   .     A
C1424  O1659   1.280   .     A
C1424  O1653   1.280   .     A
C1425  C1467   1.404   .     A
C1425  O1682   1.385   .     S
C1425  C946    1.403   1_655 S
C1426  O1654   1.280   .     A
C1426  O1660   1.280   .     A
C1427  O1655   1.280   .     A
C1427  O1666   1.280   .     A
C1428  O1667   1.280   .     A
C1428  O1656   1.280   .     A
C1429  O1664   1.280   .     A
C1429  O1657   1.280   .     A
C1430  O1658   1.280   .     A
C1430  O1665   1.280   .     A
C1431  C1448   1.386   .     A
C1431  H1538   1.083   .     S
C1432  C1446   1.386   .     A
C1432  H1539   1.083   .     S
C1433  H1540   1.083   .     S
C1433  C1445   1.386   .     A
C1434  C1444   1.386   .     A
C1434  H1542   1.083   .     S
C1435  H1543   1.083   .     S
C1435  C1443   1.386   .     A
C1436  C524    1.403   1_565 A
C1436  O1683   1.385   .     S
C1436  C1468   1.404   .     A
C1437  C1442   1.386   .     A
C1437  H1544   1.083   .     S
C1438  H1545   1.083   .     S
C1438  C1441   1.386   .     A
C1439  C1440   1.386   .     A
C1439  H1546   1.083   .     S
C1440  H1547   1.083   .     S
C1441  H1548   1.083   .     S
C1442  H1549   1.083   .     S
C1443  H1550   1.083   .     S
C1444  H1551   1.083   .     S
C1445  H1553   1.083   .     S
C1446  H1554   1.083   .     S
C1447  O1685   1.385   .     S
C1447  C526    1.403   1_565 S
C1448  H1555   1.083   .     S
C1449  H1556   1.083   .     S
C1449  C1465   1.386   .     A
C1450  H1557   1.083   .     S
C1450  C1464   1.386   .     A
C1451  C1463   1.386   .     A
C1451  H1558   1.083   .     S
C1452  H1559   1.083   .     S
C1452  C1462   1.386   .     A
C1453  H1560   1.083   .     S
C1453  C1461   1.386   .     A
C1454  C1460   1.386   .     A
C1454  H1561   1.083   .     S
C1455  C1459   1.386   .     A
C1455  H1562   1.083   .     S
C1456  H1564   1.083   .     S
C1456  C1457   1.386   .     A
C1457  H1565   1.083   .     S
C1458  O1686   1.385   .     S
C1459  H1566   1.083   .     S
C1460  H1567   1.083   .     S
C1461  H1568   1.083   .     S
C1462  H1569   1.083   .     S
C1463  H1570   1.083   .     S
C1464  H1571   1.083   .     S
C1465  H1572   1.083   .     S
C1466  C890    1.415   1_655 A
C1467  C892    1.415   1_655 S
C1467  C960    1.403   1_655 S
C1468  C465    1.415   1_565 A
C1468  C533    1.403   1_565 S
O1629  Zn1700  1.946   .     S
O1629  Zn1697  1.946   .     S
O1629  Zn1708  1.946   .     S
O1630  Zn1699  1.942   .     S
O1630  C550    1.276   1_565 S
O1631  Zn1702  1.942   .     S
O1631  C979    1.276   1_655 A
O1632  Zn1701  1.942   .     S
O1633  Zn1711  1.942   .     S
O1634  Zn1710  1.942   .     S
O1635  Zn1705  1.942   .     S
O1636  Zn1697  1.942   .     S
O1637  Zn1707  1.942   .     S
O1638  Zn1706  1.942   .     S
O1639  Zn1709  1.942   .     S
O1640  Zn1709  1.946   .     S
O1640  Zn1703  1.946   .     S
O1640  Zn1705  1.946   .     S
O1641  Zn1708  1.942   .     S
O1642  Zn1700  1.937   .     S
O1643  Zn1699  1.937   .     S
O1644  Zn1702  1.937   .     S
O1645  Zn1701  1.937   .     S
O1646  Zn1704  1.937   .     S
O1647  Zn1703  1.937   .     S
O1648  Zn1698  1.937   .     S
O1649  Zn1712  1.937   .     S
O1650  Zn1699  1.937   .     S
O1651  Zn1706  1.946   .     S
O1651  Zn1698  1.946   .     S
O1651  Zn1710  1.946   .     S
O1652  Zn1700  1.937   .     S
O1653  Zn1712  1.937   .     S
O1654  Zn1698  1.937   .     S
O1655  Zn1703  1.937   .     S
O1656  Zn1704  1.937   .     S
O1657  Zn1701  1.937   .     S
O1658  Zn1702  1.937   .     S
O1659  Zn1279  1.937   1_655 S
O1660  Zn1706  1.937   .     S
O1661  Zn853   1.937   1_565 S
O1662  Zn1701  1.946   .     S
O1662  Zn1711  1.946   .     S
O1662  Zn1707  1.946   .     S
O1663  Zn1708  1.937   .     S
O1664  Zn1711  1.937   .     S
O1665  Zn1282  1.937   1_655 S
O1666  Zn1705  1.937   .     S
O1667  Zn841   1.937   1_565 S
O1668  Zn1278  1.937   1_655 S
O1669  Zn1707  1.937   .     S
O1670  Zn1697  1.937   .     S
O1671  Zn849   1.937   1_565 S
O1672  Zn1710  1.937   .     S
O1673  Zn1704  1.942   .     S
O1673  C549    1.276   1_565 A
O1674  Zn1283  1.937   1_655 S
O1675  Zn852   1.937   1_565 S
O1676  Zn1709  1.937   .     S
O1684  Zn1703  1.942   .     S
O1694  Zn1698  1.942   .     S
O1695  Zn1712  1.942   .     S
O1695  C980    1.276   1_655 S
O1696  Zn1700  1.942   .     S
Zn1699 O784    1.946   1_565 S
Zn1702 O1223   1.946   1_655 S
Zn1704 O773    1.946   1_565 S
Zn1712 O1234   1.946   1_655 S
