data_str_m3_o1_o17_pcu_sym.138
_audit_creation_date              2020-01-03
_audit_creation_method            'Materials Studio'
_symmetry_space_group_name_H-M    'P1'
_symmetry_Int_Tables_number       1
_symmetry_cell_setting            triclinic
loop_
_symmetry_equiv_pos_as_xyz
  x,y,z
_cell_length_a                    32.3478
_cell_length_b                    30.0397
_cell_length_c                    29.7346
_cell_angle_alpha                 90.0002
_cell_angle_beta                  92.9546
_cell_angle_gamma                 90.0001
loop_
_atom_site_label
_atom_site_type_symbol
_atom_site_fract_x
_atom_site_fract_y
_atom_site_fract_z
_atom_site_U_iso_or_equiv
_atom_site_adp_type
_atom_site_occupancy
O1     O     0.10559   0.20487   0.24999   0.00000  Uiso   1.00
O2     O     0.22774   0.12846   0.25000   0.00000  Uiso   1.00
O3     O     0.22774   0.20487   0.25000   0.00000  Uiso   1.00
O4     O     0.10559   0.12846   0.24999   0.00000  Uiso   1.00
C5     C     0.08676   0.16667   0.24987   0.00000  Uiso   1.00
C6     C     0.24657   0.16667   0.25013   0.00000  Uiso   1.00
O7     O     0.16666   0.20489   0.18392   0.00000  Uiso   1.00
O8     O     0.16667   0.12844   0.31607   0.00000  Uiso   1.00
O9     O     0.16667   0.20489   0.31607   0.00000  Uiso   1.00
O10    O     0.16666   0.12844   0.18392   0.00000  Uiso   1.00
C11    C     0.16647   0.16675   0.16374   0.00000  Uiso   1.00
C12    C     0.16686   0.16675   0.33626   0.00000  Uiso   1.00
Zn13   Zn    0.16667   0.21771   0.25000   0.00000  Uiso   1.00
Zn14   Zn    0.16667   0.11563   0.25000   0.00000  Uiso   1.00
C15    C     0.20631   0.17229   0.40875   0.00000  Uiso   1.00
C16    C     0.12702   0.17228   0.09125   0.00000  Uiso   1.00
C17    C     0.16838   0.16765   0.38418   0.00000  Uiso   1.00
C18    C     0.16495   0.16765   0.11582   0.00000  Uiso   1.00
C19    C     0.13077   0.16986   0.40417   0.00000  Uiso   1.00
C20    C     0.20256   0.16986   0.09583   0.00000  Uiso   1.00
C21    C     0.12940   0.17468   0.45047   0.00000  Uiso   1.00
C22    C     0.20393   0.17468   0.04953   0.00000  Uiso   1.00
C23    C     0.16709   0.17792   0.47648   0.00000  Uiso   1.00
C24    C     0.16625   0.17792   0.02352   0.00000  Uiso   1.00
C25    C     0.20559   0.17993   0.45561   0.00000  Uiso   1.00
C26    C     0.12775   0.17993   0.04439   0.00000  Uiso   1.00
C27    C     0.09128   0.17836   0.47114   0.00000  Uiso   1.00
C28    C     0.24206   0.17836   0.02886   0.00000  Uiso   1.00
C29    C     0.09142   0.18830   0.01723   0.00000  Uiso   1.00
C30    C     0.24191   0.18831   0.48277   0.00000  Uiso   1.00
H31    H     0.10268   0.16871   0.38269   0.00000  Uiso   1.00
H32    H     0.23065   0.16871   0.11731   0.00000  Uiso   1.00
C33    C     0.02124   0.12613   0.24990   0.00000  Uiso   1.00
C34    C     0.31210   0.20722   0.25010   0.00000  Uiso   1.00
C35    C     0.31210   0.12613   0.25010   0.00000  Uiso   1.00
C36    C     0.02124   0.20722   0.24990   0.00000  Uiso   1.00
H37    H     0.03726   0.09446   0.24985   0.00000  Uiso   1.00
H38    H     0.29607   0.23888   0.25015   0.00000  Uiso   1.00
H39    H     0.29608   0.09446   0.25015   0.00000  Uiso   1.00
H40    H     0.03726   0.23888   0.24985   0.00000  Uiso   1.00
C41    C     0.29084   0.16667   0.25017   0.00000  Uiso   1.00
C42    C     0.04250   0.16667   0.24983   0.00000  Uiso   1.00
C43    C     0.19316   0.02383   0.27885   0.00000  Uiso   1.00
C44    C     0.14019   0.30943   0.22112   0.00000  Uiso   1.00
C45    C     0.14017   0.02383   0.22115   0.00000  Uiso   1.00
C46    C     0.19314   0.30943   0.27888   0.00000  Uiso   1.00
N47    N     0.16667   0.28573   0.25000   0.00000  Uiso   1.00
N48    N     0.16667   0.04760   0.25000   0.00000  Uiso   1.00
C49    C     0.24647   0.16443   0.38552   0.00000  Uiso   1.00
H50    H     0.26751   0.14291   0.40665   0.00000  Uiso   1.00
H51    H     0.24183   0.14646   0.35318   0.00000  Uiso   1.00
H52    H     0.26143   0.19657   0.37786   0.00000  Uiso   1.00
C53    C     0.08686   0.16442   0.11448   0.00000  Uiso   1.00
H54    H     0.06583   0.14290   0.09335   0.00000  Uiso   1.00
H55    H     0.09150   0.14645   0.14681   0.00000  Uiso   1.00
H56    H     0.07191   0.19656   0.12214   0.00000  Uiso   1.00
C57    C     0.05055   0.17073   0.44509   0.00000  Uiso   1.00
H58    H     0.05196   0.13989   0.42464   0.00000  Uiso   1.00
H59    H     0.02549   0.16493   0.46838   0.00000  Uiso   1.00
H60    H     0.04287   0.19965   0.42296   0.00000  Uiso   1.00
C61    C     0.28278   0.17073   0.05491   0.00000  Uiso   1.00
H62    H     0.28137   0.13990   0.07536   0.00000  Uiso   1.00
H63    H     0.30784   0.16492   0.03162   0.00000  Uiso   1.00
H64    H     0.29046   0.19966   0.07703   0.00000  Uiso   1.00
C65    C     0.05719   0.21723   0.03413   0.00000  Uiso   1.00
H66    H     0.04128   0.23618   0.00623   0.00000  Uiso   1.00
H67    H     0.03395   0.19699   0.05056   0.00000  Uiso   1.00
H68    H     0.07022   0.24252   0.05813   0.00000  Uiso   1.00
C69    C     0.27614   0.21723   0.46587   0.00000  Uiso   1.00
H70    H     0.29206   0.23618   0.49378   0.00000  Uiso   1.00
H71    H     0.29938   0.19699   0.44944   0.00000  Uiso   1.00
H72    H     0.26311   0.24253   0.44187   0.00000  Uiso   1.00
C73    C     0.22317   0.04730   0.31149   0.00000  Uiso   1.00
H74    H     0.22188   0.08321   0.30980   0.00000  Uiso   1.00
H75    H     0.21667   0.03837   0.34664   0.00000  Uiso   1.00
H76    H     0.25546   0.03812   0.30463   0.00000  Uiso   1.00
C77    C     0.11024   0.28588   0.18834   0.00000  Uiso   1.00
H78    H     0.11133   0.24987   0.18981   0.00000  Uiso   1.00
H79    H     0.07793   0.29511   0.19509   0.00000  Uiso   1.00
H80    H     0.11682   0.29489   0.15324   0.00000  Uiso   1.00
C81    C     0.11016   0.04730   0.18851   0.00000  Uiso   1.00
H82    H     0.11145   0.08321   0.19020   0.00000  Uiso   1.00
H83    H     0.11667   0.03837   0.15336   0.00000  Uiso   1.00
H84    H     0.07787   0.03812   0.19537   0.00000  Uiso   1.00
C85    C     0.22310   0.28588   0.31166   0.00000  Uiso   1.00
H86    H     0.22201   0.24987   0.31019   0.00000  Uiso   1.00
H87    H     0.25540   0.29511   0.30491   0.00000  Uiso   1.00
H88    H     0.21651   0.29489   0.34676   0.00000  Uiso   1.00
O89    O     0.43892   0.20487   0.24999   0.00000  Uiso   1.00
O90    O     0.56108   0.12846   0.25000   0.00000  Uiso   1.00
O91    O     0.56108   0.20487   0.25000   0.00000  Uiso   1.00
O92    O     0.43892   0.12846   0.24999   0.00000  Uiso   1.00
C93    C     0.42009   0.16667   0.24987   0.00000  Uiso   1.00
C94    C     0.57991   0.16667   0.25013   0.00000  Uiso   1.00
O95    O     0.49999   0.20489   0.18392   0.00000  Uiso   1.00
O96    O     0.50001   0.12844   0.31607   0.00000  Uiso   1.00
O97    O     0.50001   0.20489   0.31607   0.00000  Uiso   1.00
O98    O     0.49999   0.12844   0.18392   0.00000  Uiso   1.00
C99    C     0.49981   0.16675   0.16374   0.00000  Uiso   1.00
C100   C     0.50019   0.16675   0.33626   0.00000  Uiso   1.00
Zn101  Zn    0.50000   0.21771   0.25000   0.00000  Uiso   1.00
Zn102  Zn    0.50000   0.11563   0.25000   0.00000  Uiso   1.00
C103   C     0.53965   0.17229   0.40875   0.00000  Uiso   1.00
C104   C     0.46035   0.17228   0.09125   0.00000  Uiso   1.00
C105   C     0.50172   0.16765   0.38418   0.00000  Uiso   1.00
C106   C     0.49828   0.16765   0.11582   0.00000  Uiso   1.00
C107   C     0.46410   0.16986   0.40417   0.00000  Uiso   1.00
C108   C     0.53590   0.16986   0.09583   0.00000  Uiso   1.00
C109   C     0.46273   0.17468   0.45047   0.00000  Uiso   1.00
C110   C     0.53727   0.17468   0.04953   0.00000  Uiso   1.00
C111   C     0.50042   0.17792   0.47648   0.00000  Uiso   1.00
C112   C     0.49958   0.17792   0.02352   0.00000  Uiso   1.00
C113   C     0.53892   0.17993   0.45561   0.00000  Uiso   1.00
C114   C     0.46108   0.17993   0.04439   0.00000  Uiso   1.00
C115   C     0.42461   0.17836   0.47114   0.00000  Uiso   1.00
C116   C     0.57539   0.17836   0.02886   0.00000  Uiso   1.00
C117   C     0.42476   0.18830   0.01723   0.00000  Uiso   1.00
C118   C     0.57524   0.18831   0.48277   0.00000  Uiso   1.00
H119   H     0.43602   0.16871   0.38269   0.00000  Uiso   1.00
H120   H     0.56398   0.16871   0.11731   0.00000  Uiso   1.00
C121   C     0.35457   0.12613   0.24990   0.00000  Uiso   1.00
C122   C     0.64543   0.20722   0.25010   0.00000  Uiso   1.00
C123   C     0.64543   0.12613   0.25010   0.00000  Uiso   1.00
C124   C     0.35457   0.20722   0.24990   0.00000  Uiso   1.00
H125   H     0.37059   0.09446   0.24985   0.00000  Uiso   1.00
H126   H     0.62941   0.23888   0.25015   0.00000  Uiso   1.00
H127   H     0.62941   0.09446   0.25015   0.00000  Uiso   1.00
H128   H     0.37059   0.23888   0.24985   0.00000  Uiso   1.00
C129   C     0.62417   0.16667   0.25017   0.00000  Uiso   1.00
C130   C     0.37583   0.16667   0.24983   0.00000  Uiso   1.00
C131   C     0.52649   0.02383   0.27885   0.00000  Uiso   1.00
C132   C     0.47352   0.30943   0.22112   0.00000  Uiso   1.00
C133   C     0.47351   0.02383   0.22115   0.00000  Uiso   1.00
C134   C     0.52648   0.30943   0.27888   0.00000  Uiso   1.00
N135   N     0.50000   0.28573   0.25000   0.00000  Uiso   1.00
N136   N     0.50000   0.04760   0.25000   0.00000  Uiso   1.00
C137   C     0.57980   0.16443   0.38552   0.00000  Uiso   1.00
H138   H     0.60084   0.14291   0.40665   0.00000  Uiso   1.00
H139   H     0.57517   0.14646   0.35318   0.00000  Uiso   1.00
H140   H     0.59476   0.19657   0.37786   0.00000  Uiso   1.00
C141   C     0.42020   0.16442   0.11448   0.00000  Uiso   1.00
H142   H     0.39916   0.14290   0.09335   0.00000  Uiso   1.00
H143   H     0.42483   0.14645   0.14681   0.00000  Uiso   1.00
H144   H     0.40524   0.19656   0.12214   0.00000  Uiso   1.00
C145   C     0.38389   0.17073   0.44509   0.00000  Uiso   1.00
H146   H     0.38530   0.13989   0.42464   0.00000  Uiso   1.00
H147   H     0.35883   0.16493   0.46838   0.00000  Uiso   1.00
H148   H     0.37621   0.19965   0.42296   0.00000  Uiso   1.00
C149   C     0.61611   0.17073   0.05491   0.00000  Uiso   1.00
H150   H     0.61470   0.13990   0.07536   0.00000  Uiso   1.00
H151   H     0.64117   0.16492   0.03162   0.00000  Uiso   1.00
H152   H     0.62380   0.19966   0.07703   0.00000  Uiso   1.00
C153   C     0.39052   0.21723   0.03413   0.00000  Uiso   1.00
H154   H     0.37461   0.23618   0.00623   0.00000  Uiso   1.00
H155   H     0.36729   0.19699   0.05056   0.00000  Uiso   1.00
H156   H     0.40355   0.24252   0.05813   0.00000  Uiso   1.00
C157   C     0.60948   0.21723   0.46587   0.00000  Uiso   1.00
H158   H     0.62539   0.23618   0.49378   0.00000  Uiso   1.00
H159   H     0.63271   0.19699   0.44944   0.00000  Uiso   1.00
H160   H     0.59645   0.24253   0.44187   0.00000  Uiso   1.00
C161   C     0.55650   0.04730   0.31149   0.00000  Uiso   1.00
H162   H     0.55521   0.08321   0.30980   0.00000  Uiso   1.00
H163   H     0.55000   0.03837   0.34664   0.00000  Uiso   1.00
H164   H     0.58880   0.03812   0.30463   0.00000  Uiso   1.00
C165   C     0.44357   0.28588   0.18834   0.00000  Uiso   1.00
H166   H     0.44466   0.24987   0.18981   0.00000  Uiso   1.00
H167   H     0.41126   0.29511   0.19509   0.00000  Uiso   1.00
H168   H     0.45016   0.29489   0.15324   0.00000  Uiso   1.00
C169   C     0.44350   0.04730   0.18851   0.00000  Uiso   1.00
H170   H     0.44479   0.08321   0.19020   0.00000  Uiso   1.00
H171   H     0.45000   0.03837   0.15336   0.00000  Uiso   1.00
H172   H     0.41120   0.03812   0.19537   0.00000  Uiso   1.00
C173   C     0.55643   0.28588   0.31166   0.00000  Uiso   1.00
H174   H     0.55534   0.24987   0.31019   0.00000  Uiso   1.00
H175   H     0.58873   0.29511   0.30491   0.00000  Uiso   1.00
H176   H     0.54984   0.29489   0.34676   0.00000  Uiso   1.00
O177   O     0.77226   0.20487   0.24999   0.00000  Uiso   1.00
O178   O     0.89441   0.12846   0.25000   0.00000  Uiso   1.00
O179   O     0.89441   0.20487   0.25000   0.00000  Uiso   1.00
O180   O     0.77226   0.12846   0.24999   0.00000  Uiso   1.00
C181   C     0.75343   0.16667   0.24987   0.00000  Uiso   1.00
C182   C     0.91324   0.16667   0.25013   0.00000  Uiso   1.00
O183   O     0.83333   0.20489   0.18392   0.00000  Uiso   1.00
O184   O     0.83334   0.12844   0.31607   0.00000  Uiso   1.00
O185   O     0.83334   0.20489   0.31607   0.00000  Uiso   1.00
O186   O     0.83333   0.12844   0.18392   0.00000  Uiso   1.00
C187   C     0.83314   0.16675   0.16374   0.00000  Uiso   1.00
C188   C     0.83353   0.16675   0.33626   0.00000  Uiso   1.00
Zn189  Zn    0.83333   0.21771   0.25000   0.00000  Uiso   1.00
Zn190  Zn    0.83333   0.11563   0.25000   0.00000  Uiso   1.00
C191   C     0.87298   0.17229   0.40875   0.00000  Uiso   1.00
C192   C     0.79369   0.17228   0.09125   0.00000  Uiso   1.00
C193   C     0.83505   0.16765   0.38418   0.00000  Uiso   1.00
C194   C     0.83162   0.16765   0.11582   0.00000  Uiso   1.00
C195   C     0.79744   0.16986   0.40417   0.00000  Uiso   1.00
C196   C     0.86923   0.16986   0.09583   0.00000  Uiso   1.00
C197   C     0.79607   0.17468   0.45047   0.00000  Uiso   1.00
C198   C     0.87060   0.17468   0.04953   0.00000  Uiso   1.00
C199   C     0.83375   0.17792   0.47648   0.00000  Uiso   1.00
C200   C     0.83291   0.17792   0.02352   0.00000  Uiso   1.00
C201   C     0.87225   0.17993   0.45561   0.00000  Uiso   1.00
C202   C     0.79441   0.17993   0.04439   0.00000  Uiso   1.00
C203   C     0.75794   0.17836   0.47114   0.00000  Uiso   1.00
C204   C     0.90872   0.17836   0.02886   0.00000  Uiso   1.00
C205   C     0.75809   0.18830   0.01723   0.00000  Uiso   1.00
C206   C     0.90858   0.18831   0.48277   0.00000  Uiso   1.00
H207   H     0.76935   0.16871   0.38269   0.00000  Uiso   1.00
H208   H     0.89732   0.16871   0.11731   0.00000  Uiso   1.00
C209   C     0.68790   0.12613   0.24990   0.00000  Uiso   1.00
C210   C     0.97876   0.20722   0.25010   0.00000  Uiso   1.00
C211   C     0.97876   0.12613   0.25010   0.00000  Uiso   1.00
C212   C     0.68790   0.20722   0.24990   0.00000  Uiso   1.00
H213   H     0.70392   0.09446   0.24985   0.00000  Uiso   1.00
H214   H     0.96274   0.23888   0.25015   0.00000  Uiso   1.00
H215   H     0.96274   0.09446   0.25015   0.00000  Uiso   1.00
H216   H     0.70392   0.23888   0.24985   0.00000  Uiso   1.00
C217   C     0.95750   0.16667   0.25017   0.00000  Uiso   1.00
C218   C     0.70916   0.16667   0.24983   0.00000  Uiso   1.00
C219   C     0.85983   0.02383   0.27885   0.00000  Uiso   1.00
C220   C     0.80686   0.30943   0.22112   0.00000  Uiso   1.00
C221   C     0.80684   0.02383   0.22115   0.00000  Uiso   1.00
C222   C     0.85981   0.30943   0.27888   0.00000  Uiso   1.00
N223   N     0.83333   0.28573   0.25000   0.00000  Uiso   1.00
N224   N     0.83333   0.04760   0.25000   0.00000  Uiso   1.00
C225   C     0.91314   0.16443   0.38552   0.00000  Uiso   1.00
H226   H     0.93417   0.14291   0.40665   0.00000  Uiso   1.00
H227   H     0.90850   0.14646   0.35318   0.00000  Uiso   1.00
H228   H     0.92809   0.19657   0.37786   0.00000  Uiso   1.00
C229   C     0.75353   0.16442   0.11448   0.00000  Uiso   1.00
H230   H     0.73250   0.14290   0.09335   0.00000  Uiso   1.00
H231   H     0.75817   0.14645   0.14681   0.00000  Uiso   1.00
H232   H     0.73857   0.19656   0.12214   0.00000  Uiso   1.00
C233   C     0.71722   0.17073   0.44509   0.00000  Uiso   1.00
H234   H     0.71863   0.13989   0.42464   0.00000  Uiso   1.00
H235   H     0.69216   0.16493   0.46838   0.00000  Uiso   1.00
H236   H     0.70954   0.19965   0.42296   0.00000  Uiso   1.00
C237   C     0.94945   0.17073   0.05491   0.00000  Uiso   1.00
H238   H     0.94804   0.13990   0.07536   0.00000  Uiso   1.00
H239   H     0.97450   0.16492   0.03162   0.00000  Uiso   1.00
H240   H     0.95713   0.19966   0.07703   0.00000  Uiso   1.00
C241   C     0.72386   0.21723   0.03413   0.00000  Uiso   1.00
H242   H     0.70794   0.23618   0.00623   0.00000  Uiso   1.00
H243   H     0.70062   0.19699   0.05056   0.00000  Uiso   1.00
H244   H     0.73689   0.24252   0.05813   0.00000  Uiso   1.00
C245   C     0.94281   0.21723   0.46587   0.00000  Uiso   1.00
H246   H     0.95872   0.23618   0.49378   0.00000  Uiso   1.00
H247   H     0.96605   0.19699   0.44944   0.00000  Uiso   1.00
H248   H     0.92978   0.24253   0.44187   0.00000  Uiso   1.00
C249   C     0.88984   0.04730   0.31149   0.00000  Uiso   1.00
H250   H     0.88855   0.08321   0.30980   0.00000  Uiso   1.00
H251   H     0.88333   0.03837   0.34664   0.00000  Uiso   1.00
H252   H     0.92213   0.03812   0.30463   0.00000  Uiso   1.00
C253   C     0.77690   0.28588   0.18834   0.00000  Uiso   1.00
H254   H     0.77799   0.24987   0.18981   0.00000  Uiso   1.00
H255   H     0.74460   0.29511   0.19509   0.00000  Uiso   1.00
H256   H     0.78349   0.29489   0.15324   0.00000  Uiso   1.00
C257   C     0.77683   0.04730   0.18851   0.00000  Uiso   1.00
H258   H     0.77812   0.08321   0.19020   0.00000  Uiso   1.00
H259   H     0.78333   0.03837   0.15336   0.00000  Uiso   1.00
H260   H     0.74454   0.03812   0.19537   0.00000  Uiso   1.00
C261   C     0.88976   0.28588   0.31166   0.00000  Uiso   1.00
H262   H     0.88867   0.24987   0.31019   0.00000  Uiso   1.00
H263   H     0.92207   0.29511   0.30491   0.00000  Uiso   1.00
H264   H     0.88318   0.29489   0.34676   0.00000  Uiso   1.00
O265   O     0.10559   0.53821   0.24999   0.00000  Uiso   1.00
O266   O     0.22774   0.46179   0.25000   0.00000  Uiso   1.00
O267   O     0.22774   0.53821   0.25000   0.00000  Uiso   1.00
O268   O     0.10559   0.46179   0.24999   0.00000  Uiso   1.00
C269   C     0.08676   0.50000   0.24987   0.00000  Uiso   1.00
C270   C     0.24657   0.50000   0.25013   0.00000  Uiso   1.00
O271   O     0.16666   0.53823   0.18392   0.00000  Uiso   1.00
O272   O     0.16667   0.46177   0.31607   0.00000  Uiso   1.00
O273   O     0.16667   0.53823   0.31607   0.00000  Uiso   1.00
O274   O     0.16666   0.46177   0.18392   0.00000  Uiso   1.00
C275   C     0.16647   0.50008   0.16374   0.00000  Uiso   1.00
C276   C     0.16686   0.50008   0.33626   0.00000  Uiso   1.00
Zn277  Zn    0.16667   0.55104   0.25000   0.00000  Uiso   1.00
Zn278  Zn    0.16667   0.44896   0.25000   0.00000  Uiso   1.00
C279   C     0.20631   0.50562   0.40875   0.00000  Uiso   1.00
C280   C     0.12702   0.50562   0.09125   0.00000  Uiso   1.00
C281   C     0.16838   0.50098   0.38418   0.00000  Uiso   1.00
C282   C     0.16495   0.50098   0.11582   0.00000  Uiso   1.00
C283   C     0.13077   0.50319   0.40417   0.00000  Uiso   1.00
C284   C     0.20256   0.50319   0.09583   0.00000  Uiso   1.00
C285   C     0.12940   0.50801   0.45047   0.00000  Uiso   1.00
C286   C     0.20393   0.50801   0.04953   0.00000  Uiso   1.00
C287   C     0.16709   0.51125   0.47648   0.00000  Uiso   1.00
C288   C     0.16625   0.51125   0.02352   0.00000  Uiso   1.00
C289   C     0.20559   0.51326   0.45561   0.00000  Uiso   1.00
C290   C     0.12775   0.51326   0.04439   0.00000  Uiso   1.00
C291   C     0.09128   0.51169   0.47114   0.00000  Uiso   1.00
C292   C     0.24206   0.51170   0.02886   0.00000  Uiso   1.00
C293   C     0.09142   0.52164   0.01723   0.00000  Uiso   1.00
C294   C     0.24191   0.52164   0.48277   0.00000  Uiso   1.00
H295   H     0.10268   0.50204   0.38269   0.00000  Uiso   1.00
H296   H     0.23065   0.50204   0.11731   0.00000  Uiso   1.00
C297   C     0.02124   0.45946   0.24990   0.00000  Uiso   1.00
C298   C     0.31210   0.54055   0.25010   0.00000  Uiso   1.00
C299   C     0.31210   0.45946   0.25010   0.00000  Uiso   1.00
C300   C     0.02124   0.54055   0.24990   0.00000  Uiso   1.00
H301   H     0.03726   0.42779   0.24985   0.00000  Uiso   1.00
H302   H     0.29607   0.57221   0.25015   0.00000  Uiso   1.00
H303   H     0.29608   0.42779   0.25015   0.00000  Uiso   1.00
H304   H     0.03726   0.57221   0.24985   0.00000  Uiso   1.00
C305   C     0.29084   0.50000   0.25017   0.00000  Uiso   1.00
C306   C     0.04250   0.50000   0.24983   0.00000  Uiso   1.00
C307   C     0.19316   0.35717   0.27885   0.00000  Uiso   1.00
C308   C     0.14019   0.64276   0.22112   0.00000  Uiso   1.00
C309   C     0.14017   0.35717   0.22115   0.00000  Uiso   1.00
C310   C     0.19314   0.64276   0.27888   0.00000  Uiso   1.00
N311   N     0.16667   0.61907   0.25000   0.00000  Uiso   1.00
N312   N     0.16667   0.38093   0.25000   0.00000  Uiso   1.00
C313   C     0.24647   0.49776   0.38552   0.00000  Uiso   1.00
H314   H     0.26751   0.47624   0.40665   0.00000  Uiso   1.00
H315   H     0.24183   0.47979   0.35318   0.00000  Uiso   1.00
H316   H     0.26143   0.52990   0.37786   0.00000  Uiso   1.00
C317   C     0.08686   0.49776   0.11448   0.00000  Uiso   1.00
H318   H     0.06583   0.47623   0.09335   0.00000  Uiso   1.00
H319   H     0.09150   0.47978   0.14681   0.00000  Uiso   1.00
H320   H     0.07191   0.52989   0.12214   0.00000  Uiso   1.00
C321   C     0.05055   0.50406   0.44509   0.00000  Uiso   1.00
H322   H     0.05196   0.47322   0.42464   0.00000  Uiso   1.00
H323   H     0.02549   0.49826   0.46838   0.00000  Uiso   1.00
H324   H     0.04287   0.53298   0.42296   0.00000  Uiso   1.00
C325   C     0.28278   0.50406   0.05491   0.00000  Uiso   1.00
H326   H     0.28137   0.47323   0.07536   0.00000  Uiso   1.00
H327   H     0.30784   0.49826   0.03162   0.00000  Uiso   1.00
H328   H     0.29046   0.53299   0.07703   0.00000  Uiso   1.00
C329   C     0.05719   0.55056   0.03413   0.00000  Uiso   1.00
H330   H     0.04128   0.56951   0.00623   0.00000  Uiso   1.00
H331   H     0.03395   0.53032   0.05056   0.00000  Uiso   1.00
H332   H     0.07022   0.57585   0.05813   0.00000  Uiso   1.00
C333   C     0.27614   0.55056   0.46587   0.00000  Uiso   1.00
H334   H     0.29206   0.56951   0.49378   0.00000  Uiso   1.00
H335   H     0.29938   0.53033   0.44944   0.00000  Uiso   1.00
H336   H     0.26311   0.57586   0.44187   0.00000  Uiso   1.00
C337   C     0.22317   0.38063   0.31149   0.00000  Uiso   1.00
H338   H     0.22188   0.41654   0.30980   0.00000  Uiso   1.00
H339   H     0.21667   0.37170   0.34664   0.00000  Uiso   1.00
H340   H     0.25546   0.37146   0.30463   0.00000  Uiso   1.00
C341   C     0.11024   0.61921   0.18834   0.00000  Uiso   1.00
H342   H     0.11133   0.58321   0.18981   0.00000  Uiso   1.00
H343   H     0.07793   0.62844   0.19509   0.00000  Uiso   1.00
H344   H     0.11682   0.62823   0.15324   0.00000  Uiso   1.00
C345   C     0.11016   0.38063   0.18851   0.00000  Uiso   1.00
H346   H     0.11145   0.41654   0.19020   0.00000  Uiso   1.00
H347   H     0.11667   0.37170   0.15336   0.00000  Uiso   1.00
H348   H     0.07787   0.37146   0.19537   0.00000  Uiso   1.00
C349   C     0.22310   0.61921   0.31166   0.00000  Uiso   1.00
H350   H     0.22201   0.58321   0.31019   0.00000  Uiso   1.00
H351   H     0.25540   0.62844   0.30491   0.00000  Uiso   1.00
H352   H     0.21651   0.62823   0.34676   0.00000  Uiso   1.00
O353   O     0.43892   0.53821   0.24999   0.00000  Uiso   1.00
O354   O     0.56108   0.46179   0.25000   0.00000  Uiso   1.00
O355   O     0.56108   0.53821   0.25000   0.00000  Uiso   1.00
O356   O     0.43892   0.46179   0.24999   0.00000  Uiso   1.00
C357   C     0.42009   0.50000   0.24987   0.00000  Uiso   1.00
C358   C     0.57991   0.50000   0.25013   0.00000  Uiso   1.00
O359   O     0.49999   0.53823   0.18392   0.00000  Uiso   1.00
O360   O     0.50001   0.46177   0.31607   0.00000  Uiso   1.00
O361   O     0.50001   0.53823   0.31607   0.00000  Uiso   1.00
O362   O     0.49999   0.46177   0.18392   0.00000  Uiso   1.00
C363   C     0.49981   0.50008   0.16374   0.00000  Uiso   1.00
C364   C     0.50019   0.50008   0.33626   0.00000  Uiso   1.00
Zn365  Zn    0.50000   0.55104   0.25000   0.00000  Uiso   1.00
Zn366  Zn    0.50000   0.44896   0.25000   0.00000  Uiso   1.00
C367   C     0.53965   0.50562   0.40875   0.00000  Uiso   1.00
C368   C     0.46035   0.50562   0.09125   0.00000  Uiso   1.00
C369   C     0.50172   0.50098   0.38418   0.00000  Uiso   1.00
C370   C     0.49828   0.50098   0.11582   0.00000  Uiso   1.00
C371   C     0.46410   0.50319   0.40417   0.00000  Uiso   1.00
C372   C     0.53590   0.50319   0.09583   0.00000  Uiso   1.00
C373   C     0.46273   0.50801   0.45047   0.00000  Uiso   1.00
C374   C     0.53727   0.50801   0.04953   0.00000  Uiso   1.00
C375   C     0.50042   0.51125   0.47648   0.00000  Uiso   1.00
C376   C     0.49958   0.51125   0.02352   0.00000  Uiso   1.00
C377   C     0.53892   0.51326   0.45561   0.00000  Uiso   1.00
C378   C     0.46108   0.51326   0.04439   0.00000  Uiso   1.00
C379   C     0.42461   0.51169   0.47114   0.00000  Uiso   1.00
C380   C     0.57539   0.51170   0.02886   0.00000  Uiso   1.00
C381   C     0.42476   0.52164   0.01723   0.00000  Uiso   1.00
C382   C     0.57524   0.52164   0.48277   0.00000  Uiso   1.00
H383   H     0.43602   0.50204   0.38269   0.00000  Uiso   1.00
H384   H     0.56398   0.50204   0.11731   0.00000  Uiso   1.00
C385   C     0.35457   0.45946   0.24990   0.00000  Uiso   1.00
C386   C     0.64543   0.54055   0.25010   0.00000  Uiso   1.00
C387   C     0.64543   0.45946   0.25010   0.00000  Uiso   1.00
C388   C     0.35457   0.54055   0.24990   0.00000  Uiso   1.00
H389   H     0.37059   0.42779   0.24985   0.00000  Uiso   1.00
H390   H     0.62941   0.57221   0.25015   0.00000  Uiso   1.00
H391   H     0.62941   0.42779   0.25015   0.00000  Uiso   1.00
H392   H     0.37059   0.57221   0.24985   0.00000  Uiso   1.00
C393   C     0.62417   0.50000   0.25017   0.00000  Uiso   1.00
C394   C     0.37583   0.50000   0.24983   0.00000  Uiso   1.00
C395   C     0.52649   0.35717   0.27885   0.00000  Uiso   1.00
C396   C     0.47352   0.64276   0.22112   0.00000  Uiso   1.00
C397   C     0.47351   0.35717   0.22115   0.00000  Uiso   1.00
C398   C     0.52648   0.64276   0.27888   0.00000  Uiso   1.00
N399   N     0.50000   0.61907   0.25000   0.00000  Uiso   1.00
N400   N     0.50000   0.38093   0.25000   0.00000  Uiso   1.00
C401   C     0.57980   0.49776   0.38552   0.00000  Uiso   1.00
H402   H     0.60084   0.47624   0.40665   0.00000  Uiso   1.00
H403   H     0.57517   0.47979   0.35318   0.00000  Uiso   1.00
H404   H     0.59476   0.52990   0.37786   0.00000  Uiso   1.00
C405   C     0.42020   0.49776   0.11448   0.00000  Uiso   1.00
H406   H     0.39916   0.47623   0.09335   0.00000  Uiso   1.00
H407   H     0.42483   0.47978   0.14681   0.00000  Uiso   1.00
H408   H     0.40524   0.52989   0.12214   0.00000  Uiso   1.00
C409   C     0.38389   0.50406   0.44509   0.00000  Uiso   1.00
H410   H     0.38530   0.47322   0.42464   0.00000  Uiso   1.00
H411   H     0.35883   0.49826   0.46838   0.00000  Uiso   1.00
H412   H     0.37621   0.53298   0.42296   0.00000  Uiso   1.00
C413   C     0.61611   0.50406   0.05491   0.00000  Uiso   1.00
H414   H     0.61470   0.47323   0.07536   0.00000  Uiso   1.00
H415   H     0.64117   0.49826   0.03162   0.00000  Uiso   1.00
H416   H     0.62380   0.53299   0.07703   0.00000  Uiso   1.00
C417   C     0.39052   0.55056   0.03413   0.00000  Uiso   1.00
H418   H     0.37461   0.56951   0.00623   0.00000  Uiso   1.00
H419   H     0.36729   0.53032   0.05056   0.00000  Uiso   1.00
H420   H     0.40355   0.57585   0.05813   0.00000  Uiso   1.00
C421   C     0.60948   0.55056   0.46587   0.00000  Uiso   1.00
H422   H     0.62539   0.56951   0.49378   0.00000  Uiso   1.00
H423   H     0.63271   0.53033   0.44944   0.00000  Uiso   1.00
H424   H     0.59645   0.57586   0.44187   0.00000  Uiso   1.00
C425   C     0.55650   0.38063   0.31149   0.00000  Uiso   1.00
H426   H     0.55521   0.41654   0.30980   0.00000  Uiso   1.00
H427   H     0.55000   0.37170   0.34664   0.00000  Uiso   1.00
H428   H     0.58880   0.37146   0.30463   0.00000  Uiso   1.00
C429   C     0.44357   0.61921   0.18834   0.00000  Uiso   1.00
H430   H     0.44466   0.58321   0.18981   0.00000  Uiso   1.00
H431   H     0.41126   0.62844   0.19509   0.00000  Uiso   1.00
H432   H     0.45016   0.62823   0.15324   0.00000  Uiso   1.00
C433   C     0.44350   0.38063   0.18851   0.00000  Uiso   1.00
H434   H     0.44479   0.41654   0.19020   0.00000  Uiso   1.00
H435   H     0.45000   0.37170   0.15336   0.00000  Uiso   1.00
H436   H     0.41120   0.37146   0.19537   0.00000  Uiso   1.00
C437   C     0.55643   0.61921   0.31166   0.00000  Uiso   1.00
H438   H     0.55534   0.58321   0.31019   0.00000  Uiso   1.00
H439   H     0.58873   0.62844   0.30491   0.00000  Uiso   1.00
H440   H     0.54984   0.62823   0.34676   0.00000  Uiso   1.00
O441   O     0.77226   0.53821   0.24999   0.00000  Uiso   1.00
O442   O     0.89441   0.46179   0.25000   0.00000  Uiso   1.00
O443   O     0.89441   0.53821   0.25000   0.00000  Uiso   1.00
O444   O     0.77226   0.46179   0.24999   0.00000  Uiso   1.00
C445   C     0.75343   0.50000   0.24987   0.00000  Uiso   1.00
C446   C     0.91324   0.50000   0.25013   0.00000  Uiso   1.00
O447   O     0.83333   0.53823   0.18392   0.00000  Uiso   1.00
O448   O     0.83334   0.46177   0.31607   0.00000  Uiso   1.00
O449   O     0.83334   0.53823   0.31607   0.00000  Uiso   1.00
O450   O     0.83333   0.46177   0.18392   0.00000  Uiso   1.00
C451   C     0.83314   0.50008   0.16374   0.00000  Uiso   1.00
C452   C     0.83353   0.50008   0.33626   0.00000  Uiso   1.00
Zn453  Zn    0.83333   0.55104   0.25000   0.00000  Uiso   1.00
Zn454  Zn    0.83333   0.44896   0.25000   0.00000  Uiso   1.00
C455   C     0.87298   0.50562   0.40875   0.00000  Uiso   1.00
C456   C     0.79369   0.50562   0.09125   0.00000  Uiso   1.00
C457   C     0.83505   0.50098   0.38418   0.00000  Uiso   1.00
C458   C     0.83162   0.50098   0.11582   0.00000  Uiso   1.00
C459   C     0.79744   0.50319   0.40417   0.00000  Uiso   1.00
C460   C     0.86923   0.50319   0.09583   0.00000  Uiso   1.00
C461   C     0.79607   0.50801   0.45047   0.00000  Uiso   1.00
C462   C     0.87060   0.50801   0.04953   0.00000  Uiso   1.00
C463   C     0.83375   0.51125   0.47648   0.00000  Uiso   1.00
C464   C     0.83291   0.51125   0.02352   0.00000  Uiso   1.00
C465   C     0.87225   0.51326   0.45561   0.00000  Uiso   1.00
C466   C     0.79441   0.51326   0.04439   0.00000  Uiso   1.00
C467   C     0.75794   0.51169   0.47114   0.00000  Uiso   1.00
C468   C     0.90872   0.51170   0.02886   0.00000  Uiso   1.00
C469   C     0.75809   0.52164   0.01723   0.00000  Uiso   1.00
C470   C     0.90858   0.52164   0.48277   0.00000  Uiso   1.00
H471   H     0.76935   0.50204   0.38269   0.00000  Uiso   1.00
H472   H     0.89732   0.50204   0.11731   0.00000  Uiso   1.00
C473   C     0.68790   0.45946   0.24990   0.00000  Uiso   1.00
C474   C     0.97876   0.54055   0.25010   0.00000  Uiso   1.00
C475   C     0.97876   0.45946   0.25010   0.00000  Uiso   1.00
C476   C     0.68790   0.54055   0.24990   0.00000  Uiso   1.00
H477   H     0.70392   0.42779   0.24985   0.00000  Uiso   1.00
H478   H     0.96274   0.57221   0.25015   0.00000  Uiso   1.00
H479   H     0.96274   0.42779   0.25015   0.00000  Uiso   1.00
H480   H     0.70392   0.57221   0.24985   0.00000  Uiso   1.00
C481   C     0.95750   0.50000   0.25017   0.00000  Uiso   1.00
C482   C     0.70916   0.50000   0.24983   0.00000  Uiso   1.00
C483   C     0.85983   0.35717   0.27885   0.00000  Uiso   1.00
C484   C     0.80686   0.64276   0.22112   0.00000  Uiso   1.00
C485   C     0.80684   0.35717   0.22115   0.00000  Uiso   1.00
C486   C     0.85981   0.64276   0.27888   0.00000  Uiso   1.00
N487   N     0.83333   0.61907   0.25000   0.00000  Uiso   1.00
N488   N     0.83333   0.38093   0.25000   0.00000  Uiso   1.00
C489   C     0.91314   0.49776   0.38552   0.00000  Uiso   1.00
H490   H     0.93417   0.47624   0.40665   0.00000  Uiso   1.00
H491   H     0.90850   0.47979   0.35318   0.00000  Uiso   1.00
H492   H     0.92809   0.52990   0.37786   0.00000  Uiso   1.00
C493   C     0.75353   0.49776   0.11448   0.00000  Uiso   1.00
H494   H     0.73250   0.47623   0.09335   0.00000  Uiso   1.00
H495   H     0.75817   0.47978   0.14681   0.00000  Uiso   1.00
H496   H     0.73857   0.52989   0.12214   0.00000  Uiso   1.00
C497   C     0.71722   0.50406   0.44509   0.00000  Uiso   1.00
H498   H     0.71863   0.47322   0.42464   0.00000  Uiso   1.00
H499   H     0.69216   0.49826   0.46838   0.00000  Uiso   1.00
H500   H     0.70954   0.53298   0.42296   0.00000  Uiso   1.00
C501   C     0.94945   0.50406   0.05491   0.00000  Uiso   1.00
H502   H     0.94804   0.47323   0.07536   0.00000  Uiso   1.00
H503   H     0.97450   0.49826   0.03162   0.00000  Uiso   1.00
H504   H     0.95713   0.53299   0.07703   0.00000  Uiso   1.00
C505   C     0.72386   0.55056   0.03413   0.00000  Uiso   1.00
H506   H     0.70794   0.56951   0.00623   0.00000  Uiso   1.00
H507   H     0.70062   0.53032   0.05056   0.00000  Uiso   1.00
H508   H     0.73689   0.57585   0.05813   0.00000  Uiso   1.00
C509   C     0.94281   0.55056   0.46587   0.00000  Uiso   1.00
H510   H     0.95872   0.56951   0.49378   0.00000  Uiso   1.00
H511   H     0.96605   0.53033   0.44944   0.00000  Uiso   1.00
H512   H     0.92978   0.57586   0.44187   0.00000  Uiso   1.00
C513   C     0.88984   0.38063   0.31149   0.00000  Uiso   1.00
H514   H     0.88855   0.41654   0.30980   0.00000  Uiso   1.00
H515   H     0.88333   0.37170   0.34664   0.00000  Uiso   1.00
H516   H     0.92213   0.37146   0.30463   0.00000  Uiso   1.00
C517   C     0.77690   0.61921   0.18834   0.00000  Uiso   1.00
H518   H     0.77799   0.58321   0.18981   0.00000  Uiso   1.00
H519   H     0.74460   0.62844   0.19509   0.00000  Uiso   1.00
H520   H     0.78349   0.62823   0.15324   0.00000  Uiso   1.00
C521   C     0.77683   0.38063   0.18851   0.00000  Uiso   1.00
H522   H     0.77812   0.41654   0.19020   0.00000  Uiso   1.00
H523   H     0.78333   0.37170   0.15336   0.00000  Uiso   1.00
H524   H     0.74454   0.37146   0.19537   0.00000  Uiso   1.00
C525   C     0.88976   0.61921   0.31166   0.00000  Uiso   1.00
H526   H     0.88867   0.58321   0.31019   0.00000  Uiso   1.00
H527   H     0.92207   0.62844   0.30491   0.00000  Uiso   1.00
H528   H     0.88318   0.62823   0.34676   0.00000  Uiso   1.00
O529   O     0.10559   0.87154   0.24999   0.00000  Uiso   1.00
O530   O     0.22774   0.79513   0.25000   0.00000  Uiso   1.00
O531   O     0.22774   0.87154   0.25000   0.00000  Uiso   1.00
O532   O     0.10559   0.79513   0.24999   0.00000  Uiso   1.00
C533   C     0.08676   0.83333   0.24987   0.00000  Uiso   1.00
C534   C     0.24657   0.83333   0.25013   0.00000  Uiso   1.00
O535   O     0.16666   0.87156   0.18392   0.00000  Uiso   1.00
O536   O     0.16667   0.79511   0.31607   0.00000  Uiso   1.00
O537   O     0.16667   0.87156   0.31607   0.00000  Uiso   1.00
O538   O     0.16666   0.79511   0.18392   0.00000  Uiso   1.00
C539   C     0.16647   0.83341   0.16374   0.00000  Uiso   1.00
C540   C     0.16686   0.83341   0.33626   0.00000  Uiso   1.00
Zn541  Zn    0.16667   0.88437   0.25000   0.00000  Uiso   1.00
Zn542  Zn    0.16667   0.78229   0.25000   0.00000  Uiso   1.00
C543   C     0.20631   0.83895   0.40875   0.00000  Uiso   1.00
C544   C     0.12702   0.83895   0.09125   0.00000  Uiso   1.00
C545   C     0.16838   0.83431   0.38418   0.00000  Uiso   1.00
C546   C     0.16495   0.83431   0.11582   0.00000  Uiso   1.00
C547   C     0.13077   0.83652   0.40417   0.00000  Uiso   1.00
C548   C     0.20256   0.83653   0.09583   0.00000  Uiso   1.00
C549   C     0.12940   0.84135   0.45047   0.00000  Uiso   1.00
C550   C     0.20393   0.84135   0.04953   0.00000  Uiso   1.00
C551   C     0.16709   0.84458   0.47648   0.00000  Uiso   1.00
C552   C     0.16625   0.84458   0.02352   0.00000  Uiso   1.00
C553   C     0.20559   0.84660   0.45561   0.00000  Uiso   1.00
C554   C     0.12775   0.84660   0.04439   0.00000  Uiso   1.00
C555   C     0.09128   0.84503   0.47114   0.00000  Uiso   1.00
C556   C     0.24206   0.84503   0.02886   0.00000  Uiso   1.00
C557   C     0.09142   0.85497   0.01723   0.00000  Uiso   1.00
C558   C     0.24191   0.85497   0.48277   0.00000  Uiso   1.00
H559   H     0.10268   0.83537   0.38269   0.00000  Uiso   1.00
H560   H     0.23065   0.83538   0.11731   0.00000  Uiso   1.00
C561   C     0.02124   0.79279   0.24990   0.00000  Uiso   1.00
C562   C     0.31210   0.87388   0.25010   0.00000  Uiso   1.00
C563   C     0.31210   0.79279   0.25010   0.00000  Uiso   1.00
C564   C     0.02124   0.87388   0.24990   0.00000  Uiso   1.00
H565   H     0.03726   0.76113   0.24985   0.00000  Uiso   1.00
H566   H     0.29607   0.90555   0.25015   0.00000  Uiso   1.00
H567   H     0.29608   0.76113   0.25015   0.00000  Uiso   1.00
H568   H     0.03726   0.90555   0.24985   0.00000  Uiso   1.00
C569   C     0.29084   0.83334   0.25017   0.00000  Uiso   1.00
C570   C     0.04250   0.83334   0.24983   0.00000  Uiso   1.00
C571   C     0.19316   0.69050   0.27885   0.00000  Uiso   1.00
C572   C     0.14019   0.97609   0.22112   0.00000  Uiso   1.00
C573   C     0.14017   0.69050   0.22115   0.00000  Uiso   1.00
C574   C     0.19314   0.97609   0.27888   0.00000  Uiso   1.00
N575   N     0.16667   0.95240   0.25000   0.00000  Uiso   1.00
N576   N     0.16667   0.71427   0.25000   0.00000  Uiso   1.00
C577   C     0.24647   0.83110   0.38552   0.00000  Uiso   1.00
H578   H     0.26751   0.80957   0.40665   0.00000  Uiso   1.00
H579   H     0.24183   0.81313   0.35318   0.00000  Uiso   1.00
H580   H     0.26143   0.86323   0.37786   0.00000  Uiso   1.00
C581   C     0.08686   0.83109   0.11448   0.00000  Uiso   1.00
H582   H     0.06583   0.80957   0.09335   0.00000  Uiso   1.00
H583   H     0.09150   0.81312   0.14681   0.00000  Uiso   1.00
H584   H     0.07191   0.86322   0.12214   0.00000  Uiso   1.00
C585   C     0.05055   0.83739   0.44509   0.00000  Uiso   1.00
H586   H     0.05196   0.80656   0.42464   0.00000  Uiso   1.00
H587   H     0.02549   0.83159   0.46838   0.00000  Uiso   1.00
H588   H     0.04287   0.86631   0.42296   0.00000  Uiso   1.00
C589   C     0.28278   0.83740   0.05491   0.00000  Uiso   1.00
H590   H     0.28137   0.80656   0.07536   0.00000  Uiso   1.00
H591   H     0.30784   0.83159   0.03162   0.00000  Uiso   1.00
H592   H     0.29046   0.86632   0.07703   0.00000  Uiso   1.00
C593   C     0.05719   0.88389   0.03413   0.00000  Uiso   1.00
H594   H     0.04128   0.90284   0.00623   0.00000  Uiso   1.00
H595   H     0.03395   0.86366   0.05056   0.00000  Uiso   1.00
H596   H     0.07022   0.90919   0.05813   0.00000  Uiso   1.00
C597   C     0.27614   0.88390   0.46587   0.00000  Uiso   1.00
H598   H     0.29206   0.90285   0.49378   0.00000  Uiso   1.00
H599   H     0.29938   0.86366   0.44944   0.00000  Uiso   1.00
H600   H     0.26311   0.90919   0.44187   0.00000  Uiso   1.00
C601   C     0.22317   0.71397   0.31149   0.00000  Uiso   1.00
H602   H     0.22188   0.74988   0.30980   0.00000  Uiso   1.00
H603   H     0.21667   0.70503   0.34664   0.00000  Uiso   1.00
H604   H     0.25546   0.70479   0.30463   0.00000  Uiso   1.00
C605   C     0.11024   0.95254   0.18834   0.00000  Uiso   1.00
H606   H     0.11133   0.91654   0.18981   0.00000  Uiso   1.00
H607   H     0.07793   0.96178   0.19509   0.00000  Uiso   1.00
H608   H     0.11682   0.96156   0.15324   0.00000  Uiso   1.00
C609   C     0.11016   0.71397   0.18851   0.00000  Uiso   1.00
H610   H     0.11145   0.74988   0.19020   0.00000  Uiso   1.00
H611   H     0.11667   0.70503   0.15336   0.00000  Uiso   1.00
H612   H     0.07787   0.70479   0.19537   0.00000  Uiso   1.00
C613   C     0.22310   0.95254   0.31166   0.00000  Uiso   1.00
H614   H     0.22201   0.91654   0.31019   0.00000  Uiso   1.00
H615   H     0.25540   0.96178   0.30491   0.00000  Uiso   1.00
H616   H     0.21651   0.96156   0.34676   0.00000  Uiso   1.00
O617   O     0.43892   0.87154   0.24999   0.00000  Uiso   1.00
O618   O     0.56108   0.79513   0.25000   0.00000  Uiso   1.00
O619   O     0.56108   0.87154   0.25000   0.00000  Uiso   1.00
O620   O     0.43892   0.79513   0.24999   0.00000  Uiso   1.00
C621   C     0.42009   0.83333   0.24987   0.00000  Uiso   1.00
C622   C     0.57991   0.83333   0.25013   0.00000  Uiso   1.00
O623   O     0.49999   0.87156   0.18392   0.00000  Uiso   1.00
O624   O     0.50001   0.79511   0.31607   0.00000  Uiso   1.00
O625   O     0.50001   0.87156   0.31607   0.00000  Uiso   1.00
O626   O     0.49999   0.79511   0.18392   0.00000  Uiso   1.00
C627   C     0.49981   0.83341   0.16374   0.00000  Uiso   1.00
C628   C     0.50019   0.83341   0.33626   0.00000  Uiso   1.00
Zn629  Zn    0.50000   0.88437   0.25000   0.00000  Uiso   1.00
Zn630  Zn    0.50000   0.78229   0.25000   0.00000  Uiso   1.00
C631   C     0.53965   0.83895   0.40875   0.00000  Uiso   1.00
C632   C     0.46035   0.83895   0.09125   0.00000  Uiso   1.00
C633   C     0.50172   0.83431   0.38418   0.00000  Uiso   1.00
C634   C     0.49828   0.83431   0.11582   0.00000  Uiso   1.00
C635   C     0.46410   0.83652   0.40417   0.00000  Uiso   1.00
C636   C     0.53590   0.83653   0.09583   0.00000  Uiso   1.00
C637   C     0.46273   0.84135   0.45047   0.00000  Uiso   1.00
C638   C     0.53727   0.84135   0.04953   0.00000  Uiso   1.00
C639   C     0.50042   0.84458   0.47648   0.00000  Uiso   1.00
C640   C     0.49958   0.84458   0.02352   0.00000  Uiso   1.00
C641   C     0.53892   0.84660   0.45561   0.00000  Uiso   1.00
C642   C     0.46108   0.84660   0.04439   0.00000  Uiso   1.00
C643   C     0.42461   0.84503   0.47114   0.00000  Uiso   1.00
C644   C     0.57539   0.84503   0.02886   0.00000  Uiso   1.00
C645   C     0.42476   0.85497   0.01723   0.00000  Uiso   1.00
C646   C     0.57524   0.85497   0.48277   0.00000  Uiso   1.00
H647   H     0.43602   0.83537   0.38269   0.00000  Uiso   1.00
H648   H     0.56398   0.83538   0.11731   0.00000  Uiso   1.00
C649   C     0.35457   0.79279   0.24990   0.00000  Uiso   1.00
C650   C     0.64543   0.87388   0.25010   0.00000  Uiso   1.00
C651   C     0.64543   0.79279   0.25010   0.00000  Uiso   1.00
C652   C     0.35457   0.87388   0.24990   0.00000  Uiso   1.00
H653   H     0.37059   0.76113   0.24985   0.00000  Uiso   1.00
H654   H     0.62941   0.90555   0.25015   0.00000  Uiso   1.00
H655   H     0.62941   0.76113   0.25015   0.00000  Uiso   1.00
H656   H     0.37059   0.90555   0.24985   0.00000  Uiso   1.00
C657   C     0.62417   0.83334   0.25017   0.00000  Uiso   1.00
C658   C     0.37583   0.83334   0.24983   0.00000  Uiso   1.00
C659   C     0.52649   0.69050   0.27885   0.00000  Uiso   1.00
C660   C     0.47352   0.97609   0.22112   0.00000  Uiso   1.00
C661   C     0.47351   0.69050   0.22115   0.00000  Uiso   1.00
C662   C     0.52648   0.97609   0.27888   0.00000  Uiso   1.00
N663   N     0.50000   0.95240   0.25000   0.00000  Uiso   1.00
N664   N     0.50000   0.71427   0.25000   0.00000  Uiso   1.00
C665   C     0.57980   0.83110   0.38552   0.00000  Uiso   1.00
H666   H     0.60084   0.80957   0.40665   0.00000  Uiso   1.00
H667   H     0.57517   0.81313   0.35318   0.00000  Uiso   1.00
H668   H     0.59476   0.86323   0.37786   0.00000  Uiso   1.00
C669   C     0.42020   0.83109   0.11448   0.00000  Uiso   1.00
H670   H     0.39916   0.80957   0.09335   0.00000  Uiso   1.00
H671   H     0.42483   0.81312   0.14681   0.00000  Uiso   1.00
H672   H     0.40524   0.86322   0.12214   0.00000  Uiso   1.00
C673   C     0.38389   0.83739   0.44509   0.00000  Uiso   1.00
H674   H     0.38530   0.80656   0.42464   0.00000  Uiso   1.00
H675   H     0.35883   0.83159   0.46838   0.00000  Uiso   1.00
H676   H     0.37621   0.86631   0.42296   0.00000  Uiso   1.00
C677   C     0.61611   0.83740   0.05491   0.00000  Uiso   1.00
H678   H     0.61470   0.80656   0.07536   0.00000  Uiso   1.00
H679   H     0.64117   0.83159   0.03162   0.00000  Uiso   1.00
H680   H     0.62380   0.86632   0.07703   0.00000  Uiso   1.00
C681   C     0.39052   0.88389   0.03413   0.00000  Uiso   1.00
H682   H     0.37461   0.90284   0.00623   0.00000  Uiso   1.00
H683   H     0.36729   0.86366   0.05056   0.00000  Uiso   1.00
H684   H     0.40355   0.90919   0.05813   0.00000  Uiso   1.00
C685   C     0.60948   0.88390   0.46587   0.00000  Uiso   1.00
H686   H     0.62539   0.90285   0.49378   0.00000  Uiso   1.00
H687   H     0.63271   0.86366   0.44944   0.00000  Uiso   1.00
H688   H     0.59645   0.90919   0.44187   0.00000  Uiso   1.00
C689   C     0.55650   0.71397   0.31149   0.00000  Uiso   1.00
H690   H     0.55521   0.74988   0.30980   0.00000  Uiso   1.00
H691   H     0.55000   0.70503   0.34664   0.00000  Uiso   1.00
H692   H     0.58880   0.70479   0.30463   0.00000  Uiso   1.00
C693   C     0.44357   0.95254   0.18834   0.00000  Uiso   1.00
H694   H     0.44466   0.91654   0.18981   0.00000  Uiso   1.00
H695   H     0.41126   0.96178   0.19509   0.00000  Uiso   1.00
H696   H     0.45016   0.96156   0.15324   0.00000  Uiso   1.00
C697   C     0.44350   0.71397   0.18851   0.00000  Uiso   1.00
H698   H     0.44479   0.74988   0.19020   0.00000  Uiso   1.00
H699   H     0.45000   0.70503   0.15336   0.00000  Uiso   1.00
H700   H     0.41120   0.70479   0.19537   0.00000  Uiso   1.00
C701   C     0.55643   0.95254   0.31166   0.00000  Uiso   1.00
H702   H     0.55534   0.91654   0.31019   0.00000  Uiso   1.00
H703   H     0.58873   0.96178   0.30491   0.00000  Uiso   1.00
H704   H     0.54984   0.96156   0.34676   0.00000  Uiso   1.00
O705   O     0.77226   0.87154   0.24999   0.00000  Uiso   1.00
O706   O     0.89441   0.79513   0.25000   0.00000  Uiso   1.00
O707   O     0.89441   0.87154   0.25000   0.00000  Uiso   1.00
O708   O     0.77226   0.79513   0.24999   0.00000  Uiso   1.00
C709   C     0.75343   0.83333   0.24987   0.00000  Uiso   1.00
C710   C     0.91324   0.83333   0.25013   0.00000  Uiso   1.00
O711   O     0.83333   0.87156   0.18392   0.00000  Uiso   1.00
O712   O     0.83334   0.79511   0.31607   0.00000  Uiso   1.00
O713   O     0.83334   0.87156   0.31607   0.00000  Uiso   1.00
O714   O     0.83333   0.79511   0.18392   0.00000  Uiso   1.00
C715   C     0.83314   0.83341   0.16374   0.00000  Uiso   1.00
C716   C     0.83353   0.83341   0.33626   0.00000  Uiso   1.00
Zn717  Zn    0.83333   0.88437   0.25000   0.00000  Uiso   1.00
Zn718  Zn    0.83333   0.78229   0.25000   0.00000  Uiso   1.00
C719   C     0.87298   0.83895   0.40875   0.00000  Uiso   1.00
C720   C     0.79369   0.83895   0.09125   0.00000  Uiso   1.00
C721   C     0.83505   0.83431   0.38418   0.00000  Uiso   1.00
C722   C     0.83162   0.83431   0.11582   0.00000  Uiso   1.00
C723   C     0.79744   0.83652   0.40417   0.00000  Uiso   1.00
C724   C     0.86923   0.83653   0.09583   0.00000  Uiso   1.00
C725   C     0.79607   0.84135   0.45047   0.00000  Uiso   1.00
C726   C     0.87060   0.84135   0.04953   0.00000  Uiso   1.00
C727   C     0.83375   0.84458   0.47648   0.00000  Uiso   1.00
C728   C     0.83291   0.84458   0.02352   0.00000  Uiso   1.00
C729   C     0.87225   0.84660   0.45561   0.00000  Uiso   1.00
C730   C     0.79441   0.84660   0.04439   0.00000  Uiso   1.00
C731   C     0.75794   0.84503   0.47114   0.00000  Uiso   1.00
C732   C     0.90872   0.84503   0.02886   0.00000  Uiso   1.00
C733   C     0.75809   0.85497   0.01723   0.00000  Uiso   1.00
C734   C     0.90858   0.85497   0.48277   0.00000  Uiso   1.00
H735   H     0.76935   0.83537   0.38269   0.00000  Uiso   1.00
H736   H     0.89732   0.83538   0.11731   0.00000  Uiso   1.00
C737   C     0.68790   0.79279   0.24990   0.00000  Uiso   1.00
C738   C     0.97876   0.87388   0.25010   0.00000  Uiso   1.00
C739   C     0.97876   0.79279   0.25010   0.00000  Uiso   1.00
C740   C     0.68790   0.87388   0.24990   0.00000  Uiso   1.00
H741   H     0.70392   0.76113   0.24985   0.00000  Uiso   1.00
H742   H     0.96274   0.90555   0.25015   0.00000  Uiso   1.00
H743   H     0.96274   0.76113   0.25015   0.00000  Uiso   1.00
H744   H     0.70392   0.90555   0.24985   0.00000  Uiso   1.00
C745   C     0.95750   0.83334   0.25017   0.00000  Uiso   1.00
C746   C     0.70916   0.83334   0.24983   0.00000  Uiso   1.00
C747   C     0.85983   0.69050   0.27885   0.00000  Uiso   1.00
C748   C     0.80686   0.97609   0.22112   0.00000  Uiso   1.00
C749   C     0.80684   0.69050   0.22115   0.00000  Uiso   1.00
C750   C     0.85981   0.97609   0.27888   0.00000  Uiso   1.00
N751   N     0.83333   0.95240   0.25000   0.00000  Uiso   1.00
N752   N     0.83333   0.71427   0.25000   0.00000  Uiso   1.00
C753   C     0.91314   0.83110   0.38552   0.00000  Uiso   1.00
H754   H     0.93417   0.80957   0.40665   0.00000  Uiso   1.00
H755   H     0.90850   0.81313   0.35318   0.00000  Uiso   1.00
H756   H     0.92809   0.86323   0.37786   0.00000  Uiso   1.00
C757   C     0.75353   0.83109   0.11448   0.00000  Uiso   1.00
H758   H     0.73250   0.80957   0.09335   0.00000  Uiso   1.00
H759   H     0.75817   0.81312   0.14681   0.00000  Uiso   1.00
H760   H     0.73857   0.86322   0.12214   0.00000  Uiso   1.00
C761   C     0.71722   0.83739   0.44509   0.00000  Uiso   1.00
H762   H     0.71863   0.80656   0.42464   0.00000  Uiso   1.00
H763   H     0.69216   0.83159   0.46838   0.00000  Uiso   1.00
H764   H     0.70954   0.86631   0.42296   0.00000  Uiso   1.00
C765   C     0.94945   0.83740   0.05491   0.00000  Uiso   1.00
H766   H     0.94804   0.80656   0.07536   0.00000  Uiso   1.00
H767   H     0.97450   0.83159   0.03162   0.00000  Uiso   1.00
H768   H     0.95713   0.86632   0.07703   0.00000  Uiso   1.00
C769   C     0.72386   0.88389   0.03413   0.00000  Uiso   1.00
H770   H     0.70794   0.90284   0.00623   0.00000  Uiso   1.00
H771   H     0.70062   0.86366   0.05056   0.00000  Uiso   1.00
H772   H     0.73689   0.90919   0.05813   0.00000  Uiso   1.00
C773   C     0.94281   0.88390   0.46587   0.00000  Uiso   1.00
H774   H     0.95872   0.90285   0.49378   0.00000  Uiso   1.00
H775   H     0.96605   0.86366   0.44944   0.00000  Uiso   1.00
H776   H     0.92978   0.90919   0.44187   0.00000  Uiso   1.00
C777   C     0.88984   0.71397   0.31149   0.00000  Uiso   1.00
H778   H     0.88855   0.74988   0.30980   0.00000  Uiso   1.00
H779   H     0.88333   0.70503   0.34664   0.00000  Uiso   1.00
H780   H     0.92213   0.70479   0.30463   0.00000  Uiso   1.00
C781   C     0.77690   0.95254   0.18834   0.00000  Uiso   1.00
H782   H     0.77799   0.91654   0.18981   0.00000  Uiso   1.00
H783   H     0.74460   0.96178   0.19509   0.00000  Uiso   1.00
H784   H     0.78349   0.96156   0.15324   0.00000  Uiso   1.00
C785   C     0.77683   0.71397   0.18851   0.00000  Uiso   1.00
H786   H     0.77812   0.74988   0.19020   0.00000  Uiso   1.00
H787   H     0.78333   0.70503   0.15336   0.00000  Uiso   1.00
H788   H     0.74454   0.70479   0.19537   0.00000  Uiso   1.00
C789   C     0.88976   0.95254   0.31166   0.00000  Uiso   1.00
H790   H     0.88867   0.91654   0.31019   0.00000  Uiso   1.00
H791   H     0.92207   0.96178   0.30491   0.00000  Uiso   1.00
H792   H     0.88318   0.96156   0.34676   0.00000  Uiso   1.00
O793   O     0.10559   0.20487   0.74999   0.00000  Uiso   1.00
O794   O     0.22774   0.12846   0.75000   0.00000  Uiso   1.00
O795   O     0.22774   0.20487   0.75000   0.00000  Uiso   1.00
O796   O     0.10559   0.12846   0.74999   0.00000  Uiso   1.00
C797   C     0.08676   0.16667   0.74987   0.00000  Uiso   1.00
C798   C     0.24657   0.16667   0.75013   0.00000  Uiso   1.00
O799   O     0.16666   0.20489   0.68392   0.00000  Uiso   1.00
O800   O     0.16667   0.12844   0.81607   0.00000  Uiso   1.00
O801   O     0.16667   0.20489   0.81607   0.00000  Uiso   1.00
O802   O     0.16666   0.12844   0.68392   0.00000  Uiso   1.00
C803   C     0.16647   0.16675   0.66374   0.00000  Uiso   1.00
C804   C     0.16686   0.16675   0.83626   0.00000  Uiso   1.00
Zn805  Zn    0.16667   0.21771   0.75000   0.00000  Uiso   1.00
Zn806  Zn    0.16667   0.11563   0.75000   0.00000  Uiso   1.00
C807   C     0.20631   0.17229   0.90875   0.00000  Uiso   1.00
C808   C     0.12702   0.17228   0.59125   0.00000  Uiso   1.00
C809   C     0.16838   0.16765   0.88418   0.00000  Uiso   1.00
C810   C     0.16495   0.16765   0.61582   0.00000  Uiso   1.00
C811   C     0.13077   0.16986   0.90417   0.00000  Uiso   1.00
C812   C     0.20256   0.16986   0.59583   0.00000  Uiso   1.00
C813   C     0.12940   0.17468   0.95047   0.00000  Uiso   1.00
C814   C     0.20393   0.17468   0.54953   0.00000  Uiso   1.00
C815   C     0.16709   0.17792   0.97648   0.00000  Uiso   1.00
C816   C     0.16625   0.17792   0.52352   0.00000  Uiso   1.00
C817   C     0.20559   0.17993   0.95561   0.00000  Uiso   1.00
C818   C     0.12775   0.17993   0.54439   0.00000  Uiso   1.00
C819   C     0.09128   0.17836   0.97114   0.00000  Uiso   1.00
C820   C     0.24206   0.17836   0.52886   0.00000  Uiso   1.00
C821   C     0.09142   0.18830   0.51723   0.00000  Uiso   1.00
C822   C     0.24191   0.18831   0.98277   0.00000  Uiso   1.00
H823   H     0.10268   0.16871   0.88269   0.00000  Uiso   1.00
H824   H     0.23065   0.16871   0.61731   0.00000  Uiso   1.00
C825   C     0.02124   0.12613   0.74990   0.00000  Uiso   1.00
C826   C     0.31210   0.20722   0.75010   0.00000  Uiso   1.00
C827   C     0.31210   0.12613   0.75010   0.00000  Uiso   1.00
C828   C     0.02124   0.20722   0.74990   0.00000  Uiso   1.00
H829   H     0.03726   0.09446   0.74985   0.00000  Uiso   1.00
H830   H     0.29607   0.23888   0.75015   0.00000  Uiso   1.00
H831   H     0.29608   0.09446   0.75015   0.00000  Uiso   1.00
H832   H     0.03726   0.23888   0.74985   0.00000  Uiso   1.00
C833   C     0.29084   0.16667   0.75017   0.00000  Uiso   1.00
C834   C     0.04250   0.16667   0.74983   0.00000  Uiso   1.00
C835   C     0.19316   0.02383   0.77885   0.00000  Uiso   1.00
C836   C     0.14019   0.30943   0.72112   0.00000  Uiso   1.00
C837   C     0.14017   0.02383   0.72115   0.00000  Uiso   1.00
C838   C     0.19314   0.30943   0.77888   0.00000  Uiso   1.00
N839   N     0.16667   0.28573   0.75000   0.00000  Uiso   1.00
N840   N     0.16667   0.04760   0.75000   0.00000  Uiso   1.00
C841   C     0.24647   0.16443   0.88552   0.00000  Uiso   1.00
H842   H     0.26751   0.14291   0.90665   0.00000  Uiso   1.00
H843   H     0.24183   0.14646   0.85318   0.00000  Uiso   1.00
H844   H     0.26143   0.19657   0.87786   0.00000  Uiso   1.00
C845   C     0.08686   0.16442   0.61448   0.00000  Uiso   1.00
H846   H     0.06583   0.14290   0.59335   0.00000  Uiso   1.00
H847   H     0.09150   0.14645   0.64681   0.00000  Uiso   1.00
H848   H     0.07191   0.19656   0.62214   0.00000  Uiso   1.00
C849   C     0.05055   0.17073   0.94509   0.00000  Uiso   1.00
H850   H     0.05196   0.13989   0.92464   0.00000  Uiso   1.00
H851   H     0.02549   0.16493   0.96838   0.00000  Uiso   1.00
H852   H     0.04287   0.19965   0.92296   0.00000  Uiso   1.00
C853   C     0.28278   0.17073   0.55491   0.00000  Uiso   1.00
H854   H     0.28137   0.13990   0.57536   0.00000  Uiso   1.00
H855   H     0.30784   0.16492   0.53162   0.00000  Uiso   1.00
H856   H     0.29046   0.19966   0.57703   0.00000  Uiso   1.00
C857   C     0.05719   0.21723   0.53413   0.00000  Uiso   1.00
H858   H     0.04128   0.23618   0.50623   0.00000  Uiso   1.00
H859   H     0.03395   0.19699   0.55056   0.00000  Uiso   1.00
H860   H     0.07022   0.24252   0.55813   0.00000  Uiso   1.00
C861   C     0.27614   0.21723   0.96587   0.00000  Uiso   1.00
H862   H     0.29206   0.23618   0.99378   0.00000  Uiso   1.00
H863   H     0.29938   0.19699   0.94944   0.00000  Uiso   1.00
H864   H     0.26311   0.24253   0.94187   0.00000  Uiso   1.00
C865   C     0.22317   0.04730   0.81149   0.00000  Uiso   1.00
H866   H     0.22188   0.08321   0.80980   0.00000  Uiso   1.00
H867   H     0.21667   0.03837   0.84664   0.00000  Uiso   1.00
H868   H     0.25546   0.03812   0.80463   0.00000  Uiso   1.00
C869   C     0.11024   0.28588   0.68834   0.00000  Uiso   1.00
H870   H     0.11133   0.24987   0.68981   0.00000  Uiso   1.00
H871   H     0.07793   0.29511   0.69509   0.00000  Uiso   1.00
H872   H     0.11682   0.29489   0.65324   0.00000  Uiso   1.00
C873   C     0.11016   0.04730   0.68851   0.00000  Uiso   1.00
H874   H     0.11145   0.08321   0.69020   0.00000  Uiso   1.00
H875   H     0.11667   0.03837   0.65336   0.00000  Uiso   1.00
H876   H     0.07787   0.03812   0.69537   0.00000  Uiso   1.00
C877   C     0.22310   0.28588   0.81166   0.00000  Uiso   1.00
H878   H     0.22201   0.24987   0.81019   0.00000  Uiso   1.00
H879   H     0.25540   0.29511   0.80491   0.00000  Uiso   1.00
H880   H     0.21651   0.29489   0.84676   0.00000  Uiso   1.00
O881   O     0.43892   0.20487   0.74999   0.00000  Uiso   1.00
O882   O     0.56108   0.12846   0.75000   0.00000  Uiso   1.00
O883   O     0.56108   0.20487   0.75000   0.00000  Uiso   1.00
O884   O     0.43892   0.12846   0.74999   0.00000  Uiso   1.00
C885   C     0.42009   0.16667   0.74987   0.00000  Uiso   1.00
C886   C     0.57991   0.16667   0.75013   0.00000  Uiso   1.00
O887   O     0.49999   0.20489   0.68392   0.00000  Uiso   1.00
O888   O     0.50001   0.12844   0.81607   0.00000  Uiso   1.00
O889   O     0.50001   0.20489   0.81607   0.00000  Uiso   1.00
O890   O     0.49999   0.12844   0.68392   0.00000  Uiso   1.00
C891   C     0.49981   0.16675   0.66374   0.00000  Uiso   1.00
C892   C     0.50019   0.16675   0.83626   0.00000  Uiso   1.00
Zn893  Zn    0.50000   0.21771   0.75000   0.00000  Uiso   1.00
Zn894  Zn    0.50000   0.11563   0.75000   0.00000  Uiso   1.00
C895   C     0.53965   0.17229   0.90875   0.00000  Uiso   1.00
C896   C     0.46035   0.17228   0.59125   0.00000  Uiso   1.00
C897   C     0.50172   0.16765   0.88418   0.00000  Uiso   1.00
C898   C     0.49828   0.16765   0.61582   0.00000  Uiso   1.00
C899   C     0.46410   0.16986   0.90417   0.00000  Uiso   1.00
C900   C     0.53590   0.16986   0.59583   0.00000  Uiso   1.00
C901   C     0.46273   0.17468   0.95047   0.00000  Uiso   1.00
C902   C     0.53727   0.17468   0.54953   0.00000  Uiso   1.00
C903   C     0.50042   0.17792   0.97648   0.00000  Uiso   1.00
C904   C     0.49958   0.17792   0.52352   0.00000  Uiso   1.00
C905   C     0.53892   0.17993   0.95561   0.00000  Uiso   1.00
C906   C     0.46108   0.17993   0.54439   0.00000  Uiso   1.00
C907   C     0.42461   0.17836   0.97114   0.00000  Uiso   1.00
C908   C     0.57539   0.17836   0.52886   0.00000  Uiso   1.00
C909   C     0.42476   0.18830   0.51723   0.00000  Uiso   1.00
C910   C     0.57524   0.18831   0.98277   0.00000  Uiso   1.00
H911   H     0.43602   0.16871   0.88269   0.00000  Uiso   1.00
H912   H     0.56398   0.16871   0.61731   0.00000  Uiso   1.00
C913   C     0.35457   0.12613   0.74990   0.00000  Uiso   1.00
C914   C     0.64543   0.20722   0.75010   0.00000  Uiso   1.00
C915   C     0.64543   0.12613   0.75010   0.00000  Uiso   1.00
C916   C     0.35457   0.20722   0.74990   0.00000  Uiso   1.00
H917   H     0.37059   0.09446   0.74985   0.00000  Uiso   1.00
H918   H     0.62941   0.23888   0.75015   0.00000  Uiso   1.00
H919   H     0.62941   0.09446   0.75015   0.00000  Uiso   1.00
H920   H     0.37059   0.23888   0.74985   0.00000  Uiso   1.00
C921   C     0.62417   0.16667   0.75017   0.00000  Uiso   1.00
C922   C     0.37583   0.16667   0.74983   0.00000  Uiso   1.00
C923   C     0.52649   0.02383   0.77885   0.00000  Uiso   1.00
C924   C     0.47352   0.30943   0.72112   0.00000  Uiso   1.00
C925   C     0.47351   0.02383   0.72115   0.00000  Uiso   1.00
C926   C     0.52648   0.30943   0.77888   0.00000  Uiso   1.00
N927   N     0.50000   0.28573   0.75000   0.00000  Uiso   1.00
N928   N     0.50000   0.04760   0.75000   0.00000  Uiso   1.00
C929   C     0.57980   0.16443   0.88552   0.00000  Uiso   1.00
H930   H     0.60084   0.14291   0.90665   0.00000  Uiso   1.00
H931   H     0.57517   0.14646   0.85318   0.00000  Uiso   1.00
H932   H     0.59476   0.19657   0.87786   0.00000  Uiso   1.00
C933   C     0.42020   0.16442   0.61448   0.00000  Uiso   1.00
H934   H     0.39916   0.14290   0.59335   0.00000  Uiso   1.00
H935   H     0.42483   0.14645   0.64681   0.00000  Uiso   1.00
H936   H     0.40524   0.19656   0.62214   0.00000  Uiso   1.00
C937   C     0.38389   0.17073   0.94509   0.00000  Uiso   1.00
H938   H     0.38530   0.13989   0.92464   0.00000  Uiso   1.00
H939   H     0.35883   0.16493   0.96838   0.00000  Uiso   1.00
H940   H     0.37621   0.19965   0.92296   0.00000  Uiso   1.00
C941   C     0.61611   0.17073   0.55491   0.00000  Uiso   1.00
H942   H     0.61470   0.13990   0.57536   0.00000  Uiso   1.00
H943   H     0.64117   0.16492   0.53162   0.00000  Uiso   1.00
H944   H     0.62380   0.19966   0.57703   0.00000  Uiso   1.00
C945   C     0.39052   0.21723   0.53413   0.00000  Uiso   1.00
H946   H     0.37461   0.23618   0.50623   0.00000  Uiso   1.00
H947   H     0.36729   0.19699   0.55056   0.00000  Uiso   1.00
H948   H     0.40355   0.24252   0.55813   0.00000  Uiso   1.00
C949   C     0.60948   0.21723   0.96587   0.00000  Uiso   1.00
H950   H     0.62539   0.23618   0.99378   0.00000  Uiso   1.00
H951   H     0.63271   0.19699   0.94944   0.00000  Uiso   1.00
H952   H     0.59645   0.24253   0.94187   0.00000  Uiso   1.00
C953   C     0.55650   0.04730   0.81149   0.00000  Uiso   1.00
H954   H     0.55521   0.08321   0.80980   0.00000  Uiso   1.00
H955   H     0.55000   0.03837   0.84664   0.00000  Uiso   1.00
H956   H     0.58880   0.03812   0.80463   0.00000  Uiso   1.00
C957   C     0.44357   0.28588   0.68834   0.00000  Uiso   1.00
H958   H     0.44466   0.24987   0.68981   0.00000  Uiso   1.00
H959   H     0.41126   0.29511   0.69509   0.00000  Uiso   1.00
H960   H     0.45016   0.29489   0.65324   0.00000  Uiso   1.00
C961   C     0.44350   0.04730   0.68851   0.00000  Uiso   1.00
H962   H     0.44479   0.08321   0.69020   0.00000  Uiso   1.00
H963   H     0.45000   0.03837   0.65336   0.00000  Uiso   1.00
H964   H     0.41120   0.03812   0.69537   0.00000  Uiso   1.00
C965   C     0.55643   0.28588   0.81166   0.00000  Uiso   1.00
H966   H     0.55534   0.24987   0.81019   0.00000  Uiso   1.00
H967   H     0.58873   0.29511   0.80491   0.00000  Uiso   1.00
H968   H     0.54984   0.29489   0.84676   0.00000  Uiso   1.00
O969   O     0.77226   0.20487   0.74999   0.00000  Uiso   1.00
O970   O     0.89441   0.12846   0.75000   0.00000  Uiso   1.00
O971   O     0.89441   0.20487   0.75000   0.00000  Uiso   1.00
O972   O     0.77226   0.12846   0.74999   0.00000  Uiso   1.00
C973   C     0.75343   0.16667   0.74987   0.00000  Uiso   1.00
C974   C     0.91324   0.16667   0.75013   0.00000  Uiso   1.00
O975   O     0.83333   0.20489   0.68392   0.00000  Uiso   1.00
O976   O     0.83334   0.12844   0.81607   0.00000  Uiso   1.00
O977   O     0.83334   0.20489   0.81607   0.00000  Uiso   1.00
O978   O     0.83333   0.12844   0.68392   0.00000  Uiso   1.00
C979   C     0.83314   0.16675   0.66374   0.00000  Uiso   1.00
C980   C     0.83353   0.16675   0.83626   0.00000  Uiso   1.00
Zn981  Zn    0.83333   0.21771   0.75000   0.00000  Uiso   1.00
Zn982  Zn    0.83333   0.11563   0.75000   0.00000  Uiso   1.00
C983   C     0.87298   0.17229   0.90875   0.00000  Uiso   1.00
C984   C     0.79369   0.17228   0.59125   0.00000  Uiso   1.00
C985   C     0.83505   0.16765   0.88418   0.00000  Uiso   1.00
C986   C     0.83162   0.16765   0.61582   0.00000  Uiso   1.00
C987   C     0.79744   0.16986   0.90417   0.00000  Uiso   1.00
C988   C     0.86923   0.16986   0.59583   0.00000  Uiso   1.00
C989   C     0.79607   0.17468   0.95047   0.00000  Uiso   1.00
C990   C     0.87060   0.17468   0.54953   0.00000  Uiso   1.00
C991   C     0.83375   0.17792   0.97648   0.00000  Uiso   1.00
C992   C     0.83291   0.17792   0.52352   0.00000  Uiso   1.00
C993   C     0.87225   0.17993   0.95561   0.00000  Uiso   1.00
C994   C     0.79441   0.17993   0.54439   0.00000  Uiso   1.00
C995   C     0.75794   0.17836   0.97114   0.00000  Uiso   1.00
C996   C     0.90872   0.17836   0.52886   0.00000  Uiso   1.00
C997   C     0.75809   0.18830   0.51723   0.00000  Uiso   1.00
C998   C     0.90858   0.18831   0.98277   0.00000  Uiso   1.00
H999   H     0.76935   0.16871   0.88269   0.00000  Uiso   1.00
H1000  H     0.89732   0.16871   0.61731   0.00000  Uiso   1.00
C1001  C     0.68790   0.12613   0.74990   0.00000  Uiso   1.00
C1002  C     0.97876   0.20722   0.75010   0.00000  Uiso   1.00
C1003  C     0.97876   0.12613   0.75010   0.00000  Uiso   1.00
C1004  C     0.68790   0.20722   0.74990   0.00000  Uiso   1.00
H1005  H     0.70392   0.09446   0.74985   0.00000  Uiso   1.00
H1006  H     0.96274   0.23888   0.75015   0.00000  Uiso   1.00
H1007  H     0.96274   0.09446   0.75015   0.00000  Uiso   1.00
H1008  H     0.70392   0.23888   0.74985   0.00000  Uiso   1.00
C1009  C     0.95750   0.16667   0.75017   0.00000  Uiso   1.00
C1010  C     0.70916   0.16667   0.74983   0.00000  Uiso   1.00
C1011  C     0.85983   0.02383   0.77885   0.00000  Uiso   1.00
C1012  C     0.80686   0.30943   0.72112   0.00000  Uiso   1.00
C1013  C     0.80684   0.02383   0.72115   0.00000  Uiso   1.00
C1014  C     0.85981   0.30943   0.77888   0.00000  Uiso   1.00
N1015  N     0.83333   0.28573   0.75000   0.00000  Uiso   1.00
N1016  N     0.83333   0.04760   0.75000   0.00000  Uiso   1.00
C1017  C     0.91314   0.16443   0.88552   0.00000  Uiso   1.00
H1018  H     0.93417   0.14291   0.90665   0.00000  Uiso   1.00
H1019  H     0.90850   0.14646   0.85318   0.00000  Uiso   1.00
H1020  H     0.92809   0.19657   0.87786   0.00000  Uiso   1.00
C1021  C     0.75353   0.16442   0.61448   0.00000  Uiso   1.00
H1022  H     0.73250   0.14290   0.59335   0.00000  Uiso   1.00
H1023  H     0.75817   0.14645   0.64681   0.00000  Uiso   1.00
H1024  H     0.73857   0.19656   0.62214   0.00000  Uiso   1.00
C1025  C     0.71722   0.17073   0.94509   0.00000  Uiso   1.00
H1026  H     0.71863   0.13989   0.92464   0.00000  Uiso   1.00
H1027  H     0.69216   0.16493   0.96838   0.00000  Uiso   1.00
H1028  H     0.70954   0.19965   0.92296   0.00000  Uiso   1.00
C1029  C     0.94945   0.17073   0.55491   0.00000  Uiso   1.00
H1030  H     0.94804   0.13990   0.57536   0.00000  Uiso   1.00
H1031  H     0.97450   0.16492   0.53162   0.00000  Uiso   1.00
H1032  H     0.95713   0.19966   0.57703   0.00000  Uiso   1.00
C1033  C     0.72386   0.21723   0.53413   0.00000  Uiso   1.00
H1034  H     0.70794   0.23618   0.50623   0.00000  Uiso   1.00
H1035  H     0.70062   0.19699   0.55056   0.00000  Uiso   1.00
H1036  H     0.73689   0.24252   0.55813   0.00000  Uiso   1.00
C1037  C     0.94281   0.21723   0.96587   0.00000  Uiso   1.00
H1038  H     0.95872   0.23618   0.99378   0.00000  Uiso   1.00
H1039  H     0.96605   0.19699   0.94944   0.00000  Uiso   1.00
H1040  H     0.92978   0.24253   0.94187   0.00000  Uiso   1.00
C1041  C     0.88984   0.04730   0.81149   0.00000  Uiso   1.00
H1042  H     0.88855   0.08321   0.80980   0.00000  Uiso   1.00
H1043  H     0.88333   0.03837   0.84664   0.00000  Uiso   1.00
H1044  H     0.92213   0.03812   0.80463   0.00000  Uiso   1.00
C1045  C     0.77690   0.28588   0.68834   0.00000  Uiso   1.00
H1046  H     0.77799   0.24987   0.68981   0.00000  Uiso   1.00
H1047  H     0.74460   0.29511   0.69509   0.00000  Uiso   1.00
H1048  H     0.78349   0.29489   0.65324   0.00000  Uiso   1.00
C1049  C     0.77683   0.04730   0.68851   0.00000  Uiso   1.00
H1050  H     0.77812   0.08321   0.69020   0.00000  Uiso   1.00
H1051  H     0.78333   0.03837   0.65336   0.00000  Uiso   1.00
H1052  H     0.74454   0.03812   0.69537   0.00000  Uiso   1.00
C1053  C     0.88976   0.28588   0.81166   0.00000  Uiso   1.00
H1054  H     0.88867   0.24987   0.81019   0.00000  Uiso   1.00
H1055  H     0.92207   0.29511   0.80491   0.00000  Uiso   1.00
H1056  H     0.88318   0.29489   0.84676   0.00000  Uiso   1.00
O1057  O     0.10559   0.53821   0.74999   0.00000  Uiso   1.00
O1058  O     0.22774   0.46179   0.75000   0.00000  Uiso   1.00
O1059  O     0.22774   0.53821   0.75000   0.00000  Uiso   1.00
O1060  O     0.10559   0.46179   0.74999   0.00000  Uiso   1.00
C1061  C     0.08676   0.50000   0.74987   0.00000  Uiso   1.00
C1062  C     0.24657   0.50000   0.75013   0.00000  Uiso   1.00
O1063  O     0.16666   0.53823   0.68392   0.00000  Uiso   1.00
O1064  O     0.16667   0.46177   0.81607   0.00000  Uiso   1.00
O1065  O     0.16667   0.53823   0.81607   0.00000  Uiso   1.00
O1066  O     0.16666   0.46177   0.68392   0.00000  Uiso   1.00
C1067  C     0.16647   0.50008   0.66374   0.00000  Uiso   1.00
C1068  C     0.16686   0.50008   0.83626   0.00000  Uiso   1.00
Zn1069 Zn    0.16667   0.55104   0.75000   0.00000  Uiso   1.00
Zn1070 Zn    0.16667   0.44896   0.75000   0.00000  Uiso   1.00
C1071  C     0.20631   0.50562   0.90875   0.00000  Uiso   1.00
C1072  C     0.12702   0.50562   0.59125   0.00000  Uiso   1.00
C1073  C     0.16838   0.50098   0.88418   0.00000  Uiso   1.00
C1074  C     0.16495   0.50098   0.61582   0.00000  Uiso   1.00
C1075  C     0.13077   0.50319   0.90417   0.00000  Uiso   1.00
C1076  C     0.20256   0.50319   0.59583   0.00000  Uiso   1.00
C1077  C     0.12940   0.50801   0.95047   0.00000  Uiso   1.00
C1078  C     0.20393   0.50801   0.54953   0.00000  Uiso   1.00
C1079  C     0.16709   0.51125   0.97648   0.00000  Uiso   1.00
C1080  C     0.16625   0.51125   0.52352   0.00000  Uiso   1.00
C1081  C     0.20559   0.51326   0.95561   0.00000  Uiso   1.00
C1082  C     0.12775   0.51326   0.54439   0.00000  Uiso   1.00
C1083  C     0.09128   0.51169   0.97114   0.00000  Uiso   1.00
C1084  C     0.24206   0.51170   0.52886   0.00000  Uiso   1.00
C1085  C     0.09142   0.52164   0.51723   0.00000  Uiso   1.00
C1086  C     0.24191   0.52164   0.98277   0.00000  Uiso   1.00
H1087  H     0.10268   0.50204   0.88269   0.00000  Uiso   1.00
H1088  H     0.23065   0.50204   0.61731   0.00000  Uiso   1.00
C1089  C     0.02124   0.45946   0.74990   0.00000  Uiso   1.00
C1090  C     0.31210   0.54055   0.75010   0.00000  Uiso   1.00
C1091  C     0.31210   0.45946   0.75010   0.00000  Uiso   1.00
C1092  C     0.02124   0.54055   0.74990   0.00000  Uiso   1.00
H1093  H     0.03726   0.42779   0.74985   0.00000  Uiso   1.00
H1094  H     0.29607   0.57221   0.75015   0.00000  Uiso   1.00
H1095  H     0.29608   0.42779   0.75015   0.00000  Uiso   1.00
H1096  H     0.03726   0.57221   0.74985   0.00000  Uiso   1.00
C1097  C     0.29084   0.50000   0.75017   0.00000  Uiso   1.00
C1098  C     0.04250   0.50000   0.74983   0.00000  Uiso   1.00
C1099  C     0.19316   0.35717   0.77885   0.00000  Uiso   1.00
C1100  C     0.14019   0.64276   0.72112   0.00000  Uiso   1.00
C1101  C     0.14017   0.35717   0.72115   0.00000  Uiso   1.00
C1102  C     0.19314   0.64276   0.77888   0.00000  Uiso   1.00
N1103  N     0.16667   0.61907   0.75000   0.00000  Uiso   1.00
N1104  N     0.16667   0.38093   0.75000   0.00000  Uiso   1.00
C1105  C     0.24647   0.49776   0.88552   0.00000  Uiso   1.00
H1106  H     0.26751   0.47624   0.90665   0.00000  Uiso   1.00
H1107  H     0.24183   0.47979   0.85318   0.00000  Uiso   1.00
H1108  H     0.26143   0.52990   0.87786   0.00000  Uiso   1.00
C1109  C     0.08686   0.49776   0.61448   0.00000  Uiso   1.00
H1110  H     0.06583   0.47623   0.59335   0.00000  Uiso   1.00
H1111  H     0.09150   0.47978   0.64681   0.00000  Uiso   1.00
H1112  H     0.07191   0.52989   0.62214   0.00000  Uiso   1.00
C1113  C     0.05055   0.50406   0.94509   0.00000  Uiso   1.00
H1114  H     0.05196   0.47322   0.92464   0.00000  Uiso   1.00
H1115  H     0.02549   0.49826   0.96838   0.00000  Uiso   1.00
H1116  H     0.04287   0.53298   0.92296   0.00000  Uiso   1.00
C1117  C     0.28278   0.50406   0.55491   0.00000  Uiso   1.00
H1118  H     0.28137   0.47323   0.57536   0.00000  Uiso   1.00
H1119  H     0.30784   0.49826   0.53162   0.00000  Uiso   1.00
H1120  H     0.29046   0.53299   0.57703   0.00000  Uiso   1.00
C1121  C     0.05719   0.55056   0.53413   0.00000  Uiso   1.00
H1122  H     0.04128   0.56951   0.50623   0.00000  Uiso   1.00
H1123  H     0.03395   0.53032   0.55056   0.00000  Uiso   1.00
H1124  H     0.07022   0.57585   0.55813   0.00000  Uiso   1.00
C1125  C     0.27614   0.55056   0.96587   0.00000  Uiso   1.00
H1126  H     0.29206   0.56951   0.99378   0.00000  Uiso   1.00
H1127  H     0.29938   0.53033   0.94944   0.00000  Uiso   1.00
H1128  H     0.26311   0.57586   0.94187   0.00000  Uiso   1.00
C1129  C     0.22317   0.38063   0.81149   0.00000  Uiso   1.00
H1130  H     0.22188   0.41654   0.80980   0.00000  Uiso   1.00
H1131  H     0.21667   0.37170   0.84664   0.00000  Uiso   1.00
H1132  H     0.25546   0.37146   0.80463   0.00000  Uiso   1.00
C1133  C     0.11024   0.61921   0.68834   0.00000  Uiso   1.00
H1134  H     0.11133   0.58321   0.68981   0.00000  Uiso   1.00
H1135  H     0.07793   0.62844   0.69509   0.00000  Uiso   1.00
H1136  H     0.11682   0.62823   0.65324   0.00000  Uiso   1.00
C1137  C     0.11016   0.38063   0.68851   0.00000  Uiso   1.00
H1138  H     0.11145   0.41654   0.69020   0.00000  Uiso   1.00
H1139  H     0.11667   0.37170   0.65336   0.00000  Uiso   1.00
H1140  H     0.07787   0.37146   0.69537   0.00000  Uiso   1.00
C1141  C     0.22310   0.61921   0.81166   0.00000  Uiso   1.00
H1142  H     0.22201   0.58321   0.81019   0.00000  Uiso   1.00
H1143  H     0.25540   0.62844   0.80491   0.00000  Uiso   1.00
H1144  H     0.21651   0.62823   0.84676   0.00000  Uiso   1.00
O1145  O     0.43892   0.53821   0.74999   0.00000  Uiso   1.00
O1146  O     0.56108   0.46179   0.75000   0.00000  Uiso   1.00
O1147  O     0.56108   0.53821   0.75000   0.00000  Uiso   1.00
O1148  O     0.43892   0.46179   0.74999   0.00000  Uiso   1.00
C1149  C     0.42009   0.50000   0.74987   0.00000  Uiso   1.00
C1150  C     0.57991   0.50000   0.75013   0.00000  Uiso   1.00
O1151  O     0.49999   0.53823   0.68392   0.00000  Uiso   1.00
O1152  O     0.50001   0.46177   0.81607   0.00000  Uiso   1.00
O1153  O     0.50001   0.53823   0.81607   0.00000  Uiso   1.00
O1154  O     0.49999   0.46177   0.68392   0.00000  Uiso   1.00
C1155  C     0.49981   0.50008   0.66374   0.00000  Uiso   1.00
C1156  C     0.50019   0.50008   0.83626   0.00000  Uiso   1.00
Zn1157 Zn    0.50000   0.55104   0.75000   0.00000  Uiso   1.00
Zn1158 Zn    0.50000   0.44896   0.75000   0.00000  Uiso   1.00
C1159  C     0.53965   0.50562   0.90875   0.00000  Uiso   1.00
C1160  C     0.46035   0.50562   0.59125   0.00000  Uiso   1.00
C1161  C     0.50172   0.50098   0.88418   0.00000  Uiso   1.00
C1162  C     0.49828   0.50098   0.61582   0.00000  Uiso   1.00
C1163  C     0.46410   0.50319   0.90417   0.00000  Uiso   1.00
C1164  C     0.53590   0.50319   0.59583   0.00000  Uiso   1.00
C1165  C     0.46273   0.50801   0.95047   0.00000  Uiso   1.00
C1166  C     0.53727   0.50801   0.54953   0.00000  Uiso   1.00
C1167  C     0.50042   0.51125   0.97648   0.00000  Uiso   1.00
C1168  C     0.49958   0.51125   0.52352   0.00000  Uiso   1.00
C1169  C     0.53892   0.51326   0.95561   0.00000  Uiso   1.00
C1170  C     0.46108   0.51326   0.54439   0.00000  Uiso   1.00
C1171  C     0.42461   0.51169   0.97114   0.00000  Uiso   1.00
C1172  C     0.57539   0.51170   0.52886   0.00000  Uiso   1.00
C1173  C     0.42476   0.52164   0.51723   0.00000  Uiso   1.00
C1174  C     0.57524   0.52164   0.98277   0.00000  Uiso   1.00
H1175  H     0.43602   0.50204   0.88269   0.00000  Uiso   1.00
H1176  H     0.56398   0.50204   0.61731   0.00000  Uiso   1.00
C1177  C     0.35457   0.45946   0.74990   0.00000  Uiso   1.00
C1178  C     0.64543   0.54055   0.75010   0.00000  Uiso   1.00
C1179  C     0.64543   0.45946   0.75010   0.00000  Uiso   1.00
C1180  C     0.35457   0.54055   0.74990   0.00000  Uiso   1.00
H1181  H     0.37059   0.42779   0.74985   0.00000  Uiso   1.00
H1182  H     0.62941   0.57221   0.75015   0.00000  Uiso   1.00
H1183  H     0.62941   0.42779   0.75015   0.00000  Uiso   1.00
H1184  H     0.37059   0.57221   0.74985   0.00000  Uiso   1.00
C1185  C     0.62417   0.50000   0.75017   0.00000  Uiso   1.00
C1186  C     0.37583   0.50000   0.74983   0.00000  Uiso   1.00
C1187  C     0.52649   0.35717   0.77885   0.00000  Uiso   1.00
C1188  C     0.47352   0.64276   0.72112   0.00000  Uiso   1.00
C1189  C     0.47351   0.35717   0.72115   0.00000  Uiso   1.00
C1190  C     0.52648   0.64276   0.77888   0.00000  Uiso   1.00
N1191  N     0.50000   0.61907   0.75000   0.00000  Uiso   1.00
N1192  N     0.50000   0.38093   0.75000   0.00000  Uiso   1.00
C1193  C     0.57980   0.49776   0.88552   0.00000  Uiso   1.00
H1194  H     0.60084   0.47624   0.90665   0.00000  Uiso   1.00
H1195  H     0.57517   0.47979   0.85318   0.00000  Uiso   1.00
H1196  H     0.59476   0.52990   0.87786   0.00000  Uiso   1.00
C1197  C     0.42020   0.49776   0.61448   0.00000  Uiso   1.00
H1198  H     0.39916   0.47623   0.59335   0.00000  Uiso   1.00
H1199  H     0.42483   0.47978   0.64681   0.00000  Uiso   1.00
H1200  H     0.40524   0.52989   0.62214   0.00000  Uiso   1.00
C1201  C     0.38389   0.50406   0.94509   0.00000  Uiso   1.00
H1202  H     0.38530   0.47322   0.92464   0.00000  Uiso   1.00
H1203  H     0.35883   0.49826   0.96838   0.00000  Uiso   1.00
H1204  H     0.37621   0.53298   0.92296   0.00000  Uiso   1.00
C1205  C     0.61611   0.50406   0.55491   0.00000  Uiso   1.00
H1206  H     0.61470   0.47323   0.57536   0.00000  Uiso   1.00
H1207  H     0.64117   0.49826   0.53162   0.00000  Uiso   1.00
H1208  H     0.62380   0.53299   0.57703   0.00000  Uiso   1.00
C1209  C     0.39052   0.55056   0.53413   0.00000  Uiso   1.00
H1210  H     0.37461   0.56951   0.50623   0.00000  Uiso   1.00
H1211  H     0.36729   0.53032   0.55056   0.00000  Uiso   1.00
H1212  H     0.40355   0.57585   0.55813   0.00000  Uiso   1.00
C1213  C     0.60948   0.55056   0.96587   0.00000  Uiso   1.00
H1214  H     0.62539   0.56951   0.99378   0.00000  Uiso   1.00
H1215  H     0.63271   0.53033   0.94944   0.00000  Uiso   1.00
H1216  H     0.59645   0.57586   0.94187   0.00000  Uiso   1.00
C1217  C     0.55650   0.38063   0.81149   0.00000  Uiso   1.00
H1218  H     0.55521   0.41654   0.80980   0.00000  Uiso   1.00
H1219  H     0.55000   0.37170   0.84664   0.00000  Uiso   1.00
H1220  H     0.58880   0.37146   0.80463   0.00000  Uiso   1.00
C1221  C     0.44357   0.61921   0.68834   0.00000  Uiso   1.00
H1222  H     0.44466   0.58321   0.68981   0.00000  Uiso   1.00
H1223  H     0.41126   0.62844   0.69509   0.00000  Uiso   1.00
H1224  H     0.45016   0.62823   0.65324   0.00000  Uiso   1.00
C1225  C     0.44350   0.38063   0.68851   0.00000  Uiso   1.00
H1226  H     0.44479   0.41654   0.69020   0.00000  Uiso   1.00
H1227  H     0.45000   0.37170   0.65336   0.00000  Uiso   1.00
H1228  H     0.41120   0.37146   0.69537   0.00000  Uiso   1.00
C1229  C     0.55643   0.61921   0.81166   0.00000  Uiso   1.00
H1230  H     0.55534   0.58321   0.81019   0.00000  Uiso   1.00
H1231  H     0.58873   0.62844   0.80491   0.00000  Uiso   1.00
H1232  H     0.54984   0.62823   0.84676   0.00000  Uiso   1.00
O1233  O     0.77226   0.53821   0.74999   0.00000  Uiso   1.00
O1234  O     0.89441   0.46179   0.75000   0.00000  Uiso   1.00
O1235  O     0.89441   0.53821   0.75000   0.00000  Uiso   1.00
O1236  O     0.77226   0.46179   0.74999   0.00000  Uiso   1.00
C1237  C     0.75343   0.50000   0.74987   0.00000  Uiso   1.00
C1238  C     0.91324   0.50000   0.75013   0.00000  Uiso   1.00
O1239  O     0.83333   0.53823   0.68392   0.00000  Uiso   1.00
O1240  O     0.83334   0.46177   0.81607   0.00000  Uiso   1.00
O1241  O     0.83334   0.53823   0.81607   0.00000  Uiso   1.00
O1242  O     0.83333   0.46177   0.68392   0.00000  Uiso   1.00
C1243  C     0.83314   0.50008   0.66374   0.00000  Uiso   1.00
C1244  C     0.83353   0.50008   0.83626   0.00000  Uiso   1.00
Zn1245 Zn    0.83333   0.55104   0.75000   0.00000  Uiso   1.00
Zn1246 Zn    0.83333   0.44896   0.75000   0.00000  Uiso   1.00
C1247  C     0.87298   0.50562   0.90875   0.00000  Uiso   1.00
C1248  C     0.79369   0.50562   0.59125   0.00000  Uiso   1.00
C1249  C     0.83505   0.50098   0.88418   0.00000  Uiso   1.00
C1250  C     0.83162   0.50098   0.61582   0.00000  Uiso   1.00
C1251  C     0.79744   0.50319   0.90417   0.00000  Uiso   1.00
C1252  C     0.86923   0.50319   0.59583   0.00000  Uiso   1.00
C1253  C     0.79607   0.50801   0.95047   0.00000  Uiso   1.00
C1254  C     0.87060   0.50801   0.54953   0.00000  Uiso   1.00
C1255  C     0.83375   0.51125   0.97648   0.00000  Uiso   1.00
C1256  C     0.83291   0.51125   0.52352   0.00000  Uiso   1.00
C1257  C     0.87225   0.51326   0.95561   0.00000  Uiso   1.00
C1258  C     0.79441   0.51326   0.54439   0.00000  Uiso   1.00
C1259  C     0.75794   0.51169   0.97114   0.00000  Uiso   1.00
C1260  C     0.90872   0.51170   0.52886   0.00000  Uiso   1.00
C1261  C     0.75809   0.52164   0.51723   0.00000  Uiso   1.00
C1262  C     0.90858   0.52164   0.98277   0.00000  Uiso   1.00
H1263  H     0.76935   0.50204   0.88269   0.00000  Uiso   1.00
H1264  H     0.89732   0.50204   0.61731   0.00000  Uiso   1.00
C1265  C     0.68790   0.45946   0.74990   0.00000  Uiso   1.00
C1266  C     0.97876   0.54055   0.75010   0.00000  Uiso   1.00
C1267  C     0.97876   0.45946   0.75010   0.00000  Uiso   1.00
C1268  C     0.68790   0.54055   0.74990   0.00000  Uiso   1.00
H1269  H     0.70392   0.42779   0.74985   0.00000  Uiso   1.00
H1270  H     0.96274   0.57221   0.75015   0.00000  Uiso   1.00
H1271  H     0.96274   0.42779   0.75015   0.00000  Uiso   1.00
H1272  H     0.70392   0.57221   0.74985   0.00000  Uiso   1.00
C1273  C     0.95750   0.50000   0.75017   0.00000  Uiso   1.00
C1274  C     0.70916   0.50000   0.74983   0.00000  Uiso   1.00
C1275  C     0.85983   0.35717   0.77885   0.00000  Uiso   1.00
C1276  C     0.80686   0.64276   0.72112   0.00000  Uiso   1.00
C1277  C     0.80684   0.35717   0.72115   0.00000  Uiso   1.00
C1278  C     0.85981   0.64276   0.77888   0.00000  Uiso   1.00
N1279  N     0.83333   0.61907   0.75000   0.00000  Uiso   1.00
N1280  N     0.83333   0.38093   0.75000   0.00000  Uiso   1.00
C1281  C     0.91314   0.49776   0.88552   0.00000  Uiso   1.00
H1282  H     0.93417   0.47624   0.90665   0.00000  Uiso   1.00
H1283  H     0.90850   0.47979   0.85318   0.00000  Uiso   1.00
H1284  H     0.92809   0.52990   0.87786   0.00000  Uiso   1.00
C1285  C     0.75353   0.49776   0.61448   0.00000  Uiso   1.00
H1286  H     0.73250   0.47623   0.59335   0.00000  Uiso   1.00
H1287  H     0.75817   0.47978   0.64681   0.00000  Uiso   1.00
H1288  H     0.73857   0.52989   0.62214   0.00000  Uiso   1.00
C1289  C     0.71722   0.50406   0.94509   0.00000  Uiso   1.00
H1290  H     0.71863   0.47322   0.92464   0.00000  Uiso   1.00
H1291  H     0.69216   0.49826   0.96838   0.00000  Uiso   1.00
H1292  H     0.70954   0.53298   0.92296   0.00000  Uiso   1.00
C1293  C     0.94945   0.50406   0.55491   0.00000  Uiso   1.00
H1294  H     0.94804   0.47323   0.57536   0.00000  Uiso   1.00
H1295  H     0.97450   0.49826   0.53162   0.00000  Uiso   1.00
H1296  H     0.95713   0.53299   0.57703   0.00000  Uiso   1.00
C1297  C     0.72386   0.55056   0.53413   0.00000  Uiso   1.00
H1298  H     0.70794   0.56951   0.50623   0.00000  Uiso   1.00
H1299  H     0.70062   0.53032   0.55056   0.00000  Uiso   1.00
H1300  H     0.73689   0.57585   0.55813   0.00000  Uiso   1.00
C1301  C     0.94281   0.55056   0.96587   0.00000  Uiso   1.00
H1302  H     0.95872   0.56951   0.99378   0.00000  Uiso   1.00
H1303  H     0.96605   0.53033   0.94944   0.00000  Uiso   1.00
H1304  H     0.92978   0.57586   0.94187   0.00000  Uiso   1.00
C1305  C     0.88984   0.38063   0.81149   0.00000  Uiso   1.00
H1306  H     0.88855   0.41654   0.80980   0.00000  Uiso   1.00
H1307  H     0.88333   0.37170   0.84664   0.00000  Uiso   1.00
H1308  H     0.92213   0.37146   0.80463   0.00000  Uiso   1.00
C1309  C     0.77690   0.61921   0.68834   0.00000  Uiso   1.00
H1310  H     0.77799   0.58321   0.68981   0.00000  Uiso   1.00
H1311  H     0.74460   0.62844   0.69509   0.00000  Uiso   1.00
H1312  H     0.78349   0.62823   0.65324   0.00000  Uiso   1.00
C1313  C     0.77683   0.38063   0.68851   0.00000  Uiso   1.00
H1314  H     0.77812   0.41654   0.69020   0.00000  Uiso   1.00
H1315  H     0.78333   0.37170   0.65336   0.00000  Uiso   1.00
H1316  H     0.74454   0.37146   0.69537   0.00000  Uiso   1.00
C1317  C     0.88976   0.61921   0.81166   0.00000  Uiso   1.00
H1318  H     0.88867   0.58321   0.81019   0.00000  Uiso   1.00
H1319  H     0.92207   0.62844   0.80491   0.00000  Uiso   1.00
H1320  H     0.88318   0.62823   0.84676   0.00000  Uiso   1.00
O1321  O     0.10559   0.87154   0.74999   0.00000  Uiso   1.00
O1322  O     0.22774   0.79513   0.75000   0.00000  Uiso   1.00
O1323  O     0.22774   0.87154   0.75000   0.00000  Uiso   1.00
O1324  O     0.10559   0.79513   0.74999   0.00000  Uiso   1.00
C1325  C     0.08676   0.83333   0.74987   0.00000  Uiso   1.00
C1326  C     0.24657   0.83333   0.75013   0.00000  Uiso   1.00
O1327  O     0.16666   0.87156   0.68392   0.00000  Uiso   1.00
O1328  O     0.16667   0.79511   0.81607   0.00000  Uiso   1.00
O1329  O     0.16667   0.87156   0.81607   0.00000  Uiso   1.00
O1330  O     0.16666   0.79511   0.68392   0.00000  Uiso   1.00
C1331  C     0.16647   0.83341   0.66374   0.00000  Uiso   1.00
C1332  C     0.16686   0.83341   0.83626   0.00000  Uiso   1.00
Zn1333 Zn    0.16667   0.88437   0.75000   0.00000  Uiso   1.00
Zn1334 Zn    0.16667   0.78229   0.75000   0.00000  Uiso   1.00
C1335  C     0.20631   0.83895   0.90875   0.00000  Uiso   1.00
C1336  C     0.12702   0.83895   0.59125   0.00000  Uiso   1.00
C1337  C     0.16838   0.83431   0.88418   0.00000  Uiso   1.00
C1338  C     0.16495   0.83431   0.61582   0.00000  Uiso   1.00
C1339  C     0.13077   0.83652   0.90417   0.00000  Uiso   1.00
C1340  C     0.20256   0.83653   0.59583   0.00000  Uiso   1.00
C1341  C     0.12940   0.84135   0.95047   0.00000  Uiso   1.00
C1342  C     0.20393   0.84135   0.54953   0.00000  Uiso   1.00
C1343  C     0.16709   0.84458   0.97648   0.00000  Uiso   1.00
C1344  C     0.16625   0.84458   0.52352   0.00000  Uiso   1.00
C1345  C     0.20559   0.84660   0.95561   0.00000  Uiso   1.00
C1346  C     0.12775   0.84660   0.54439   0.00000  Uiso   1.00
C1347  C     0.09128   0.84503   0.97114   0.00000  Uiso   1.00
C1348  C     0.24206   0.84503   0.52886   0.00000  Uiso   1.00
C1349  C     0.09142   0.85497   0.51723   0.00000  Uiso   1.00
C1350  C     0.24191   0.85497   0.98277   0.00000  Uiso   1.00
H1351  H     0.10268   0.83537   0.88269   0.00000  Uiso   1.00
H1352  H     0.23065   0.83538   0.61731   0.00000  Uiso   1.00
C1353  C     0.02124   0.79279   0.74990   0.00000  Uiso   1.00
C1354  C     0.31210   0.87388   0.75010   0.00000  Uiso   1.00
C1355  C     0.31210   0.79279   0.75010   0.00000  Uiso   1.00
C1356  C     0.02124   0.87388   0.74990   0.00000  Uiso   1.00
H1357  H     0.03726   0.76113   0.74985   0.00000  Uiso   1.00
H1358  H     0.29607   0.90555   0.75015   0.00000  Uiso   1.00
H1359  H     0.29608   0.76113   0.75015   0.00000  Uiso   1.00
H1360  H     0.03726   0.90555   0.74985   0.00000  Uiso   1.00
C1361  C     0.29084   0.83334   0.75017   0.00000  Uiso   1.00
C1362  C     0.04250   0.83334   0.74983   0.00000  Uiso   1.00
C1363  C     0.19316   0.69050   0.77885   0.00000  Uiso   1.00
C1364  C     0.14019   0.97609   0.72112   0.00000  Uiso   1.00
C1365  C     0.14017   0.69050   0.72115   0.00000  Uiso   1.00
C1366  C     0.19314   0.97609   0.77888   0.00000  Uiso   1.00
N1367  N     0.16667   0.95240   0.75000   0.00000  Uiso   1.00
N1368  N     0.16667   0.71427   0.75000   0.00000  Uiso   1.00
C1369  C     0.24647   0.83110   0.88552   0.00000  Uiso   1.00
H1370  H     0.26751   0.80957   0.90665   0.00000  Uiso   1.00
H1371  H     0.24183   0.81313   0.85318   0.00000  Uiso   1.00
H1372  H     0.26143   0.86323   0.87786   0.00000  Uiso   1.00
C1373  C     0.08686   0.83109   0.61448   0.00000  Uiso   1.00
H1374  H     0.06583   0.80957   0.59335   0.00000  Uiso   1.00
H1375  H     0.09150   0.81312   0.64681   0.00000  Uiso   1.00
H1376  H     0.07191   0.86322   0.62214   0.00000  Uiso   1.00
C1377  C     0.05055   0.83739   0.94509   0.00000  Uiso   1.00
H1378  H     0.05196   0.80656   0.92464   0.00000  Uiso   1.00
H1379  H     0.02549   0.83159   0.96838   0.00000  Uiso   1.00
H1380  H     0.04287   0.86631   0.92296   0.00000  Uiso   1.00
C1381  C     0.28278   0.83740   0.55491   0.00000  Uiso   1.00
H1382  H     0.28137   0.80656   0.57536   0.00000  Uiso   1.00
H1383  H     0.30784   0.83159   0.53162   0.00000  Uiso   1.00
H1384  H     0.29046   0.86632   0.57703   0.00000  Uiso   1.00
C1385  C     0.05719   0.88389   0.53413   0.00000  Uiso   1.00
H1386  H     0.04128   0.90284   0.50623   0.00000  Uiso   1.00
H1387  H     0.03395   0.86366   0.55056   0.00000  Uiso   1.00
H1388  H     0.07022   0.90919   0.55813   0.00000  Uiso   1.00
C1389  C     0.27614   0.88390   0.96587   0.00000  Uiso   1.00
H1390  H     0.29206   0.90285   0.99378   0.00000  Uiso   1.00
H1391  H     0.29938   0.86366   0.94944   0.00000  Uiso   1.00
H1392  H     0.26311   0.90919   0.94187   0.00000  Uiso   1.00
C1393  C     0.22317   0.71397   0.81149   0.00000  Uiso   1.00
H1394  H     0.22188   0.74988   0.80980   0.00000  Uiso   1.00
H1395  H     0.21667   0.70503   0.84664   0.00000  Uiso   1.00
H1396  H     0.25546   0.70479   0.80463   0.00000  Uiso   1.00
C1397  C     0.11024   0.95254   0.68834   0.00000  Uiso   1.00
H1398  H     0.11133   0.91654   0.68981   0.00000  Uiso   1.00
H1399  H     0.07793   0.96178   0.69509   0.00000  Uiso   1.00
H1400  H     0.11682   0.96156   0.65324   0.00000  Uiso   1.00
C1401  C     0.11016   0.71397   0.68851   0.00000  Uiso   1.00
H1402  H     0.11145   0.74988   0.69020   0.00000  Uiso   1.00
H1403  H     0.11667   0.70503   0.65336   0.00000  Uiso   1.00
H1404  H     0.07787   0.70479   0.69537   0.00000  Uiso   1.00
C1405  C     0.22310   0.95254   0.81166   0.00000  Uiso   1.00
H1406  H     0.22201   0.91654   0.81019   0.00000  Uiso   1.00
H1407  H     0.25540   0.96178   0.80491   0.00000  Uiso   1.00
H1408  H     0.21651   0.96156   0.84676   0.00000  Uiso   1.00
O1409  O     0.43892   0.87154   0.74999   0.00000  Uiso   1.00
O1410  O     0.56108   0.79513   0.75000   0.00000  Uiso   1.00
O1411  O     0.56108   0.87154   0.75000   0.00000  Uiso   1.00
O1412  O     0.43892   0.79513   0.74999   0.00000  Uiso   1.00
C1413  C     0.42009   0.83333   0.74987   0.00000  Uiso   1.00
C1414  C     0.57991   0.83333   0.75013   0.00000  Uiso   1.00
O1415  O     0.49999   0.87156   0.68392   0.00000  Uiso   1.00
O1416  O     0.50001   0.79511   0.81607   0.00000  Uiso   1.00
O1417  O     0.50001   0.87156   0.81607   0.00000  Uiso   1.00
O1418  O     0.49999   0.79511   0.68392   0.00000  Uiso   1.00
C1419  C     0.49981   0.83341   0.66374   0.00000  Uiso   1.00
C1420  C     0.50019   0.83341   0.83626   0.00000  Uiso   1.00
Zn1421 Zn    0.50000   0.88437   0.75000   0.00000  Uiso   1.00
Zn1422 Zn    0.50000   0.78229   0.75000   0.00000  Uiso   1.00
C1423  C     0.53965   0.83895   0.90875   0.00000  Uiso   1.00
C1424  C     0.46035   0.83895   0.59125   0.00000  Uiso   1.00
C1425  C     0.50172   0.83431   0.88418   0.00000  Uiso   1.00
C1426  C     0.49828   0.83431   0.61582   0.00000  Uiso   1.00
C1427  C     0.46410   0.83652   0.90417   0.00000  Uiso   1.00
C1428  C     0.53590   0.83653   0.59583   0.00000  Uiso   1.00
C1429  C     0.46273   0.84135   0.95047   0.00000  Uiso   1.00
C1430  C     0.53727   0.84135   0.54953   0.00000  Uiso   1.00
C1431  C     0.50042   0.84458   0.97648   0.00000  Uiso   1.00
C1432  C     0.49958   0.84458   0.52352   0.00000  Uiso   1.00
C1433  C     0.53892   0.84660   0.95561   0.00000  Uiso   1.00
C1434  C     0.46108   0.84660   0.54439   0.00000  Uiso   1.00
C1435  C     0.42461   0.84503   0.97114   0.00000  Uiso   1.00
C1436  C     0.57539   0.84503   0.52886   0.00000  Uiso   1.00
C1437  C     0.42476   0.85497   0.51723   0.00000  Uiso   1.00
C1438  C     0.57524   0.85497   0.98277   0.00000  Uiso   1.00
H1439  H     0.43602   0.83537   0.88269   0.00000  Uiso   1.00
H1440  H     0.56398   0.83538   0.61731   0.00000  Uiso   1.00
C1441  C     0.35457   0.79279   0.74990   0.00000  Uiso   1.00
C1442  C     0.64543   0.87388   0.75010   0.00000  Uiso   1.00
C1443  C     0.64543   0.79279   0.75010   0.00000  Uiso   1.00
C1444  C     0.35457   0.87388   0.74990   0.00000  Uiso   1.00
H1445  H     0.37059   0.76113   0.74985   0.00000  Uiso   1.00
H1446  H     0.62941   0.90555   0.75015   0.00000  Uiso   1.00
H1447  H     0.62941   0.76113   0.75015   0.00000  Uiso   1.00
H1448  H     0.37059   0.90555   0.74985   0.00000  Uiso   1.00
C1449  C     0.62417   0.83334   0.75017   0.00000  Uiso   1.00
C1450  C     0.37583   0.83334   0.74983   0.00000  Uiso   1.00
C1451  C     0.52649   0.69050   0.77885   0.00000  Uiso   1.00
C1452  C     0.47352   0.97609   0.72112   0.00000  Uiso   1.00
C1453  C     0.47351   0.69050   0.72115   0.00000  Uiso   1.00
C1454  C     0.52648   0.97609   0.77888   0.00000  Uiso   1.00
N1455  N     0.50000   0.95240   0.75000   0.00000  Uiso   1.00
N1456  N     0.50000   0.71427   0.75000   0.00000  Uiso   1.00
C1457  C     0.57980   0.83110   0.88552   0.00000  Uiso   1.00
H1458  H     0.60084   0.80957   0.90665   0.00000  Uiso   1.00
H1459  H     0.57517   0.81313   0.85318   0.00000  Uiso   1.00
H1460  H     0.59476   0.86323   0.87786   0.00000  Uiso   1.00
C1461  C     0.42020   0.83109   0.61448   0.00000  Uiso   1.00
H1462  H     0.39916   0.80957   0.59335   0.00000  Uiso   1.00
H1463  H     0.42483   0.81312   0.64681   0.00000  Uiso   1.00
H1464  H     0.40524   0.86322   0.62214   0.00000  Uiso   1.00
C1465  C     0.38389   0.83739   0.94509   0.00000  Uiso   1.00
H1466  H     0.38530   0.80656   0.92464   0.00000  Uiso   1.00
H1467  H     0.35883   0.83159   0.96838   0.00000  Uiso   1.00
H1468  H     0.37621   0.86631   0.92296   0.00000  Uiso   1.00
C1469  C     0.61611   0.83740   0.55491   0.00000  Uiso   1.00
H1470  H     0.61470   0.80656   0.57536   0.00000  Uiso   1.00
H1471  H     0.64117   0.83159   0.53162   0.00000  Uiso   1.00
H1472  H     0.62380   0.86632   0.57703   0.00000  Uiso   1.00
C1473  C     0.39052   0.88389   0.53413   0.00000  Uiso   1.00
H1474  H     0.37461   0.90284   0.50623   0.00000  Uiso   1.00
H1475  H     0.36729   0.86366   0.55056   0.00000  Uiso   1.00
H1476  H     0.40355   0.90919   0.55813   0.00000  Uiso   1.00
C1477  C     0.60948   0.88390   0.96587   0.00000  Uiso   1.00
H1478  H     0.62539   0.90285   0.99378   0.00000  Uiso   1.00
H1479  H     0.63271   0.86366   0.94944   0.00000  Uiso   1.00
H1480  H     0.59645   0.90919   0.94187   0.00000  Uiso   1.00
C1481  C     0.55650   0.71397   0.81149   0.00000  Uiso   1.00
H1482  H     0.55521   0.74988   0.80980   0.00000  Uiso   1.00
H1483  H     0.55000   0.70503   0.84664   0.00000  Uiso   1.00
H1484  H     0.58880   0.70479   0.80463   0.00000  Uiso   1.00
C1485  C     0.44357   0.95254   0.68834   0.00000  Uiso   1.00
H1486  H     0.44466   0.91654   0.68981   0.00000  Uiso   1.00
H1487  H     0.41126   0.96178   0.69509   0.00000  Uiso   1.00
H1488  H     0.45016   0.96156   0.65324   0.00000  Uiso   1.00
C1489  C     0.44350   0.71397   0.68851   0.00000  Uiso   1.00
H1490  H     0.44479   0.74988   0.69020   0.00000  Uiso   1.00
H1491  H     0.45000   0.70503   0.65336   0.00000  Uiso   1.00
H1492  H     0.41120   0.70479   0.69537   0.00000  Uiso   1.00
C1493  C     0.55643   0.95254   0.81166   0.00000  Uiso   1.00
H1494  H     0.55534   0.91654   0.81019   0.00000  Uiso   1.00
H1495  H     0.58873   0.96178   0.80491   0.00000  Uiso   1.00
H1496  H     0.54984   0.96156   0.84676   0.00000  Uiso   1.00
O1497  O     0.77226   0.87154   0.74999   0.00000  Uiso   1.00
O1498  O     0.89441   0.79513   0.75000   0.00000  Uiso   1.00
O1499  O     0.89441   0.87154   0.75000   0.00000  Uiso   1.00
O1500  O     0.77226   0.79513   0.74999   0.00000  Uiso   1.00
C1501  C     0.75343   0.83333   0.74987   0.00000  Uiso   1.00
C1502  C     0.91324   0.83333   0.75013   0.00000  Uiso   1.00
O1503  O     0.83333   0.87156   0.68392   0.00000  Uiso   1.00
O1504  O     0.83334   0.79511   0.81607   0.00000  Uiso   1.00
O1505  O     0.83334   0.87156   0.81607   0.00000  Uiso   1.00
O1506  O     0.83333   0.79511   0.68392   0.00000  Uiso   1.00
C1507  C     0.83314   0.83341   0.66374   0.00000  Uiso   1.00
C1508  C     0.83353   0.83341   0.83626   0.00000  Uiso   1.00
Zn1509 Zn    0.83333   0.88437   0.75000   0.00000  Uiso   1.00
Zn1510 Zn    0.83333   0.78229   0.75000   0.00000  Uiso   1.00
C1511  C     0.87298   0.83895   0.90875   0.00000  Uiso   1.00
C1512  C     0.79369   0.83895   0.59125   0.00000  Uiso   1.00
C1513  C     0.83505   0.83431   0.88418   0.00000  Uiso   1.00
C1514  C     0.83162   0.83431   0.61582   0.00000  Uiso   1.00
C1515  C     0.79744   0.83652   0.90417   0.00000  Uiso   1.00
C1516  C     0.86923   0.83653   0.59583   0.00000  Uiso   1.00
C1517  C     0.79607   0.84135   0.95047   0.00000  Uiso   1.00
C1518  C     0.87060   0.84135   0.54953   0.00000  Uiso   1.00
C1519  C     0.83375   0.84458   0.97648   0.00000  Uiso   1.00
C1520  C     0.83291   0.84458   0.52352   0.00000  Uiso   1.00
C1521  C     0.87225   0.84660   0.95561   0.00000  Uiso   1.00
C1522  C     0.79441   0.84660   0.54439   0.00000  Uiso   1.00
C1523  C     0.75794   0.84503   0.97114   0.00000  Uiso   1.00
C1524  C     0.90872   0.84503   0.52886   0.00000  Uiso   1.00
C1525  C     0.75809   0.85497   0.51723   0.00000  Uiso   1.00
C1526  C     0.90858   0.85497   0.98277   0.00000  Uiso   1.00
H1527  H     0.76935   0.83537   0.88269   0.00000  Uiso   1.00
H1528  H     0.89732   0.83538   0.61731   0.00000  Uiso   1.00
C1529  C     0.68790   0.79279   0.74990   0.00000  Uiso   1.00
C1530  C     0.97876   0.87388   0.75010   0.00000  Uiso   1.00
C1531  C     0.97876   0.79279   0.75010   0.00000  Uiso   1.00
C1532  C     0.68790   0.87388   0.74990   0.00000  Uiso   1.00
H1533  H     0.70392   0.76113   0.74985   0.00000  Uiso   1.00
H1534  H     0.96274   0.90555   0.75015   0.00000  Uiso   1.00
H1535  H     0.96274   0.76113   0.75015   0.00000  Uiso   1.00
H1536  H     0.70392   0.90555   0.74985   0.00000  Uiso   1.00
C1537  C     0.95750   0.83334   0.75017   0.00000  Uiso   1.00
C1538  C     0.70916   0.83334   0.74983   0.00000  Uiso   1.00
C1539  C     0.85983   0.69050   0.77885   0.00000  Uiso   1.00
C1540  C     0.80686   0.97609   0.72112   0.00000  Uiso   1.00
C1541  C     0.80684   0.69050   0.72115   0.00000  Uiso   1.00
C1542  C     0.85981   0.97609   0.77888   0.00000  Uiso   1.00
N1543  N     0.83333   0.95240   0.75000   0.00000  Uiso   1.00
N1544  N     0.83333   0.71427   0.75000   0.00000  Uiso   1.00
C1545  C     0.91314   0.83110   0.88552   0.00000  Uiso   1.00
H1546  H     0.93417   0.80957   0.90665   0.00000  Uiso   1.00
H1547  H     0.90850   0.81313   0.85318   0.00000  Uiso   1.00
H1548  H     0.92809   0.86323   0.87786   0.00000  Uiso   1.00
C1549  C     0.75353   0.83109   0.61448   0.00000  Uiso   1.00
H1550  H     0.73250   0.80957   0.59335   0.00000  Uiso   1.00
H1551  H     0.75817   0.81312   0.64681   0.00000  Uiso   1.00
H1552  H     0.73857   0.86322   0.62214   0.00000  Uiso   1.00
C1553  C     0.71722   0.83739   0.94509   0.00000  Uiso   1.00
H1554  H     0.71863   0.80656   0.92464   0.00000  Uiso   1.00
H1555  H     0.69216   0.83159   0.96838   0.00000  Uiso   1.00
H1556  H     0.70954   0.86631   0.92296   0.00000  Uiso   1.00
C1557  C     0.94945   0.83740   0.55491   0.00000  Uiso   1.00
H1558  H     0.94804   0.80656   0.57536   0.00000  Uiso   1.00
H1559  H     0.97450   0.83159   0.53162   0.00000  Uiso   1.00
H1560  H     0.95713   0.86632   0.57703   0.00000  Uiso   1.00
C1561  C     0.72386   0.88389   0.53413   0.00000  Uiso   1.00
H1562  H     0.70794   0.90284   0.50623   0.00000  Uiso   1.00
H1563  H     0.70062   0.86366   0.55056   0.00000  Uiso   1.00
H1564  H     0.73689   0.90919   0.55813   0.00000  Uiso   1.00
C1565  C     0.94281   0.88390   0.96587   0.00000  Uiso   1.00
H1566  H     0.95872   0.90285   0.99378   0.00000  Uiso   1.00
H1567  H     0.96605   0.86366   0.94944   0.00000  Uiso   1.00
H1568  H     0.92978   0.90919   0.94187   0.00000  Uiso   1.00
C1569  C     0.88984   0.71397   0.81149   0.00000  Uiso   1.00
H1570  H     0.88855   0.74988   0.80980   0.00000  Uiso   1.00
H1571  H     0.88333   0.70503   0.84664   0.00000  Uiso   1.00
H1572  H     0.92213   0.70479   0.80463   0.00000  Uiso   1.00
C1573  C     0.77690   0.95254   0.68834   0.00000  Uiso   1.00
H1574  H     0.77799   0.91654   0.68981   0.00000  Uiso   1.00
H1575  H     0.74460   0.96178   0.69509   0.00000  Uiso   1.00
H1576  H     0.78349   0.96156   0.65324   0.00000  Uiso   1.00
C1577  C     0.77683   0.71397   0.68851   0.00000  Uiso   1.00
H1578  H     0.77812   0.74988   0.69020   0.00000  Uiso   1.00
H1579  H     0.78333   0.70503   0.65336   0.00000  Uiso   1.00
H1580  H     0.74454   0.70479   0.69537   0.00000  Uiso   1.00
C1581  C     0.88976   0.95254   0.81166   0.00000  Uiso   1.00
H1582  H     0.88867   0.91654   0.81019   0.00000  Uiso   1.00
H1583  H     0.92207   0.96178   0.80491   0.00000  Uiso   1.00
H1584  H     0.88318   0.96156   0.84676   0.00000  Uiso   1.00
loop_
_geom_bond_atom_site_label_1
_geom_bond_atom_site_label_2
_geom_bond_distance
_geom_bond_site_symmetry_2
_ccdc_geom_bond_type
O1     C5      1.299   .     A
O1     Zn13    2.013   .     S
O2     C6      1.299   .     A
O2     Zn14    2.013   .     S
O3     C6      1.299   .     A
O3     Zn13    2.013   .     S
O4     C5      1.299   .     A
O4     Zn14    2.013   .     S
C5     C42     1.432   .     S
C6     C41     1.432   .     S
O7     C11     1.293   .     A
O7     Zn13    2.002   .     S
O8     C12     1.298   .     A
O8     Zn14    2.002   .     S
O9     Zn13    2.002   .     S
O9     C12     1.293   .     A
O10    Zn14    2.002   .     S
O10    C11     1.298   .     A
C11    C18     1.423   .     S
C12    C17     1.423   .     S
Zn13   N47     2.044   .     S
Zn14   N48     2.044   .     S
C15    C25     1.414   .     A
C15    C17     1.402   .     A
C15    C49     1.521   .     S
C16    C53     1.521   .     S
C16    C26     1.414   .     A
C16    C18     1.402   .     A
C17    C19     1.383   .     A
C18    C20     1.383   .     A
C19    H31     1.084   .     S
C19    C21     1.388   .     A
C20    C22     1.388   .     A
C20    H32     1.084   .     S
C21    C27     1.410   .     A
C21    C23     1.413   .     A
C22    C28     1.410   .     A
C22    C24     1.413   .     A
C23    C25     1.421   .     A
C23    C816    1.400   .     S
C24    C26     1.421   .     A
C24    C815    1.400   1_554 S
C25    C30     1.414   .     A
C26    C29     1.414   .     A
C27    C57     1.511   .     S
C27    C821    1.403   .     S
C28    C61     1.511   .     S
C28    C822    1.403   1_554 S
C29    C65     1.514   .     S
C29    C819    1.403   1_554 S
C30    C69     1.514   .     S
C30    C820    1.403   .     S
C33    C42     1.399   .     A
C33    H37     1.083   .     S
C33    C211    1.374   1_455 S
C34    C41     1.399   .     A
C34    H38     1.083   .     S
C34    C124    1.374   .     S
C35    C41     1.399   .     A
C35    H39     1.083   .     S
C35    C121    1.374   .     S
C36    C42     1.399   .     A
C36    H40     1.083   .     S
C36    C210    1.374   1_455 S
C43    C73     1.511   .     S
C43    N48     1.380   .     A
C43    C574    1.434   1_545 S
C44    C77     1.514   .     S
C44    N47     1.379   .     A
C44    C309    1.434   .     S
C45    N48     1.380   .     A
C45    C81     1.511   .     S
C45    C572    1.434   1_545 S
C46    C85     1.514   .     S
C46    N47     1.379   .     A
C46    C307    1.434   .     S
C49    H51     1.106   .     S
C49    H50     1.110   .     S
C49    H52     1.109   .     S
C53    H54     1.110   .     S
C53    H56     1.109   .     S
C53    H55     1.106   .     S
C57    H60     1.110   .     S
C57    H58     1.110   .     S
C57    H59     1.107   .     S
C61    H63     1.107   .     S
C61    H62     1.110   .     S
C61    H64     1.110   .     S
C65    H67     1.100   .     S
C65    H68     1.111   .     S
C65    H66     1.111   .     S
C69    H71     1.101   .     S
C69    H72     1.111   .     S
C69    H70     1.111   .     S
C73    H74     1.081   .     S
C73    H75     1.110   .     S
C73    H76     1.109   .     S
C77    H78     1.083   .     S
C77    H79     1.109   .     S
C77    H80     1.110   .     S
C81    H84     1.109   .     S
C81    H82     1.081   .     S
C81    H83     1.110   .     S
C85    H87     1.109   .     S
C85    H86     1.083   .     S
C85    H88     1.110   .     S
O89    C93     1.299   .     A
O89    Zn101   2.013   .     S
O90    C94     1.299   .     A
O90    Zn102   2.013   .     S
O91    C94     1.299   .     A
O91    Zn101   2.013   .     S
O92    C93     1.299   .     A
O92    Zn102   2.013   .     S
C93    C130    1.432   .     S
C94    C129    1.432   .     S
O95    C99     1.293   .     A
O95    Zn101   2.002   .     S
O96    C100    1.298   .     A
O96    Zn102   2.002   .     S
O97    Zn101   2.002   .     S
O97    C100    1.293   .     A
O98    Zn102   2.002   .     S
O98    C99     1.298   .     A
C99    C106    1.423   .     S
C100   C105    1.423   .     S
Zn101  N135    2.044   .     S
Zn102  N136    2.044   .     S
C103   C113    1.414   .     A
C103   C105    1.402   .     A
C103   C137    1.521   .     S
C104   C141    1.521   .     S
C104   C114    1.414   .     A
C104   C106    1.402   .     A
C105   C107    1.383   .     A
C106   C108    1.383   .     A
C107   H119    1.084   .     S
C107   C109    1.388   .     A
C108   C110    1.388   .     A
C108   H120    1.084   .     S
C109   C115    1.410   .     A
C109   C111    1.413   .     A
C110   C116    1.410   .     A
C110   C112    1.413   .     A
C111   C113    1.421   .     A
C111   C904    1.400   .     S
C112   C114    1.421   .     A
C112   C903    1.400   1_554 S
C113   C118    1.414   .     A
C114   C117    1.414   .     A
C115   C145    1.511   .     S
C115   C909    1.403   .     S
C116   C149    1.511   .     S
C116   C910    1.403   1_554 S
C117   C153    1.514   .     S
C117   C907    1.403   1_554 S
C118   C157    1.514   .     S
C118   C908    1.403   .     S
C121   C130    1.399   .     A
C121   H125    1.083   .     S
C122   C129    1.399   .     A
C122   H126    1.083   .     S
C122   C212    1.374   .     S
C123   C129    1.399   .     A
C123   H127    1.083   .     S
C123   C209    1.374   .     S
C124   C130    1.399   .     A
C124   H128    1.083   .     S
C131   C161    1.511   .     S
C131   N136    1.380   .     A
C131   C662    1.434   1_545 S
C132   C165    1.514   .     S
C132   N135    1.379   .     A
C132   C397    1.434   .     S
C133   N136    1.380   .     A
C133   C169    1.511   .     S
C133   C660    1.434   1_545 S
C134   C173    1.514   .     S
C134   N135    1.379   .     A
C134   C395    1.434   .     S
C137   H139    1.106   .     S
C137   H138    1.110   .     S
C137   H140    1.109   .     S
C141   H142    1.110   .     S
C141   H144    1.109   .     S
C141   H143    1.106   .     S
C145   H148    1.110   .     S
C145   H146    1.110   .     S
C145   H147    1.107   .     S
C149   H151    1.107   .     S
C149   H150    1.110   .     S
C149   H152    1.110   .     S
C153   H155    1.100   .     S
C153   H156    1.111   .     S
C153   H154    1.111   .     S
C157   H159    1.101   .     S
C157   H160    1.111   .     S
C157   H158    1.111   .     S
C161   H162    1.081   .     S
C161   H163    1.110   .     S
C161   H164    1.109   .     S
C165   H166    1.083   .     S
C165   H167    1.109   .     S
C165   H168    1.110   .     S
C169   H172    1.109   .     S
C169   H170    1.081   .     S
C169   H171    1.110   .     S
C173   H175    1.109   .     S
C173   H174    1.083   .     S
C173   H176    1.110   .     S
O177   C181    1.299   .     A
O177   Zn189   2.013   .     S
O178   C182    1.299   .     A
O178   Zn190   2.013   .     S
O179   C182    1.299   .     A
O179   Zn189   2.013   .     S
O180   C181    1.299   .     A
O180   Zn190   2.013   .     S
C181   C218    1.432   .     S
C182   C217    1.432   .     S
O183   C187    1.293   .     A
O183   Zn189   2.002   .     S
O184   C188    1.298   .     A
O184   Zn190   2.002   .     S
O185   Zn189   2.002   .     S
O185   C188    1.293   .     A
O186   Zn190   2.002   .     S
O186   C187    1.298   .     A
C187   C194    1.423   .     S
C188   C193    1.423   .     S
Zn189  N223    2.044   .     S
Zn190  N224    2.044   .     S
C191   C201    1.414   .     A
C191   C193    1.402   .     A
C191   C225    1.521   .     S
C192   C229    1.521   .     S
C192   C202    1.414   .     A
C192   C194    1.402   .     A
C193   C195    1.383   .     A
C194   C196    1.383   .     A
C195   H207    1.084   .     S
C195   C197    1.388   .     A
C196   C198    1.388   .     A
C196   H208    1.084   .     S
C197   C203    1.410   .     A
C197   C199    1.413   .     A
C198   C204    1.410   .     A
C198   C200    1.413   .     A
C199   C201    1.421   .     A
C199   C992    1.400   .     S
C200   C202    1.421   .     A
C200   C991    1.400   1_554 S
C201   C206    1.414   .     A
C202   C205    1.414   .     A
C203   C233    1.511   .     S
C203   C997    1.403   .     S
C204   C237    1.511   .     S
C204   C998    1.403   1_554 S
C205   C241    1.514   .     S
C205   C995    1.403   1_554 S
C206   C245    1.514   .     S
C206   C996    1.403   .     S
C209   C218    1.399   .     A
C209   H213    1.083   .     S
C210   C217    1.399   .     A
C210   H214    1.083   .     S
C210   C36     1.374   1_655 S
C211   C217    1.399   .     A
C211   H215    1.083   .     S
C211   C33     1.374   1_655 S
C212   C218    1.399   .     A
C212   H216    1.083   .     S
C219   C249    1.511   .     S
C219   N224    1.380   .     A
C219   C750    1.434   1_545 S
C220   C253    1.514   .     S
C220   N223    1.379   .     A
C220   C485    1.434   .     S
C221   N224    1.380   .     A
C221   C257    1.511   .     S
C221   C748    1.434   1_545 S
C222   C261    1.514   .     S
C222   N223    1.379   .     A
C222   C483    1.434   .     S
C225   H227    1.106   .     S
C225   H226    1.110   .     S
C225   H228    1.109   .     S
C229   H230    1.110   .     S
C229   H232    1.109   .     S
C229   H231    1.106   .     S
C233   H236    1.110   .     S
C233   H234    1.110   .     S
C233   H235    1.107   .     S
C237   H239    1.107   .     S
C237   H238    1.110   .     S
C237   H240    1.110   .     S
C241   H243    1.100   .     S
C241   H244    1.111   .     S
C241   H242    1.111   .     S
C245   H247    1.101   .     S
C245   H248    1.111   .     S
C245   H246    1.111   .     S
C249   H250    1.081   .     S
C249   H251    1.110   .     S
C249   H252    1.109   .     S
C253   H254    1.083   .     S
C253   H255    1.109   .     S
C253   H256    1.110   .     S
C257   H260    1.109   .     S
C257   H258    1.081   .     S
C257   H259    1.110   .     S
C261   H263    1.109   .     S
C261   H262    1.083   .     S
C261   H264    1.110   .     S
O265   C269    1.299   .     A
O265   Zn277   2.013   .     S
O266   C270    1.299   .     A
O266   Zn278   2.013   .     S
O267   C270    1.299   .     A
O267   Zn277   2.013   .     S
O268   C269    1.299   .     A
O268   Zn278   2.013   .     S
C269   C306    1.432   .     S
C270   C305    1.432   .     S
O271   C275    1.293   .     A
O271   Zn277   2.002   .     S
O272   C276    1.298   .     A
O272   Zn278   2.002   .     S
O273   Zn277   2.002   .     S
O273   C276    1.293   .     A
O274   Zn278   2.002   .     S
O274   C275    1.298   .     A
C275   C282    1.423   .     S
C276   C281    1.423   .     S
Zn277  N311    2.044   .     S
Zn278  N312    2.044   .     S
C279   C289    1.414   .     A
C279   C281    1.402   .     A
C279   C313    1.521   .     S
C280   C317    1.521   .     S
C280   C290    1.414   .     A
C280   C282    1.402   .     A
C281   C283    1.383   .     A
C282   C284    1.383   .     A
C283   H295    1.084   .     S
C283   C285    1.388   .     A
C284   C286    1.388   .     A
C284   H296    1.084   .     S
C285   C291    1.410   .     A
C285   C287    1.413   .     A
C286   C292    1.410   .     A
C286   C288    1.413   .     A
C287   C289    1.421   .     A
C287   C1080   1.400   .     S
C288   C290    1.421   .     A
C288   C1079   1.400   1_554 S
C289   C294    1.414   .     A
C290   C293    1.414   .     A
C291   C321    1.511   .     S
C291   C1085   1.403   .     S
C292   C325    1.511   .     S
C292   C1086   1.403   1_554 S
C293   C329    1.514   .     S
C293   C1083   1.403   1_554 S
C294   C333    1.514   .     S
C294   C1084   1.403   .     S
C297   C306    1.399   .     A
C297   H301    1.083   .     S
C297   C475    1.374   1_455 S
C298   C305    1.399   .     A
C298   H302    1.083   .     S
C298   C388    1.374   .     S
C299   C305    1.399   .     A
C299   H303    1.083   .     S
C299   C385    1.374   .     S
C300   C306    1.399   .     A
C300   H304    1.083   .     S
C300   C474    1.374   1_455 S
C307   C337    1.511   .     S
C307   N312    1.380   .     A
C308   C341    1.514   .     S
C308   N311    1.379   .     A
C308   C573    1.434   .     S
C309   N312    1.380   .     A
C309   C345    1.511   .     S
C310   C349    1.514   .     S
C310   N311    1.379   .     A
C310   C571    1.434   .     S
C313   H315    1.106   .     S
C313   H314    1.110   .     S
C313   H316    1.109   .     S
C317   H318    1.110   .     S
C317   H320    1.109   .     S
C317   H319    1.106   .     S
C321   H324    1.110   .     S
C321   H322    1.110   .     S
C321   H323    1.107   .     S
C325   H327    1.107   .     S
C325   H326    1.110   .     S
C325   H328    1.110   .     S
C329   H331    1.100   .     S
C329   H332    1.111   .     S
C329   H330    1.111   .     S
C333   H335    1.101   .     S
C333   H336    1.111   .     S
C333   H334    1.111   .     S
C337   H338    1.081   .     S
C337   H339    1.110   .     S
C337   H340    1.109   .     S
C341   H342    1.083   .     S
C341   H343    1.109   .     S
C341   H344    1.110   .     S
C345   H348    1.109   .     S
C345   H346    1.081   .     S
C345   H347    1.110   .     S
C349   H351    1.109   .     S
C349   H350    1.083   .     S
C349   H352    1.110   .     S
O353   C357    1.299   .     A
O353   Zn365   2.013   .     S
O354   C358    1.299   .     A
O354   Zn366   2.013   .     S
O355   C358    1.299   .     A
O355   Zn365   2.013   .     S
O356   C357    1.299   .     A
O356   Zn366   2.013   .     S
C357   C394    1.432   .     S
C358   C393    1.432   .     S
O359   C363    1.293   .     A
O359   Zn365   2.002   .     S
O360   C364    1.298   .     A
O360   Zn366   2.002   .     S
O361   Zn365   2.002   .     S
O361   C364    1.293   .     A
O362   Zn366   2.002   .     S
O362   C363    1.298   .     A
C363   C370    1.423   .     S
C364   C369    1.423   .     S
Zn365  N399    2.044   .     S
Zn366  N400    2.044   .     S
C367   C377    1.414   .     A
C367   C369    1.402   .     A
C367   C401    1.521   .     S
C368   C405    1.521   .     S
C368   C378    1.414   .     A
C368   C370    1.402   .     A
C369   C371    1.383   .     A
C370   C372    1.383   .     A
C371   H383    1.084   .     S
C371   C373    1.388   .     A
C372   C374    1.388   .     A
C372   H384    1.084   .     S
C373   C379    1.410   .     A
C373   C375    1.413   .     A
C374   C380    1.410   .     A
C374   C376    1.413   .     A
C375   C377    1.421   .     A
C375   C1168   1.400   .     S
C376   C378    1.421   .     A
C376   C1167   1.400   1_554 S
C377   C382    1.414   .     A
C378   C381    1.414   .     A
C379   C409    1.511   .     S
C379   C1173   1.403   .     S
C380   C413    1.511   .     S
C380   C1174   1.403   1_554 S
C381   C417    1.514   .     S
C381   C1171   1.403   1_554 S
C382   C421    1.514   .     S
C382   C1172   1.403   .     S
C385   C394    1.399   .     A
C385   H389    1.083   .     S
C386   C393    1.399   .     A
C386   H390    1.083   .     S
C386   C476    1.374   .     S
C387   C393    1.399   .     A
C387   H391    1.083   .     S
C387   C473    1.374   .     S
C388   C394    1.399   .     A
C388   H392    1.083   .     S
C395   C425    1.511   .     S
C395   N400    1.380   .     A
C396   C429    1.514   .     S
C396   N399    1.379   .     A
C396   C661    1.434   .     S
C397   N400    1.380   .     A
C397   C433    1.511   .     S
C398   C437    1.514   .     S
C398   N399    1.379   .     A
C398   C659    1.434   .     S
C401   H403    1.106   .     S
C401   H402    1.110   .     S
C401   H404    1.109   .     S
C405   H406    1.110   .     S
C405   H408    1.109   .     S
C405   H407    1.106   .     S
C409   H412    1.110   .     S
C409   H410    1.110   .     S
C409   H411    1.107   .     S
C413   H415    1.107   .     S
C413   H414    1.110   .     S
C413   H416    1.110   .     S
C417   H419    1.100   .     S
C417   H420    1.111   .     S
C417   H418    1.111   .     S
C421   H423    1.101   .     S
C421   H424    1.111   .     S
C421   H422    1.111   .     S
C425   H426    1.081   .     S
C425   H427    1.110   .     S
C425   H428    1.109   .     S
C429   H430    1.083   .     S
C429   H431    1.109   .     S
C429   H432    1.110   .     S
C433   H436    1.109   .     S
C433   H434    1.081   .     S
C433   H435    1.110   .     S
C437   H439    1.109   .     S
C437   H438    1.083   .     S
C437   H440    1.110   .     S
O441   C445    1.299   .     A
O441   Zn453   2.013   .     S
O442   C446    1.299   .     A
O442   Zn454   2.013   .     S
O443   C446    1.299   .     A
O443   Zn453   2.013   .     S
O444   C445    1.299   .     A
O444   Zn454   2.013   .     S
C445   C482    1.432   .     S
C446   C481    1.432   .     S
O447   C451    1.293   .     A
O447   Zn453   2.002   .     S
O448   C452    1.298   .     A
O448   Zn454   2.002   .     S
O449   Zn453   2.002   .     S
O449   C452    1.293   .     A
O450   Zn454   2.002   .     S
O450   C451    1.298   .     A
C451   C458    1.423   .     S
C452   C457    1.423   .     S
Zn453  N487    2.044   .     S
Zn454  N488    2.044   .     S
C455   C465    1.414   .     A
C455   C457    1.402   .     A
C455   C489    1.521   .     S
C456   C493    1.521   .     S
C456   C466    1.414   .     A
C456   C458    1.402   .     A
C457   C459    1.383   .     A
C458   C460    1.383   .     A
C459   H471    1.084   .     S
C459   C461    1.388   .     A
C460   C462    1.388   .     A
C460   H472    1.084   .     S
C461   C467    1.410   .     A
C461   C463    1.413   .     A
C462   C468    1.410   .     A
C462   C464    1.413   .     A
C463   C465    1.421   .     A
C463   C1256   1.400   .     S
C464   C466    1.421   .     A
C464   C1255   1.400   1_554 S
C465   C470    1.414   .     A
C466   C469    1.414   .     A
C467   C497    1.511   .     S
C467   C1261   1.403   .     S
C468   C501    1.511   .     S
C468   C1262   1.403   1_554 S
C469   C505    1.514   .     S
C469   C1259   1.403   1_554 S
C470   C509    1.514   .     S
C470   C1260   1.403   .     S
C473   C482    1.399   .     A
C473   H477    1.083   .     S
C474   C481    1.399   .     A
C474   H478    1.083   .     S
C474   C300    1.374   1_655 S
C475   C481    1.399   .     A
C475   H479    1.083   .     S
C475   C297    1.374   1_655 S
C476   C482    1.399   .     A
C476   H480    1.083   .     S
C483   C513    1.511   .     S
C483   N488    1.380   .     A
C484   C517    1.514   .     S
C484   N487    1.379   .     A
C484   C749    1.434   .     S
C485   N488    1.380   .     A
C485   C521    1.511   .     S
C486   C525    1.514   .     S
C486   N487    1.379   .     A
C486   C747    1.434   .     S
C489   H491    1.106   .     S
C489   H490    1.110   .     S
C489   H492    1.109   .     S
C493   H494    1.110   .     S
C493   H496    1.109   .     S
C493   H495    1.106   .     S
C497   H500    1.110   .     S
C497   H498    1.110   .     S
C497   H499    1.107   .     S
C501   H503    1.107   .     S
C501   H502    1.110   .     S
C501   H504    1.110   .     S
C505   H507    1.100   .     S
C505   H508    1.111   .     S
C505   H506    1.111   .     S
C509   H511    1.101   .     S
C509   H512    1.111   .     S
C509   H510    1.111   .     S
C513   H514    1.081   .     S
C513   H515    1.110   .     S
C513   H516    1.109   .     S
C517   H518    1.083   .     S
C517   H519    1.109   .     S
C517   H520    1.110   .     S
C521   H524    1.109   .     S
C521   H522    1.081   .     S
C521   H523    1.110   .     S
C525   H527    1.109   .     S
C525   H526    1.083   .     S
C525   H528    1.110   .     S
O529   C533    1.299   .     A
O529   Zn541   2.013   .     S
O530   C534    1.299   .     A
O530   Zn542   2.013   .     S
O531   C534    1.299   .     A
O531   Zn541   2.013   .     S
O532   C533    1.299   .     A
O532   Zn542   2.013   .     S
C533   C570    1.432   .     S
C534   C569    1.432   .     S
O535   C539    1.293   .     A
O535   Zn541   2.002   .     S
O536   C540    1.298   .     A
O536   Zn542   2.002   .     S
O537   Zn541   2.002   .     S
O537   C540    1.293   .     A
O538   Zn542   2.002   .     S
O538   C539    1.298   .     A
C539   C546    1.423   .     S
C540   C545    1.423   .     S
Zn541  N575    2.044   .     S
Zn542  N576    2.044   .     S
C543   C553    1.414   .     A
C543   C545    1.402   .     A
C543   C577    1.521   .     S
C544   C581    1.521   .     S
C544   C554    1.414   .     A
C544   C546    1.402   .     A
C545   C547    1.383   .     A
C546   C548    1.383   .     A
C547   H559    1.084   .     S
C547   C549    1.388   .     A
C548   C550    1.388   .     A
C548   H560    1.084   .     S
C549   C555    1.410   .     A
C549   C551    1.413   .     A
C550   C556    1.410   .     A
C550   C552    1.413   .     A
C551   C553    1.421   .     A
C551   C1344   1.400   .     S
C552   C554    1.421   .     A
C552   C1343   1.400   1_554 S
C553   C558    1.414   .     A
C554   C557    1.414   .     A
C555   C585    1.511   .     S
C555   C1349   1.403   .     S
C556   C589    1.511   .     S
C556   C1350   1.403   1_554 S
C557   C593    1.514   .     S
C557   C1347   1.403   1_554 S
C558   C597    1.514   .     S
C558   C1348   1.403   .     S
C561   C570    1.399   .     A
C561   H565    1.083   .     S
C561   C739    1.374   1_455 S
C562   C569    1.399   .     A
C562   H566    1.083   .     S
C562   C652    1.374   .     S
C563   C569    1.399   .     A
C563   H567    1.083   .     S
C563   C649    1.374   .     S
C564   C570    1.399   .     A
C564   H568    1.083   .     S
C564   C738    1.374   1_455 S
C571   C601    1.511   .     S
C571   N576    1.380   .     A
C572   C605    1.514   .     S
C572   N575    1.379   .     A
C572   C45     1.434   1_565 S
C573   N576    1.380   .     A
C573   C609    1.511   .     S
C574   C613    1.514   .     S
C574   N575    1.379   .     A
C574   C43     1.434   1_565 S
C577   H579    1.106   .     S
C577   H578    1.110   .     S
C577   H580    1.109   .     S
C581   H582    1.110   .     S
C581   H584    1.109   .     S
C581   H583    1.106   .     S
C585   H588    1.110   .     S
C585   H586    1.110   .     S
C585   H587    1.107   .     S
C589   H591    1.107   .     S
C589   H590    1.110   .     S
C589   H592    1.110   .     S
C593   H595    1.100   .     S
C593   H596    1.111   .     S
C593   H594    1.111   .     S
C597   H599    1.101   .     S
C597   H600    1.111   .     S
C597   H598    1.111   .     S
C601   H602    1.081   .     S
C601   H603    1.110   .     S
C601   H604    1.109   .     S
C605   H606    1.083   .     S
C605   H607    1.109   .     S
C605   H608    1.110   .     S
C609   H612    1.109   .     S
C609   H610    1.081   .     S
C609   H611    1.110   .     S
C613   H615    1.109   .     S
C613   H614    1.083   .     S
C613   H616    1.110   .     S
O617   C621    1.299   .     A
O617   Zn629   2.013   .     S
O618   C622    1.299   .     A
O618   Zn630   2.013   .     S
O619   C622    1.299   .     A
O619   Zn629   2.013   .     S
O620   C621    1.299   .     A
O620   Zn630   2.013   .     S
C621   C658    1.432   .     S
C622   C657    1.432   .     S
O623   C627    1.293   .     A
O623   Zn629   2.002   .     S
O624   C628    1.298   .     A
O624   Zn630   2.002   .     S
O625   Zn629   2.002   .     S
O625   C628    1.293   .     A
O626   Zn630   2.002   .     S
O626   C627    1.298   .     A
C627   C634    1.423   .     S
C628   C633    1.423   .     S
Zn629  N663    2.044   .     S
Zn630  N664    2.044   .     S
C631   C641    1.414   .     A
C631   C633    1.402   .     A
C631   C665    1.521   .     S
C632   C669    1.521   .     S
C632   C642    1.414   .     A
C632   C634    1.402   .     A
C633   C635    1.383   .     A
C634   C636    1.383   .     A
C635   H647    1.084   .     S
C635   C637    1.388   .     A
C636   C638    1.388   .     A
C636   H648    1.084   .     S
C637   C643    1.410   .     A
C637   C639    1.413   .     A
C638   C644    1.410   .     A
C638   C640    1.413   .     A
C639   C641    1.421   .     A
C639   C1432   1.400   .     S
C640   C642    1.421   .     A
C640   C1431   1.400   1_554 S
C641   C646    1.414   .     A
C642   C645    1.414   .     A
C643   C673    1.511   .     S
C643   C1437   1.403   .     S
C644   C677    1.511   .     S
C644   C1438   1.403   1_554 S
C645   C681    1.514   .     S
C645   C1435   1.403   1_554 S
C646   C685    1.514   .     S
C646   C1436   1.403   .     S
C649   C658    1.399   .     A
C649   H653    1.083   .     S
C650   C657    1.399   .     A
C650   H654    1.083   .     S
C650   C740    1.374   .     S
C651   C657    1.399   .     A
C651   H655    1.083   .     S
C651   C737    1.374   .     S
C652   C658    1.399   .     A
C652   H656    1.083   .     S
C659   C689    1.511   .     S
C659   N664    1.380   .     A
C660   C693    1.514   .     S
C660   N663    1.379   .     A
C660   C133    1.434   1_565 S
C661   N664    1.380   .     A
C661   C697    1.511   .     S
C662   C701    1.514   .     S
C662   N663    1.379   .     A
C662   C131    1.434   1_565 S
C665   H667    1.106   .     S
C665   H666    1.110   .     S
C665   H668    1.109   .     S
C669   H670    1.110   .     S
C669   H672    1.109   .     S
C669   H671    1.106   .     S
C673   H676    1.110   .     S
C673   H674    1.110   .     S
C673   H675    1.107   .     S
C677   H679    1.107   .     S
C677   H678    1.110   .     S
C677   H680    1.110   .     S
C681   H683    1.100   .     S
C681   H684    1.111   .     S
C681   H682    1.111   .     S
C685   H687    1.101   .     S
C685   H688    1.111   .     S
C685   H686    1.111   .     S
C689   H690    1.081   .     S
C689   H691    1.110   .     S
C689   H692    1.109   .     S
C693   H694    1.083   .     S
C693   H695    1.109   .     S
C693   H696    1.110   .     S
C697   H700    1.109   .     S
C697   H698    1.081   .     S
C697   H699    1.110   .     S
C701   H703    1.109   .     S
C701   H702    1.083   .     S
C701   H704    1.110   .     S
O705   C709    1.299   .     A
O705   Zn717   2.013   .     S
O706   C710    1.299   .     A
O706   Zn718   2.013   .     S
O707   C710    1.299   .     A
O707   Zn717   2.013   .     S
O708   C709    1.299   .     A
O708   Zn718   2.013   .     S
C709   C746    1.432   .     S
C710   C745    1.432   .     S
O711   C715    1.293   .     A
O711   Zn717   2.002   .     S
O712   C716    1.298   .     A
O712   Zn718   2.002   .     S
O713   Zn717   2.002   .     S
O713   C716    1.293   .     A
O714   Zn718   2.002   .     S
O714   C715    1.298   .     A
C715   C722    1.423   .     S
C716   C721    1.423   .     S
Zn717  N751    2.044   .     S
Zn718  N752    2.044   .     S
C719   C729    1.414   .     A
C719   C721    1.402   .     A
C719   C753    1.521   .     S
C720   C757    1.521   .     S
C720   C730    1.414   .     A
C720   C722    1.402   .     A
C721   C723    1.383   .     A
C722   C724    1.383   .     A
C723   H735    1.084   .     S
C723   C725    1.388   .     A
C724   C726    1.388   .     A
C724   H736    1.084   .     S
C725   C731    1.410   .     A
C725   C727    1.413   .     A
C726   C732    1.410   .     A
C726   C728    1.413   .     A
C727   C729    1.421   .     A
C727   C1520   1.400   .     S
C728   C730    1.421   .     A
C728   C1519   1.400   1_554 S
C729   C734    1.414   .     A
C730   C733    1.414   .     A
C731   C761    1.511   .     S
C731   C1525   1.403   .     S
C732   C765    1.511   .     S
C732   C1526   1.403   1_554 S
C733   C769    1.514   .     S
C733   C1523   1.403   1_554 S
C734   C773    1.514   .     S
C734   C1524   1.403   .     S
C737   C746    1.399   .     A
C737   H741    1.083   .     S
C738   C745    1.399   .     A
C738   H742    1.083   .     S
C738   C564    1.374   1_655 S
C739   C745    1.399   .     A
C739   H743    1.083   .     S
C739   C561    1.374   1_655 S
C740   C746    1.399   .     A
C740   H744    1.083   .     S
C747   C777    1.511   .     S
C747   N752    1.380   .     A
C748   C781    1.514   .     S
C748   N751    1.379   .     A
C748   C221    1.434   1_565 S
C749   N752    1.380   .     A
C749   C785    1.511   .     S
C750   C789    1.514   .     S
C750   N751    1.379   .     A
C750   C219    1.434   1_565 S
C753   H755    1.106   .     S
C753   H754    1.110   .     S
C753   H756    1.109   .     S
C757   H758    1.110   .     S
C757   H760    1.109   .     S
C757   H759    1.106   .     S
C761   H764    1.110   .     S
C761   H762    1.110   .     S
C761   H763    1.107   .     S
C765   H767    1.107   .     S
C765   H766    1.110   .     S
C765   H768    1.110   .     S
C769   H771    1.100   .     S
C769   H772    1.111   .     S
C769   H770    1.111   .     S
C773   H775    1.101   .     S
C773   H776    1.111   .     S
C773   H774    1.111   .     S
C777   H778    1.081   .     S
C777   H779    1.110   .     S
C777   H780    1.109   .     S
C781   H782    1.083   .     S
C781   H783    1.109   .     S
C781   H784    1.110   .     S
C785   H788    1.109   .     S
C785   H786    1.081   .     S
C785   H787    1.110   .     S
C789   H791    1.109   .     S
C789   H790    1.083   .     S
C789   H792    1.110   .     S
O793   C797    1.299   .     A
O793   Zn805   2.013   .     S
O794   C798    1.299   .     A
O794   Zn806   2.013   .     S
O795   C798    1.299   .     A
O795   Zn805   2.013   .     S
O796   C797    1.299   .     A
O796   Zn806   2.013   .     S
C797   C834    1.432   .     S
C798   C833    1.432   .     S
O799   C803    1.293   .     A
O799   Zn805   2.002   .     S
O800   C804    1.298   .     A
O800   Zn806   2.002   .     S
O801   Zn805   2.002   .     S
O801   C804    1.293   .     A
O802   Zn806   2.002   .     S
O802   C803    1.298   .     A
C803   C810    1.423   .     S
C804   C809    1.423   .     S
Zn805  N839    2.044   .     S
Zn806  N840    2.044   .     S
C807   C817    1.414   .     A
C807   C809    1.402   .     A
C807   C841    1.521   .     S
C808   C845    1.521   .     S
C808   C818    1.414   .     A
C808   C810    1.402   .     A
C809   C811    1.383   .     A
C810   C812    1.383   .     A
C811   H823    1.084   .     S
C811   C813    1.388   .     A
C812   C814    1.388   .     A
C812   H824    1.084   .     S
C813   C819    1.410   .     A
C813   C815    1.413   .     A
C814   C820    1.410   .     A
C814   C816    1.413   .     A
C815   C817    1.421   .     A
C815   C24     1.400   1_556 S
C816   C818    1.421   .     A
C817   C822    1.414   .     A
C818   C821    1.414   .     A
C819   C849    1.511   .     S
C819   C29     1.403   1_556 S
C820   C853    1.511   .     S
C821   C857    1.514   .     S
C822   C861    1.514   .     S
C822   C28     1.403   1_556 S
C825   C834    1.399   .     A
C825   H829    1.083   .     S
C825   C1003   1.374   1_455 S
C826   C833    1.399   .     A
C826   H830    1.083   .     S
C826   C916    1.374   .     S
C827   C833    1.399   .     A
C827   H831    1.083   .     S
C827   C913    1.374   .     S
C828   C834    1.399   .     A
C828   H832    1.083   .     S
C828   C1002   1.374   1_455 S
C835   C865    1.511   .     S
C835   N840    1.380   .     A
C835   C1366   1.434   1_545 S
C836   C869    1.514   .     S
C836   N839    1.379   .     A
C836   C1101   1.434   .     S
C837   N840    1.380   .     A
C837   C873    1.511   .     S
C837   C1364   1.434   1_545 S
C838   C877    1.514   .     S
C838   N839    1.379   .     A
C838   C1099   1.434   .     S
C841   H843    1.106   .     S
C841   H842    1.110   .     S
C841   H844    1.109   .     S
C845   H846    1.110   .     S
C845   H848    1.109   .     S
C845   H847    1.106   .     S
C849   H852    1.110   .     S
C849   H850    1.110   .     S
C849   H851    1.107   .     S
C853   H855    1.107   .     S
C853   H854    1.110   .     S
C853   H856    1.110   .     S
C857   H859    1.100   .     S
C857   H860    1.111   .     S
C857   H858    1.111   .     S
C861   H863    1.101   .     S
C861   H864    1.111   .     S
C861   H862    1.111   .     S
C865   H866    1.081   .     S
C865   H867    1.110   .     S
C865   H868    1.109   .     S
C869   H870    1.083   .     S
C869   H871    1.109   .     S
C869   H872    1.110   .     S
C873   H876    1.109   .     S
C873   H874    1.081   .     S
C873   H875    1.110   .     S
C877   H879    1.109   .     S
C877   H878    1.083   .     S
C877   H880    1.110   .     S
O881   C885    1.299   .     A
O881   Zn893   2.013   .     S
O882   C886    1.299   .     A
O882   Zn894   2.013   .     S
O883   C886    1.299   .     A
O883   Zn893   2.013   .     S
O884   C885    1.299   .     A
O884   Zn894   2.013   .     S
C885   C922    1.432   .     S
C886   C921    1.432   .     S
O887   C891    1.293   .     A
O887   Zn893   2.002   .     S
O888   C892    1.298   .     A
O888   Zn894   2.002   .     S
O889   Zn893   2.002   .     S
O889   C892    1.293   .     A
O890   Zn894   2.002   .     S
O890   C891    1.298   .     A
C891   C898    1.423   .     S
C892   C897    1.423   .     S
Zn893  N927    2.044   .     S
Zn894  N928    2.044   .     S
C895   C905    1.414   .     A
C895   C897    1.402   .     A
C895   C929    1.521   .     S
C896   C933    1.521   .     S
C896   C906    1.414   .     A
C896   C898    1.402   .     A
C897   C899    1.383   .     A
C898   C900    1.383   .     A
C899   H911    1.084   .     S
C899   C901    1.388   .     A
C900   C902    1.388   .     A
C900   H912    1.084   .     S
C901   C907    1.410   .     A
C901   C903    1.413   .     A
C902   C908    1.410   .     A
C902   C904    1.413   .     A
C903   C905    1.421   .     A
C903   C112    1.400   1_556 S
C904   C906    1.421   .     A
C905   C910    1.414   .     A
C906   C909    1.414   .     A
C907   C937    1.511   .     S
C907   C117    1.403   1_556 S
C908   C941    1.511   .     S
C909   C945    1.514   .     S
C910   C949    1.514   .     S
C910   C116    1.403   1_556 S
C913   C922    1.399   .     A
C913   H917    1.083   .     S
C914   C921    1.399   .     A
C914   H918    1.083   .     S
C914   C1004   1.374   .     S
C915   C921    1.399   .     A
C915   H919    1.083   .     S
C915   C1001   1.374   .     S
C916   C922    1.399   .     A
C916   H920    1.083   .     S
C923   C953    1.511   .     S
C923   N928    1.380   .     A
C923   C1454   1.434   1_545 S
C924   C957    1.514   .     S
C924   N927    1.379   .     A
C924   C1189   1.434   .     S
C925   N928    1.380   .     A
C925   C961    1.511   .     S
C925   C1452   1.434   1_545 S
C926   C965    1.514   .     S
C926   N927    1.379   .     A
C926   C1187   1.434   .     S
C929   H931    1.106   .     S
C929   H930    1.110   .     S
C929   H932    1.109   .     S
C933   H934    1.110   .     S
C933   H936    1.109   .     S
C933   H935    1.106   .     S
C937   H940    1.110   .     S
C937   H938    1.110   .     S
C937   H939    1.107   .     S
C941   H943    1.107   .     S
C941   H942    1.110   .     S
C941   H944    1.110   .     S
C945   H947    1.100   .     S
C945   H948    1.111   .     S
C945   H946    1.111   .     S
C949   H951    1.101   .     S
C949   H952    1.111   .     S
C949   H950    1.111   .     S
C953   H954    1.081   .     S
C953   H955    1.110   .     S
C953   H956    1.109   .     S
C957   H958    1.083   .     S
C957   H959    1.109   .     S
C957   H960    1.110   .     S
C961   H964    1.109   .     S
C961   H962    1.081   .     S
C961   H963    1.110   .     S
C965   H967    1.109   .     S
C965   H966    1.083   .     S
C965   H968    1.110   .     S
O969   C973    1.299   .     A
O969   Zn981   2.013   .     S
O970   C974    1.299   .     A
O970   Zn982   2.013   .     S
O971   C974    1.299   .     A
O971   Zn981   2.013   .     S
O972   C973    1.299   .     A
O972   Zn982   2.013   .     S
C973   C1010   1.432   .     S
C974   C1009   1.432   .     S
O975   C979    1.293   .     A
O975   Zn981   2.002   .     S
O976   C980    1.298   .     A
O976   Zn982   2.002   .     S
O977   Zn981   2.002   .     S
O977   C980    1.293   .     A
O978   Zn982   2.002   .     S
O978   C979    1.298   .     A
C979   C986    1.423   .     S
C980   C985    1.423   .     S
Zn981  N1015   2.044   .     S
Zn982  N1016   2.044   .     S
C983   C993    1.414   .     A
C983   C985    1.402   .     A
C983   C1017   1.521   .     S
C984   C1021   1.521   .     S
C984   C994    1.414   .     A
C984   C986    1.402   .     A
C985   C987    1.383   .     A
C986   C988    1.383   .     A
C987   H999    1.084   .     S
C987   C989    1.388   .     A
C988   C990    1.388   .     A
C988   H1000   1.084   .     S
C989   C995    1.410   .     A
C989   C991    1.413   .     A
C990   C996    1.410   .     A
C990   C992    1.413   .     A
C991   C993    1.421   .     A
C991   C200    1.400   1_556 S
C992   C994    1.421   .     A
C993   C998    1.414   .     A
C994   C997    1.414   .     A
C995   C1025   1.511   .     S
C995   C205    1.403   1_556 S
C996   C1029   1.511   .     S
C997   C1033   1.514   .     S
C998   C1037   1.514   .     S
C998   C204    1.403   1_556 S
C1001  C1010   1.399   .     A
C1001  H1005   1.083   .     S
C1002  C1009   1.399   .     A
C1002  H1006   1.083   .     S
C1002  C828    1.374   1_655 S
C1003  C1009   1.399   .     A
C1003  H1007   1.083   .     S
C1003  C825    1.374   1_655 S
C1004  C1010   1.399   .     A
C1004  H1008   1.083   .     S
C1011  C1041   1.511   .     S
C1011  N1016   1.380   .     A
C1011  C1542   1.434   1_545 S
C1012  C1045   1.514   .     S
C1012  N1015   1.379   .     A
C1012  C1277   1.434   .     S
C1013  N1016   1.380   .     A
C1013  C1049   1.511   .     S
C1013  C1540   1.434   1_545 S
C1014  C1053   1.514   .     S
C1014  N1015   1.379   .     A
C1014  C1275   1.434   .     S
C1017  H1019   1.106   .     S
C1017  H1018   1.110   .     S
C1017  H1020   1.109   .     S
C1021  H1022   1.110   .     S
C1021  H1024   1.109   .     S
C1021  H1023   1.106   .     S
C1025  H1028   1.110   .     S
C1025  H1026   1.110   .     S
C1025  H1027   1.107   .     S
C1029  H1031   1.107   .     S
C1029  H1030   1.110   .     S
C1029  H1032   1.110   .     S
C1033  H1035   1.100   .     S
C1033  H1036   1.111   .     S
C1033  H1034   1.111   .     S
C1037  H1039   1.101   .     S
C1037  H1040   1.111   .     S
C1037  H1038   1.111   .     S
C1041  H1042   1.081   .     S
C1041  H1043   1.110   .     S
C1041  H1044   1.109   .     S
C1045  H1046   1.083   .     S
C1045  H1047   1.109   .     S
C1045  H1048   1.110   .     S
C1049  H1052   1.109   .     S
C1049  H1050   1.081   .     S
C1049  H1051   1.110   .     S
C1053  H1055   1.109   .     S
C1053  H1054   1.083   .     S
C1053  H1056   1.110   .     S
O1057  C1061   1.299   .     A
O1057  Zn1069  2.013   .     S
O1058  C1062   1.299   .     A
O1058  Zn1070  2.013   .     S
O1059  C1062   1.299   .     A
O1059  Zn1069  2.013   .     S
O1060  C1061   1.299   .     A
O1060  Zn1070  2.013   .     S
C1061  C1098   1.432   .     S
C1062  C1097   1.432   .     S
O1063  C1067   1.293   .     A
O1063  Zn1069  2.002   .     S
O1064  C1068   1.298   .     A
O1064  Zn1070  2.002   .     S
O1065  Zn1069  2.002   .     S
O1065  C1068   1.293   .     A
O1066  Zn1070  2.002   .     S
O1066  C1067   1.298   .     A
C1067  C1074   1.423   .     S
C1068  C1073   1.423   .     S
Zn1069 N1103   2.044   .     S
Zn1070 N1104   2.044   .     S
C1071  C1081   1.414   .     A
C1071  C1073   1.402   .     A
C1071  C1105   1.521   .     S
C1072  C1109   1.521   .     S
C1072  C1082   1.414   .     A
C1072  C1074   1.402   .     A
C1073  C1075   1.383   .     A
C1074  C1076   1.383   .     A
C1075  H1087   1.084   .     S
C1075  C1077   1.388   .     A
C1076  C1078   1.388   .     A
C1076  H1088   1.084   .     S
C1077  C1083   1.410   .     A
C1077  C1079   1.413   .     A
C1078  C1084   1.410   .     A
C1078  C1080   1.413   .     A
C1079  C1081   1.421   .     A
C1079  C288    1.400   1_556 S
C1080  C1082   1.421   .     A
C1081  C1086   1.414   .     A
C1082  C1085   1.414   .     A
C1083  C1113   1.511   .     S
C1083  C293    1.403   1_556 S
C1084  C1117   1.511   .     S
C1085  C1121   1.514   .     S
C1086  C1125   1.514   .     S
C1086  C292    1.403   1_556 S
C1089  C1098   1.399   .     A
C1089  H1093   1.083   .     S
C1089  C1267   1.374   1_455 S
C1090  C1097   1.399   .     A
C1090  H1094   1.083   .     S
C1090  C1180   1.374   .     S
C1091  C1097   1.399   .     A
C1091  H1095   1.083   .     S
C1091  C1177   1.374   .     S
C1092  C1098   1.399   .     A
C1092  H1096   1.083   .     S
C1092  C1266   1.374   1_455 S
C1099  C1129   1.511   .     S
C1099  N1104   1.380   .     A
C1100  C1133   1.514   .     S
C1100  N1103   1.379   .     A
C1100  C1365   1.434   .     S
C1101  N1104   1.380   .     A
C1101  C1137   1.511   .     S
C1102  C1141   1.514   .     S
C1102  N1103   1.379   .     A
C1102  C1363   1.434   .     S
C1105  H1107   1.106   .     S
C1105  H1106   1.110   .     S
C1105  H1108   1.109   .     S
C1109  H1110   1.110   .     S
C1109  H1112   1.109   .     S
C1109  H1111   1.106   .     S
C1113  H1116   1.110   .     S
C1113  H1114   1.110   .     S
C1113  H1115   1.107   .     S
C1117  H1119   1.107   .     S
C1117  H1118   1.110   .     S
C1117  H1120   1.110   .     S
C1121  H1123   1.100   .     S
C1121  H1124   1.111   .     S
C1121  H1122   1.111   .     S
C1125  H1127   1.101   .     S
C1125  H1128   1.111   .     S
C1125  H1126   1.111   .     S
C1129  H1130   1.081   .     S
C1129  H1131   1.110   .     S
C1129  H1132   1.109   .     S
C1133  H1134   1.083   .     S
C1133  H1135   1.109   .     S
C1133  H1136   1.110   .     S
C1137  H1140   1.109   .     S
C1137  H1138   1.081   .     S
C1137  H1139   1.110   .     S
C1141  H1143   1.109   .     S
C1141  H1142   1.083   .     S
C1141  H1144   1.110   .     S
O1145  C1149   1.299   .     A
O1145  Zn1157  2.013   .     S
O1146  C1150   1.299   .     A
O1146  Zn1158  2.013   .     S
O1147  C1150   1.299   .     A
O1147  Zn1157  2.013   .     S
O1148  C1149   1.299   .     A
O1148  Zn1158  2.013   .     S
C1149  C1186   1.432   .     S
C1150  C1185   1.432   .     S
O1151  C1155   1.293   .     A
O1151  Zn1157  2.002   .     S
O1152  C1156   1.298   .     A
O1152  Zn1158  2.002   .     S
O1153  Zn1157  2.002   .     S
O1153  C1156   1.293   .     A
O1154  Zn1158  2.002   .     S
O1154  C1155   1.298   .     A
C1155  C1162   1.423   .     S
C1156  C1161   1.423   .     S
Zn1157 N1191   2.044   .     S
Zn1158 N1192   2.044   .     S
C1159  C1169   1.414   .     A
C1159  C1161   1.402   .     A
C1159  C1193   1.521   .     S
C1160  C1197   1.521   .     S
C1160  C1170   1.414   .     A
C1160  C1162   1.402   .     A
C1161  C1163   1.383   .     A
C1162  C1164   1.383   .     A
C1163  H1175   1.084   .     S
C1163  C1165   1.388   .     A
C1164  C1166   1.388   .     A
C1164  H1176   1.084   .     S
C1165  C1171   1.410   .     A
C1165  C1167   1.413   .     A
C1166  C1172   1.410   .     A
C1166  C1168   1.413   .     A
C1167  C1169   1.421   .     A
C1167  C376    1.400   1_556 S
C1168  C1170   1.421   .     A
C1169  C1174   1.414   .     A
C1170  C1173   1.414   .     A
C1171  C1201   1.511   .     S
C1171  C381    1.403   1_556 S
C1172  C1205   1.511   .     S
C1173  C1209   1.514   .     S
C1174  C1213   1.514   .     S
C1174  C380    1.403   1_556 S
C1177  C1186   1.399   .     A
C1177  H1181   1.083   .     S
C1178  C1185   1.399   .     A
C1178  H1182   1.083   .     S
C1178  C1268   1.374   .     S
C1179  C1185   1.399   .     A
C1179  H1183   1.083   .     S
C1179  C1265   1.374   .     S
C1180  C1186   1.399   .     A
C1180  H1184   1.083   .     S
C1187  C1217   1.511   .     S
C1187  N1192   1.380   .     A
C1188  C1221   1.514   .     S
C1188  N1191   1.379   .     A
C1188  C1453   1.434   .     S
C1189  N1192   1.380   .     A
C1189  C1225   1.511   .     S
C1190  C1229   1.514   .     S
C1190  N1191   1.379   .     A
C1190  C1451   1.434   .     S
C1193  H1195   1.106   .     S
C1193  H1194   1.110   .     S
C1193  H1196   1.109   .     S
C1197  H1198   1.110   .     S
C1197  H1200   1.109   .     S
C1197  H1199   1.106   .     S
C1201  H1204   1.110   .     S
C1201  H1202   1.110   .     S
C1201  H1203   1.107   .     S
C1205  H1207   1.107   .     S
C1205  H1206   1.110   .     S
C1205  H1208   1.110   .     S
C1209  H1211   1.100   .     S
C1209  H1212   1.111   .     S
C1209  H1210   1.111   .     S
C1213  H1215   1.101   .     S
C1213  H1216   1.111   .     S
C1213  H1214   1.111   .     S
C1217  H1218   1.081   .     S
C1217  H1219   1.110   .     S
C1217  H1220   1.109   .     S
C1221  H1222   1.083   .     S
C1221  H1223   1.109   .     S
C1221  H1224   1.110   .     S
C1225  H1228   1.109   .     S
C1225  H1226   1.081   .     S
C1225  H1227   1.110   .     S
C1229  H1231   1.109   .     S
C1229  H1230   1.083   .     S
C1229  H1232   1.110   .     S
O1233  C1237   1.299   .     A
O1233  Zn1245  2.013   .     S
O1234  C1238   1.299   .     A
O1234  Zn1246  2.013   .     S
O1235  C1238   1.299   .     A
O1235  Zn1245  2.013   .     S
O1236  C1237   1.299   .     A
O1236  Zn1246  2.013   .     S
C1237  C1274   1.432   .     S
C1238  C1273   1.432   .     S
O1239  C1243   1.293   .     A
O1239  Zn1245  2.002   .     S
O1240  C1244   1.298   .     A
O1240  Zn1246  2.002   .     S
O1241  Zn1245  2.002   .     S
O1241  C1244   1.293   .     A
O1242  Zn1246  2.002   .     S
O1242  C1243   1.298   .     A
C1243  C1250   1.423   .     S
C1244  C1249   1.423   .     S
Zn1245 N1279   2.044   .     S
Zn1246 N1280   2.044   .     S
C1247  C1257   1.414   .     A
C1247  C1249   1.402   .     A
C1247  C1281   1.521   .     S
C1248  C1285   1.521   .     S
C1248  C1258   1.414   .     A
C1248  C1250   1.402   .     A
C1249  C1251   1.383   .     A
C1250  C1252   1.383   .     A
C1251  H1263   1.084   .     S
C1251  C1253   1.388   .     A
C1252  C1254   1.388   .     A
C1252  H1264   1.084   .     S
C1253  C1259   1.410   .     A
C1253  C1255   1.413   .     A
C1254  C1260   1.410   .     A
C1254  C1256   1.413   .     A
C1255  C1257   1.421   .     A
C1255  C464    1.400   1_556 S
C1256  C1258   1.421   .     A
C1257  C1262   1.414   .     A
C1258  C1261   1.414   .     A
C1259  C1289   1.511   .     S
C1259  C469    1.403   1_556 S
C1260  C1293   1.511   .     S
C1261  C1297   1.514   .     S
C1262  C1301   1.514   .     S
C1262  C468    1.403   1_556 S
C1265  C1274   1.399   .     A
C1265  H1269   1.083   .     S
C1266  C1273   1.399   .     A
C1266  H1270   1.083   .     S
C1266  C1092   1.374   1_655 S
C1267  C1273   1.399   .     A
C1267  H1271   1.083   .     S
C1267  C1089   1.374   1_655 S
C1268  C1274   1.399   .     A
C1268  H1272   1.083   .     S
C1275  C1305   1.511   .     S
C1275  N1280   1.380   .     A
C1276  C1309   1.514   .     S
C1276  N1279   1.379   .     A
C1276  C1541   1.434   .     S
C1277  N1280   1.380   .     A
C1277  C1313   1.511   .     S
C1278  C1317   1.514   .     S
C1278  N1279   1.379   .     A
C1278  C1539   1.434   .     S
C1281  H1283   1.106   .     S
C1281  H1282   1.110   .     S
C1281  H1284   1.109   .     S
C1285  H1286   1.110   .     S
C1285  H1288   1.109   .     S
C1285  H1287   1.106   .     S
C1289  H1292   1.110   .     S
C1289  H1290   1.110   .     S
C1289  H1291   1.107   .     S
C1293  H1295   1.107   .     S
C1293  H1294   1.110   .     S
C1293  H1296   1.110   .     S
C1297  H1299   1.100   .     S
C1297  H1300   1.111   .     S
C1297  H1298   1.111   .     S
C1301  H1303   1.101   .     S
C1301  H1304   1.111   .     S
C1301  H1302   1.111   .     S
C1305  H1306   1.081   .     S
C1305  H1307   1.110   .     S
C1305  H1308   1.109   .     S
C1309  H1310   1.083   .     S
C1309  H1311   1.109   .     S
C1309  H1312   1.110   .     S
C1313  H1316   1.109   .     S
C1313  H1314   1.081   .     S
C1313  H1315   1.110   .     S
C1317  H1319   1.109   .     S
C1317  H1318   1.083   .     S
C1317  H1320   1.110   .     S
O1321  C1325   1.299   .     A
O1321  Zn1333  2.013   .     S
O1322  C1326   1.299   .     A
O1322  Zn1334  2.013   .     S
O1323  C1326   1.299   .     A
O1323  Zn1333  2.013   .     S
O1324  C1325   1.299   .     A
O1324  Zn1334  2.013   .     S
C1325  C1362   1.432   .     S
C1326  C1361   1.432   .     S
O1327  C1331   1.293   .     A
O1327  Zn1333  2.002   .     S
O1328  C1332   1.298   .     A
O1328  Zn1334  2.002   .     S
O1329  Zn1333  2.002   .     S
O1329  C1332   1.293   .     A
O1330  Zn1334  2.002   .     S
O1330  C1331   1.298   .     A
C1331  C1338   1.423   .     S
C1332  C1337   1.423   .     S
Zn1333 N1367   2.044   .     S
Zn1334 N1368   2.044   .     S
C1335  C1345   1.414   .     A
C1335  C1337   1.402   .     A
C1335  C1369   1.521   .     S
C1336  C1373   1.521   .     S
C1336  C1346   1.414   .     A
C1336  C1338   1.402   .     A
C1337  C1339   1.383   .     A
C1338  C1340   1.383   .     A
C1339  H1351   1.084   .     S
C1339  C1341   1.388   .     A
C1340  C1342   1.388   .     A
C1340  H1352   1.084   .     S
C1341  C1347   1.410   .     A
C1341  C1343   1.413   .     A
C1342  C1348   1.410   .     A
C1342  C1344   1.413   .     A
C1343  C1345   1.421   .     A
C1343  C552    1.400   1_556 S
C1344  C1346   1.421   .     A
C1345  C1350   1.414   .     A
C1346  C1349   1.414   .     A
C1347  C1377   1.511   .     S
C1347  C557    1.403   1_556 S
C1348  C1381   1.511   .     S
C1349  C1385   1.514   .     S
C1350  C1389   1.514   .     S
C1350  C556    1.403   1_556 S
C1353  C1362   1.399   .     A
C1353  H1357   1.083   .     S
C1353  C1531   1.374   1_455 S
C1354  C1361   1.399   .     A
C1354  H1358   1.083   .     S
C1354  C1444   1.374   .     S
C1355  C1361   1.399   .     A
C1355  H1359   1.083   .     S
C1355  C1441   1.374   .     S
C1356  C1362   1.399   .     A
C1356  H1360   1.083   .     S
C1356  C1530   1.374   1_455 S
C1363  C1393   1.511   .     S
C1363  N1368   1.380   .     A
C1364  C1397   1.514   .     S
C1364  N1367   1.379   .     A
C1364  C837    1.434   1_565 S
C1365  N1368   1.380   .     A
C1365  C1401   1.511   .     S
C1366  C1405   1.514   .     S
C1366  N1367   1.379   .     A
C1366  C835    1.434   1_565 S
C1369  H1371   1.106   .     S
C1369  H1370   1.110   .     S
C1369  H1372   1.109   .     S
C1373  H1374   1.110   .     S
C1373  H1376   1.109   .     S
C1373  H1375   1.106   .     S
C1377  H1380   1.110   .     S
C1377  H1378   1.110   .     S
C1377  H1379   1.107   .     S
C1381  H1383   1.107   .     S
C1381  H1382   1.110   .     S
C1381  H1384   1.110   .     S
C1385  H1387   1.100   .     S
C1385  H1388   1.111   .     S
C1385  H1386   1.111   .     S
C1389  H1391   1.101   .     S
C1389  H1392   1.111   .     S
C1389  H1390   1.111   .     S
C1393  H1394   1.081   .     S
C1393  H1395   1.110   .     S
C1393  H1396   1.109   .     S
C1397  H1398   1.083   .     S
C1397  H1399   1.109   .     S
C1397  H1400   1.110   .     S
C1401  H1404   1.109   .     S
C1401  H1402   1.081   .     S
C1401  H1403   1.110   .     S
C1405  H1407   1.109   .     S
C1405  H1406   1.083   .     S
C1405  H1408   1.110   .     S
O1409  C1413   1.299   .     A
O1409  Zn1421  2.013   .     S
O1410  C1414   1.299   .     A
O1410  Zn1422  2.013   .     S
O1411  C1414   1.299   .     A
O1411  Zn1421  2.013   .     S
O1412  C1413   1.299   .     A
O1412  Zn1422  2.013   .     S
C1413  C1450   1.432   .     S
C1414  C1449   1.432   .     S
O1415  C1419   1.293   .     A
O1415  Zn1421  2.002   .     S
O1416  C1420   1.298   .     A
O1416  Zn1422  2.002   .     S
O1417  Zn1421  2.002   .     S
O1417  C1420   1.293   .     A
O1418  Zn1422  2.002   .     S
O1418  C1419   1.298   .     A
C1419  C1426   1.423   .     S
C1420  C1425   1.423   .     S
Zn1421 N1455   2.044   .     S
Zn1422 N1456   2.044   .     S
C1423  C1433   1.414   .     A
C1423  C1425   1.402   .     A
C1423  C1457   1.521   .     S
C1424  C1461   1.521   .     S
C1424  C1434   1.414   .     A
C1424  C1426   1.402   .     A
C1425  C1427   1.383   .     A
C1426  C1428   1.383   .     A
C1427  H1439   1.084   .     S
C1427  C1429   1.388   .     A
C1428  C1430   1.388   .     A
C1428  H1440   1.084   .     S
C1429  C1435   1.410   .     A
C1429  C1431   1.413   .     A
C1430  C1436   1.410   .     A
C1430  C1432   1.413   .     A
C1431  C1433   1.421   .     A
C1431  C640    1.400   1_556 S
C1432  C1434   1.421   .     A
C1433  C1438   1.414   .     A
C1434  C1437   1.414   .     A
C1435  C1465   1.511   .     S
C1435  C645    1.403   1_556 S
C1436  C1469   1.511   .     S
C1437  C1473   1.514   .     S
C1438  C1477   1.514   .     S
C1438  C644    1.403   1_556 S
C1441  C1450   1.399   .     A
C1441  H1445   1.083   .     S
C1442  C1449   1.399   .     A
C1442  H1446   1.083   .     S
C1442  C1532   1.374   .     S
C1443  C1449   1.399   .     A
C1443  H1447   1.083   .     S
C1443  C1529   1.374   .     S
C1444  C1450   1.399   .     A
C1444  H1448   1.083   .     S
C1451  C1481   1.511   .     S
C1451  N1456   1.380   .     A
C1452  C1485   1.514   .     S
C1452  N1455   1.379   .     A
C1452  C925    1.434   1_565 S
C1453  N1456   1.380   .     A
C1453  C1489   1.511   .     S
C1454  C1493   1.514   .     S
C1454  N1455   1.379   .     A
C1454  C923    1.434   1_565 S
C1457  H1459   1.106   .     S
C1457  H1458   1.110   .     S
C1457  H1460   1.109   .     S
C1461  H1462   1.110   .     S
C1461  H1464   1.109   .     S
C1461  H1463   1.106   .     S
C1465  H1468   1.110   .     S
C1465  H1466   1.110   .     S
C1465  H1467   1.107   .     S
C1469  H1471   1.107   .     S
C1469  H1470   1.110   .     S
C1469  H1472   1.110   .     S
C1473  H1475   1.100   .     S
C1473  H1476   1.111   .     S
C1473  H1474   1.111   .     S
C1477  H1479   1.101   .     S
C1477  H1480   1.111   .     S
C1477  H1478   1.111   .     S
C1481  H1482   1.081   .     S
C1481  H1483   1.110   .     S
C1481  H1484   1.109   .     S
C1485  H1486   1.083   .     S
C1485  H1487   1.109   .     S
C1485  H1488   1.110   .     S
C1489  H1492   1.109   .     S
C1489  H1490   1.081   .     S
C1489  H1491   1.110   .     S
C1493  H1495   1.109   .     S
C1493  H1494   1.083   .     S
C1493  H1496   1.110   .     S
O1497  C1501   1.299   .     A
O1497  Zn1509  2.013   .     S
O1498  C1502   1.299   .     A
O1498  Zn1510  2.013   .     S
O1499  C1502   1.299   .     A
O1499  Zn1509  2.013   .     S
O1500  C1501   1.299   .     A
O1500  Zn1510  2.013   .     S
C1501  C1538   1.432   .     S
C1502  C1537   1.432   .     S
O1503  C1507   1.293   .     A
O1503  Zn1509  2.002   .     S
O1504  C1508   1.298   .     A
O1504  Zn1510  2.002   .     S
O1505  Zn1509  2.002   .     S
O1505  C1508   1.293   .     A
O1506  Zn1510  2.002   .     S
O1506  C1507   1.298   .     A
C1507  C1514   1.423   .     S
C1508  C1513   1.423   .     S
Zn1509 N1543   2.044   .     S
Zn1510 N1544   2.044   .     S
C1511  C1521   1.414   .     A
C1511  C1513   1.402   .     A
C1511  C1545   1.521   .     S
C1512  C1549   1.521   .     S
C1512  C1522   1.414   .     A
C1512  C1514   1.402   .     A
C1513  C1515   1.383   .     A
C1514  C1516   1.383   .     A
C1515  H1527   1.084   .     S
C1515  C1517   1.388   .     A
C1516  C1518   1.388   .     A
C1516  H1528   1.084   .     S
C1517  C1523   1.410   .     A
C1517  C1519   1.413   .     A
C1518  C1524   1.410   .     A
C1518  C1520   1.413   .     A
C1519  C1521   1.421   .     A
C1519  C728    1.400   1_556 S
C1520  C1522   1.421   .     A
C1521  C1526   1.414   .     A
C1522  C1525   1.414   .     A
C1523  C1553   1.511   .     S
C1523  C733    1.403   1_556 S
C1524  C1557   1.511   .     S
C1525  C1561   1.514   .     S
C1526  C1565   1.514   .     S
C1526  C732    1.403   1_556 S
C1529  C1538   1.399   .     A
C1529  H1533   1.083   .     S
C1530  C1537   1.399   .     A
C1530  H1534   1.083   .     S
C1530  C1356   1.374   1_655 S
C1531  C1537   1.399   .     A
C1531  H1535   1.083   .     S
C1531  C1353   1.374   1_655 S
C1532  C1538   1.399   .     A
C1532  H1536   1.083   .     S
C1539  C1569   1.511   .     S
C1539  N1544   1.380   .     A
C1540  C1573   1.514   .     S
C1540  N1543   1.379   .     A
C1540  C1013   1.434   1_565 S
C1541  N1544   1.380   .     A
C1541  C1577   1.511   .     S
C1542  C1581   1.514   .     S
C1542  N1543   1.379   .     A
C1542  C1011   1.434   1_565 S
C1545  H1547   1.106   .     S
C1545  H1546   1.110   .     S
C1545  H1548   1.109   .     S
C1549  H1550   1.110   .     S
C1549  H1552   1.109   .     S
C1549  H1551   1.106   .     S
C1553  H1556   1.110   .     S
C1553  H1554   1.110   .     S
C1553  H1555   1.107   .     S
C1557  H1559   1.107   .     S
C1557  H1558   1.110   .     S
C1557  H1560   1.110   .     S
C1561  H1563   1.100   .     S
C1561  H1564   1.111   .     S
C1561  H1562   1.111   .     S
C1565  H1567   1.101   .     S
C1565  H1568   1.111   .     S
C1565  H1566   1.111   .     S
C1569  H1570   1.081   .     S
C1569  H1571   1.110   .     S
C1569  H1572   1.109   .     S
C1573  H1574   1.083   .     S
C1573  H1575   1.109   .     S
C1573  H1576   1.110   .     S
C1577  H1580   1.109   .     S
C1577  H1578   1.081   .     S
C1577  H1579   1.110   .     S
C1581  H1583   1.109   .     S
C1581  H1582   1.083   .     S
C1581  H1584   1.110   .     S
