data_str_m3_o1_o10_pcu_sym.169
_audit_creation_date              2020-01-03
_audit_creation_method            'Materials Studio'
_symmetry_space_group_name_H-M    'P1'
_symmetry_Int_Tables_number       1
_symmetry_cell_setting            triclinic
loop_
_symmetry_equiv_pos_as_xyz
  x,y,z
_cell_length_a                    26.4756
_cell_length_b                    32.0246
_cell_length_c                    29.4252
_cell_angle_alpha                 90.3551
_cell_angle_beta                  99.0613
_cell_angle_gamma                 89.3970
loop_
_atom_site_label
_atom_site_type_symbol
_atom_site_fract_x
_atom_site_fract_y
_atom_site_fract_z
_atom_site_U_iso_or_equiv
_atom_site_adp_type
_atom_site_occupancy
O1     O     0.16666   0.10558   0.20487   0.00000  Uiso   1.00
O2     O     0.16667   0.22775   0.12846   0.00000  Uiso   1.00
O3     O     0.16666   0.10559   0.12843   0.00000  Uiso   1.00
O4     O     0.16667   0.22774   0.20490   0.00000  Uiso   1.00
C5     C     0.16673   0.08680   0.16664   0.00000  Uiso   1.00
C6     C     0.16565   0.24660   0.16661   0.00000  Uiso   1.00
O7     O     0.09058   0.16666   0.19595   0.00000  Uiso   1.00
O8     O     0.24275   0.16667   0.13739   0.00000  Uiso   1.00
O9     O     0.09058   0.16667   0.11950   0.00000  Uiso   1.00
O10    O     0.24275   0.16666   0.21383   0.00000  Uiso   1.00
C11    C     0.06717   0.16558   0.15492   0.00000  Uiso   1.00
C12    C     0.26620   0.16566   0.17878   0.00000  Uiso   1.00
Zn13   Zn    0.16667   0.16666   0.21771   0.00000  Uiso   1.00
Zn14   Zn    0.16667   0.16667   0.11563   0.00000  Uiso   1.00
N15    N     0.16665   0.16666   0.28573   0.00000  Uiso   1.00
N16    N     0.16668   0.16668   0.04760   0.00000  Uiso   1.00
C17    C     0.01317   0.15970   0.14932   0.00000  Uiso   1.00
C18    C     0.32069   0.16661   0.18625   0.00000  Uiso   1.00
C19    C     0.12034   0.02228   0.15197   0.00000  Uiso   1.00
C20    C     0.21101   0.31117   0.18777   0.00000  Uiso   1.00
C21    C     0.12168   0.31243   0.14599   0.00000  Uiso   1.00
C22    C     0.21262   0.02131   0.18366   0.00000  Uiso   1.00
C23    C     0.16612   0.29080   0.16676   0.00000  Uiso   1.00
C24    C     0.16679   0.04260   0.16691   0.00000  Uiso   1.00
C25    C     0.15456   0.20211   0.02251   0.00000  Uiso   1.00
C26    C     0.17842   0.13117   0.31079   0.00000  Uiso   1.00
H27    H     0.14471   0.23045   0.03937   0.00000  Uiso   1.00
H28    H     0.18763   0.10275   0.29388   0.00000  Uiso   1.00
C29    C     0.15462   0.20211   0.30790   0.00000  Uiso   1.00
C30    C     0.17838   0.13115   0.02541   0.00000  Uiso   1.00
H31    H     0.14474   0.23043   0.28863   0.00000  Uiso   1.00
H32    H     0.18775   0.10272   0.04463   0.00000  Uiso   1.00
S33    S     0.31920   0.13938   0.09331   0.00000  Uiso   1.00
O34    O     0.28404   0.10381   0.09873   0.00000  Uiso   1.00
O35    O     0.28979   0.17370   0.06586   0.00000  Uiso   1.00
O36    O     0.03051   0.12148   0.06297   0.00000  Uiso   1.00
H37    H     0.01132   0.11365   0.03249   0.00000  Uiso   1.00
S38    S     0.01538   0.17920   0.24545   0.00000  Uiso   1.00
O39    O     0.04916   0.14351   0.26504   0.00000  Uiso   1.00
O40    O     0.04653   0.21822   0.24637   0.00000  Uiso   1.00
O41    O     0.30569   0.18744   0.28112   0.00000  Uiso   1.00
H42    H     0.32630   0.19253   0.31174   0.00000  Uiso   1.00
C43    C     0.07013   0.04688   0.14700   0.00000  Uiso   1.00
C44    C     0.05673   0.05748   0.19444   0.00000  Uiso   1.00
H45    H     0.04705   0.02866   0.21182   0.00000  Uiso   1.00
H46    H     0.08848   0.07264   0.21722   0.00000  Uiso   1.00
H47    H     0.02386   0.07947   0.19045   0.00000  Uiso   1.00
H48    H     0.07335   0.07595   0.12764   0.00000  Uiso   1.00
H49    H     0.03712   0.03041   0.12751   0.00000  Uiso   1.00
C50    C     0.25671   0.28652   0.21320   0.00000  Uiso   1.00
C51    C     0.25303   0.28164   0.26428   0.00000  Uiso   1.00
H52    H     0.24087   0.31131   0.27921   0.00000  Uiso   1.00
H53    H     0.22530   0.25721   0.26948   0.00000  Uiso   1.00
H54    H     0.29099   0.27228   0.28345   0.00000  Uiso   1.00
H55    H     0.26047   0.25529   0.19751   0.00000  Uiso   1.00
H56    H     0.29346   0.30145   0.21072   0.00000  Uiso   1.00
C57    C     0.07669   0.28984   0.11762   0.00000  Uiso   1.00
C58    C     0.03897   0.27420   0.14751   0.00000  Uiso   1.00
H59    H     0.00748   0.25717   0.12597   0.00000  Uiso   1.00
H60    H     0.05875   0.25277   0.17392   0.00000  Uiso   1.00
H61    H     0.02248   0.30067   0.16470   0.00000  Uiso   1.00
H62    H     0.05674   0.31012   0.08989   0.00000  Uiso   1.00
H63    H     0.08969   0.26316   0.09824   0.00000  Uiso   1.00
C64    C     0.26263   0.04513   0.19481   0.00000  Uiso   1.00
C65    C     0.27876   0.05286   0.24639   0.00000  Uiso   1.00
H66    H     0.24488   0.05733   0.26381   0.00000  Uiso   1.00
H67    H     0.30235   0.02651   0.26251   0.00000  Uiso   1.00
H68    H     0.30234   0.08144   0.25193   0.00000  Uiso   1.00
H69    H     0.29278   0.02857   0.17956   0.00000  Uiso   1.00
H70    H     0.26020   0.07580   0.17743   0.00000  Uiso   1.00
O71    O     0.50000   0.10558   0.20487   0.00000  Uiso   1.00
O72    O     0.50000   0.22775   0.12846   0.00000  Uiso   1.00
O73    O     0.50000   0.10559   0.12843   0.00000  Uiso   1.00
O74    O     0.50000   0.22774   0.20490   0.00000  Uiso   1.00
C75    C     0.50007   0.08680   0.16664   0.00000  Uiso   1.00
C76    C     0.49898   0.24660   0.16661   0.00000  Uiso   1.00
O77    O     0.42392   0.16666   0.19595   0.00000  Uiso   1.00
O78    O     0.57608   0.16667   0.13739   0.00000  Uiso   1.00
O79    O     0.42392   0.16667   0.11950   0.00000  Uiso   1.00
O80    O     0.57608   0.16666   0.21383   0.00000  Uiso   1.00
C81    C     0.40051   0.16558   0.15492   0.00000  Uiso   1.00
C82    C     0.59954   0.16566   0.17878   0.00000  Uiso   1.00
Zn83   Zn    0.50000   0.16666   0.21771   0.00000  Uiso   1.00
Zn84   Zn    0.50000   0.16667   0.11563   0.00000  Uiso   1.00
N85    N     0.49999   0.16666   0.28573   0.00000  Uiso   1.00
N86    N     0.50001   0.16668   0.04760   0.00000  Uiso   1.00
C87    C     0.34650   0.15970   0.14932   0.00000  Uiso   1.00
C88    C     0.65402   0.16661   0.18625   0.00000  Uiso   1.00
C89    C     0.45368   0.02228   0.15197   0.00000  Uiso   1.00
C90    C     0.54435   0.31117   0.18777   0.00000  Uiso   1.00
C91    C     0.45501   0.31243   0.14599   0.00000  Uiso   1.00
C92    C     0.54595   0.02131   0.18366   0.00000  Uiso   1.00
C93    C     0.49946   0.29080   0.16676   0.00000  Uiso   1.00
C94    C     0.50013   0.04260   0.16691   0.00000  Uiso   1.00
C95    C     0.48790   0.20211   0.02251   0.00000  Uiso   1.00
C96    C     0.51175   0.13117   0.31079   0.00000  Uiso   1.00
H97    H     0.47804   0.23045   0.03937   0.00000  Uiso   1.00
H98    H     0.52096   0.10275   0.29388   0.00000  Uiso   1.00
C99    C     0.48796   0.20211   0.30790   0.00000  Uiso   1.00
C100   C     0.51172   0.13115   0.02541   0.00000  Uiso   1.00
H101   H     0.47807   0.23043   0.28863   0.00000  Uiso   1.00
H102   H     0.52108   0.10272   0.04463   0.00000  Uiso   1.00
S103   S     0.65253   0.13938   0.09331   0.00000  Uiso   1.00
O104   O     0.61738   0.10381   0.09873   0.00000  Uiso   1.00
O105   O     0.62312   0.17370   0.06586   0.00000  Uiso   1.00
O106   O     0.36384   0.12148   0.06297   0.00000  Uiso   1.00
H107   H     0.34465   0.11365   0.03249   0.00000  Uiso   1.00
S108   S     0.34871   0.17920   0.24545   0.00000  Uiso   1.00
O109   O     0.38249   0.14351   0.26504   0.00000  Uiso   1.00
O110   O     0.37986   0.21822   0.24637   0.00000  Uiso   1.00
O111   O     0.63902   0.18744   0.28112   0.00000  Uiso   1.00
H112   H     0.65963   0.19253   0.31174   0.00000  Uiso   1.00
C113   C     0.40347   0.04688   0.14700   0.00000  Uiso   1.00
C114   C     0.39006   0.05748   0.19444   0.00000  Uiso   1.00
H115   H     0.38038   0.02866   0.21182   0.00000  Uiso   1.00
H116   H     0.42181   0.07264   0.21722   0.00000  Uiso   1.00
H117   H     0.35719   0.07947   0.19045   0.00000  Uiso   1.00
H118   H     0.40668   0.07595   0.12764   0.00000  Uiso   1.00
H119   H     0.37045   0.03041   0.12751   0.00000  Uiso   1.00
C120   C     0.59004   0.28652   0.21320   0.00000  Uiso   1.00
C121   C     0.58637   0.28164   0.26428   0.00000  Uiso   1.00
H122   H     0.57421   0.31131   0.27921   0.00000  Uiso   1.00
H123   H     0.55863   0.25721   0.26948   0.00000  Uiso   1.00
H124   H     0.62433   0.27228   0.28345   0.00000  Uiso   1.00
H125   H     0.59380   0.25529   0.19751   0.00000  Uiso   1.00
H126   H     0.62679   0.30145   0.21072   0.00000  Uiso   1.00
C127   C     0.41003   0.28984   0.11762   0.00000  Uiso   1.00
C128   C     0.37231   0.27420   0.14751   0.00000  Uiso   1.00
H129   H     0.34081   0.25717   0.12597   0.00000  Uiso   1.00
H130   H     0.39208   0.25277   0.17392   0.00000  Uiso   1.00
H131   H     0.35581   0.30067   0.16470   0.00000  Uiso   1.00
H132   H     0.39007   0.31012   0.08989   0.00000  Uiso   1.00
H133   H     0.42303   0.26316   0.09824   0.00000  Uiso   1.00
C134   C     0.59596   0.04513   0.19481   0.00000  Uiso   1.00
C135   C     0.61209   0.05286   0.24639   0.00000  Uiso   1.00
H136   H     0.57821   0.05733   0.26381   0.00000  Uiso   1.00
H137   H     0.63569   0.02651   0.26251   0.00000  Uiso   1.00
H138   H     0.63568   0.08144   0.25193   0.00000  Uiso   1.00
H139   H     0.62611   0.02857   0.17956   0.00000  Uiso   1.00
H140   H     0.59353   0.07580   0.17743   0.00000  Uiso   1.00
O141   O     0.83333   0.10558   0.20487   0.00000  Uiso   1.00
O142   O     0.83334   0.22775   0.12846   0.00000  Uiso   1.00
O143   O     0.83333   0.10559   0.12843   0.00000  Uiso   1.00
O144   O     0.83334   0.22774   0.20490   0.00000  Uiso   1.00
C145   C     0.83340   0.08680   0.16664   0.00000  Uiso   1.00
C146   C     0.83231   0.24660   0.16661   0.00000  Uiso   1.00
O147   O     0.75725   0.16666   0.19595   0.00000  Uiso   1.00
O148   O     0.90942   0.16667   0.13739   0.00000  Uiso   1.00
O149   O     0.75725   0.16667   0.11950   0.00000  Uiso   1.00
O150   O     0.90942   0.16666   0.21383   0.00000  Uiso   1.00
C151   C     0.73384   0.16558   0.15492   0.00000  Uiso   1.00
C152   C     0.93287   0.16566   0.17878   0.00000  Uiso   1.00
Zn153  Zn    0.83333   0.16666   0.21771   0.00000  Uiso   1.00
Zn154  Zn    0.83333   0.16667   0.11563   0.00000  Uiso   1.00
N155   N     0.83332   0.16666   0.28573   0.00000  Uiso   1.00
N156   N     0.83335   0.16668   0.04760   0.00000  Uiso   1.00
C157   C     0.67983   0.15970   0.14932   0.00000  Uiso   1.00
C158   C     0.98736   0.16661   0.18625   0.00000  Uiso   1.00
C159   C     0.78701   0.02228   0.15197   0.00000  Uiso   1.00
C160   C     0.87768   0.31117   0.18777   0.00000  Uiso   1.00
C161   C     0.78835   0.31243   0.14599   0.00000  Uiso   1.00
C162   C     0.87928   0.02131   0.18366   0.00000  Uiso   1.00
C163   C     0.83279   0.29080   0.16676   0.00000  Uiso   1.00
C164   C     0.83346   0.04260   0.16691   0.00000  Uiso   1.00
C165   C     0.82123   0.20211   0.02251   0.00000  Uiso   1.00
C166   C     0.84509   0.13117   0.31079   0.00000  Uiso   1.00
H167   H     0.81138   0.23045   0.03937   0.00000  Uiso   1.00
H168   H     0.85430   0.10275   0.29388   0.00000  Uiso   1.00
C169   C     0.82129   0.20211   0.30790   0.00000  Uiso   1.00
C170   C     0.84505   0.13115   0.02541   0.00000  Uiso   1.00
H171   H     0.81140   0.23043   0.28863   0.00000  Uiso   1.00
H172   H     0.85442   0.10272   0.04463   0.00000  Uiso   1.00
S173   S     0.98586   0.13938   0.09331   0.00000  Uiso   1.00
O174   O     0.95071   0.10381   0.09873   0.00000  Uiso   1.00
O175   O     0.95645   0.17370   0.06586   0.00000  Uiso   1.00
O176   O     0.69717   0.12148   0.06297   0.00000  Uiso   1.00
H177   H     0.67799   0.11365   0.03249   0.00000  Uiso   1.00
S178   S     0.68204   0.17920   0.24545   0.00000  Uiso   1.00
O179   O     0.71582   0.14351   0.26504   0.00000  Uiso   1.00
O180   O     0.71319   0.21822   0.24637   0.00000  Uiso   1.00
O181   O     0.97235   0.18744   0.28112   0.00000  Uiso   1.00
H182   H     0.99297   0.19253   0.31174   0.00000  Uiso   1.00
C183   C     0.73680   0.04688   0.14700   0.00000  Uiso   1.00
C184   C     0.72340   0.05748   0.19444   0.00000  Uiso   1.00
H185   H     0.71372   0.02866   0.21182   0.00000  Uiso   1.00
H186   H     0.75514   0.07264   0.21722   0.00000  Uiso   1.00
H187   H     0.69053   0.07947   0.19045   0.00000  Uiso   1.00
H188   H     0.74001   0.07595   0.12764   0.00000  Uiso   1.00
H189   H     0.70379   0.03041   0.12751   0.00000  Uiso   1.00
C190   C     0.92338   0.28652   0.21320   0.00000  Uiso   1.00
C191   C     0.91970   0.28164   0.26428   0.00000  Uiso   1.00
H192   H     0.90754   0.31131   0.27921   0.00000  Uiso   1.00
H193   H     0.89197   0.25721   0.26948   0.00000  Uiso   1.00
H194   H     0.95766   0.27228   0.28345   0.00000  Uiso   1.00
H195   H     0.92713   0.25529   0.19751   0.00000  Uiso   1.00
H196   H     0.96012   0.30145   0.21072   0.00000  Uiso   1.00
C197   C     0.74336   0.28984   0.11762   0.00000  Uiso   1.00
C198   C     0.70564   0.27420   0.14751   0.00000  Uiso   1.00
H199   H     0.67415   0.25717   0.12597   0.00000  Uiso   1.00
H200   H     0.72541   0.25277   0.17392   0.00000  Uiso   1.00
H201   H     0.68914   0.30067   0.16470   0.00000  Uiso   1.00
H202   H     0.72340   0.31012   0.08989   0.00000  Uiso   1.00
H203   H     0.75636   0.26316   0.09824   0.00000  Uiso   1.00
C204   C     0.92929   0.04513   0.19481   0.00000  Uiso   1.00
C205   C     0.94542   0.05286   0.24639   0.00000  Uiso   1.00
H206   H     0.91154   0.05733   0.26381   0.00000  Uiso   1.00
H207   H     0.96902   0.02651   0.26251   0.00000  Uiso   1.00
H208   H     0.96901   0.08144   0.25193   0.00000  Uiso   1.00
H209   H     0.95944   0.02857   0.17956   0.00000  Uiso   1.00
H210   H     0.92686   0.07580   0.17743   0.00000  Uiso   1.00
O211   O     0.16666   0.43892   0.20487   0.00000  Uiso   1.00
O212   O     0.16667   0.56108   0.12846   0.00000  Uiso   1.00
O213   O     0.16666   0.43893   0.12843   0.00000  Uiso   1.00
O214   O     0.16667   0.56107   0.20490   0.00000  Uiso   1.00
C215   C     0.16673   0.42014   0.16664   0.00000  Uiso   1.00
C216   C     0.16565   0.57993   0.16661   0.00000  Uiso   1.00
O217   O     0.09058   0.50000   0.19595   0.00000  Uiso   1.00
O218   O     0.24275   0.50000   0.13739   0.00000  Uiso   1.00
O219   O     0.09058   0.50000   0.11950   0.00000  Uiso   1.00
O220   O     0.24275   0.50000   0.21383   0.00000  Uiso   1.00
C221   C     0.06717   0.49891   0.15492   0.00000  Uiso   1.00
C222   C     0.26620   0.49899   0.17878   0.00000  Uiso   1.00
Zn223  Zn    0.16667   0.49999   0.21771   0.00000  Uiso   1.00
Zn224  Zn    0.16667   0.50001   0.11563   0.00000  Uiso   1.00
N225   N     0.16665   0.49999   0.28573   0.00000  Uiso   1.00
N226   N     0.16668   0.50001   0.04760   0.00000  Uiso   1.00
C227   C     0.01317   0.49304   0.14932   0.00000  Uiso   1.00
C228   C     0.32069   0.49994   0.18625   0.00000  Uiso   1.00
C229   C     0.12034   0.35562   0.15197   0.00000  Uiso   1.00
C230   C     0.21101   0.64450   0.18777   0.00000  Uiso   1.00
C231   C     0.12168   0.64577   0.14599   0.00000  Uiso   1.00
C232   C     0.21262   0.35464   0.18366   0.00000  Uiso   1.00
C233   C     0.16612   0.62413   0.16676   0.00000  Uiso   1.00
C234   C     0.16679   0.37593   0.16691   0.00000  Uiso   1.00
C235   C     0.15456   0.53544   0.02251   0.00000  Uiso   1.00
C236   C     0.17842   0.46450   0.31079   0.00000  Uiso   1.00
H237   H     0.14471   0.56378   0.03937   0.00000  Uiso   1.00
H238   H     0.18763   0.43608   0.29388   0.00000  Uiso   1.00
C239   C     0.15462   0.53544   0.30790   0.00000  Uiso   1.00
C240   C     0.17838   0.46449   0.02541   0.00000  Uiso   1.00
H241   H     0.14474   0.56376   0.28863   0.00000  Uiso   1.00
H242   H     0.18775   0.43605   0.04463   0.00000  Uiso   1.00
S243   S     0.31920   0.47271   0.09331   0.00000  Uiso   1.00
O244   O     0.28404   0.43714   0.09873   0.00000  Uiso   1.00
O245   O     0.28979   0.50704   0.06586   0.00000  Uiso   1.00
O246   O     0.03051   0.45481   0.06297   0.00000  Uiso   1.00
H247   H     0.01132   0.44699   0.03249   0.00000  Uiso   1.00
S248   S     0.01538   0.51254   0.24545   0.00000  Uiso   1.00
O249   O     0.04916   0.47684   0.26504   0.00000  Uiso   1.00
O250   O     0.04653   0.55156   0.24637   0.00000  Uiso   1.00
O251   O     0.30569   0.52078   0.28112   0.00000  Uiso   1.00
H252   H     0.32630   0.52586   0.31174   0.00000  Uiso   1.00
C253   C     0.07013   0.38021   0.14700   0.00000  Uiso   1.00
C254   C     0.05673   0.39082   0.19444   0.00000  Uiso   1.00
H255   H     0.04705   0.36200   0.21182   0.00000  Uiso   1.00
H256   H     0.08848   0.40598   0.21722   0.00000  Uiso   1.00
H257   H     0.02386   0.41280   0.19045   0.00000  Uiso   1.00
H258   H     0.07335   0.40928   0.12764   0.00000  Uiso   1.00
H259   H     0.03712   0.36374   0.12751   0.00000  Uiso   1.00
C260   C     0.25671   0.61985   0.21320   0.00000  Uiso   1.00
C261   C     0.25303   0.61497   0.26428   0.00000  Uiso   1.00
H262   H     0.24087   0.64465   0.27921   0.00000  Uiso   1.00
H263   H     0.22530   0.59054   0.26948   0.00000  Uiso   1.00
H264   H     0.29099   0.60562   0.28345   0.00000  Uiso   1.00
H265   H     0.26047   0.58863   0.19751   0.00000  Uiso   1.00
H266   H     0.29346   0.63478   0.21072   0.00000  Uiso   1.00
C267   C     0.07669   0.62317   0.11762   0.00000  Uiso   1.00
C268   C     0.03897   0.60754   0.14751   0.00000  Uiso   1.00
H269   H     0.00748   0.59050   0.12597   0.00000  Uiso   1.00
H270   H     0.05875   0.58610   0.17392   0.00000  Uiso   1.00
H271   H     0.02248   0.63400   0.16470   0.00000  Uiso   1.00
H272   H     0.05674   0.64345   0.08989   0.00000  Uiso   1.00
H273   H     0.08969   0.59650   0.09824   0.00000  Uiso   1.00
C274   C     0.26263   0.37846   0.19481   0.00000  Uiso   1.00
C275   C     0.27876   0.38619   0.24639   0.00000  Uiso   1.00
H276   H     0.24488   0.39067   0.26381   0.00000  Uiso   1.00
H277   H     0.30235   0.35985   0.26251   0.00000  Uiso   1.00
H278   H     0.30234   0.41478   0.25193   0.00000  Uiso   1.00
H279   H     0.29278   0.36190   0.17956   0.00000  Uiso   1.00
H280   H     0.26020   0.40913   0.17743   0.00000  Uiso   1.00
O281   O     0.50000   0.43892   0.20487   0.00000  Uiso   1.00
O282   O     0.50000   0.56108   0.12846   0.00000  Uiso   1.00
O283   O     0.50000   0.43893   0.12843   0.00000  Uiso   1.00
O284   O     0.50000   0.56107   0.20490   0.00000  Uiso   1.00
C285   C     0.50007   0.42014   0.16664   0.00000  Uiso   1.00
C286   C     0.49898   0.57993   0.16661   0.00000  Uiso   1.00
O287   O     0.42392   0.50000   0.19595   0.00000  Uiso   1.00
O288   O     0.57608   0.50000   0.13739   0.00000  Uiso   1.00
O289   O     0.42392   0.50000   0.11950   0.00000  Uiso   1.00
O290   O     0.57608   0.50000   0.21383   0.00000  Uiso   1.00
C291   C     0.40051   0.49891   0.15492   0.00000  Uiso   1.00
C292   C     0.59954   0.49899   0.17878   0.00000  Uiso   1.00
Zn293  Zn    0.50000   0.49999   0.21771   0.00000  Uiso   1.00
Zn294  Zn    0.50000   0.50001   0.11563   0.00000  Uiso   1.00
N295   N     0.49999   0.49999   0.28573   0.00000  Uiso   1.00
N296   N     0.50001   0.50001   0.04760   0.00000  Uiso   1.00
C297   C     0.34650   0.49304   0.14932   0.00000  Uiso   1.00
C298   C     0.65402   0.49994   0.18625   0.00000  Uiso   1.00
C299   C     0.45368   0.35562   0.15197   0.00000  Uiso   1.00
C300   C     0.54435   0.64450   0.18777   0.00000  Uiso   1.00
C301   C     0.45501   0.64577   0.14599   0.00000  Uiso   1.00
C302   C     0.54595   0.35464   0.18366   0.00000  Uiso   1.00
C303   C     0.49946   0.62413   0.16676   0.00000  Uiso   1.00
C304   C     0.50013   0.37593   0.16691   0.00000  Uiso   1.00
C305   C     0.48790   0.53544   0.02251   0.00000  Uiso   1.00
C306   C     0.51175   0.46450   0.31079   0.00000  Uiso   1.00
H307   H     0.47804   0.56378   0.03937   0.00000  Uiso   1.00
H308   H     0.52096   0.43608   0.29388   0.00000  Uiso   1.00
C309   C     0.48796   0.53544   0.30790   0.00000  Uiso   1.00
C310   C     0.51172   0.46449   0.02541   0.00000  Uiso   1.00
H311   H     0.47807   0.56376   0.28863   0.00000  Uiso   1.00
H312   H     0.52108   0.43605   0.04463   0.00000  Uiso   1.00
S313   S     0.65253   0.47271   0.09331   0.00000  Uiso   1.00
O314   O     0.61738   0.43714   0.09873   0.00000  Uiso   1.00
O315   O     0.62312   0.50704   0.06586   0.00000  Uiso   1.00
O316   O     0.36384   0.45481   0.06297   0.00000  Uiso   1.00
H317   H     0.34465   0.44699   0.03249   0.00000  Uiso   1.00
S318   S     0.34871   0.51254   0.24545   0.00000  Uiso   1.00
O319   O     0.38249   0.47684   0.26504   0.00000  Uiso   1.00
O320   O     0.37986   0.55156   0.24637   0.00000  Uiso   1.00
O321   O     0.63902   0.52078   0.28112   0.00000  Uiso   1.00
H322   H     0.65963   0.52586   0.31174   0.00000  Uiso   1.00
C323   C     0.40347   0.38021   0.14700   0.00000  Uiso   1.00
C324   C     0.39006   0.39082   0.19444   0.00000  Uiso   1.00
H325   H     0.38038   0.36200   0.21182   0.00000  Uiso   1.00
H326   H     0.42181   0.40598   0.21722   0.00000  Uiso   1.00
H327   H     0.35719   0.41280   0.19045   0.00000  Uiso   1.00
H328   H     0.40668   0.40928   0.12764   0.00000  Uiso   1.00
H329   H     0.37045   0.36374   0.12751   0.00000  Uiso   1.00
C330   C     0.59004   0.61985   0.21320   0.00000  Uiso   1.00
C331   C     0.58637   0.61497   0.26428   0.00000  Uiso   1.00
H332   H     0.57421   0.64465   0.27921   0.00000  Uiso   1.00
H333   H     0.55863   0.59054   0.26948   0.00000  Uiso   1.00
H334   H     0.62433   0.60562   0.28345   0.00000  Uiso   1.00
H335   H     0.59380   0.58863   0.19751   0.00000  Uiso   1.00
H336   H     0.62679   0.63478   0.21072   0.00000  Uiso   1.00
C337   C     0.41003   0.62317   0.11762   0.00000  Uiso   1.00
C338   C     0.37231   0.60754   0.14751   0.00000  Uiso   1.00
H339   H     0.34081   0.59050   0.12597   0.00000  Uiso   1.00
H340   H     0.39208   0.58610   0.17392   0.00000  Uiso   1.00
H341   H     0.35581   0.63400   0.16470   0.00000  Uiso   1.00
H342   H     0.39007   0.64345   0.08989   0.00000  Uiso   1.00
H343   H     0.42303   0.59650   0.09824   0.00000  Uiso   1.00
C344   C     0.59596   0.37846   0.19481   0.00000  Uiso   1.00
C345   C     0.61209   0.38619   0.24639   0.00000  Uiso   1.00
H346   H     0.57821   0.39067   0.26381   0.00000  Uiso   1.00
H347   H     0.63569   0.35985   0.26251   0.00000  Uiso   1.00
H348   H     0.63568   0.41478   0.25193   0.00000  Uiso   1.00
H349   H     0.62611   0.36190   0.17956   0.00000  Uiso   1.00
H350   H     0.59353   0.40913   0.17743   0.00000  Uiso   1.00
O351   O     0.83333   0.43892   0.20487   0.00000  Uiso   1.00
O352   O     0.83334   0.56108   0.12846   0.00000  Uiso   1.00
O353   O     0.83333   0.43893   0.12843   0.00000  Uiso   1.00
O354   O     0.83334   0.56107   0.20490   0.00000  Uiso   1.00
C355   C     0.83340   0.42014   0.16664   0.00000  Uiso   1.00
C356   C     0.83231   0.57993   0.16661   0.00000  Uiso   1.00
O357   O     0.75725   0.50000   0.19595   0.00000  Uiso   1.00
O358   O     0.90942   0.50000   0.13739   0.00000  Uiso   1.00
O359   O     0.75725   0.50000   0.11950   0.00000  Uiso   1.00
O360   O     0.90942   0.50000   0.21383   0.00000  Uiso   1.00
C361   C     0.73384   0.49891   0.15492   0.00000  Uiso   1.00
C362   C     0.93287   0.49899   0.17878   0.00000  Uiso   1.00
Zn363  Zn    0.83333   0.49999   0.21771   0.00000  Uiso   1.00
Zn364  Zn    0.83333   0.50001   0.11563   0.00000  Uiso   1.00
N365   N     0.83332   0.49999   0.28573   0.00000  Uiso   1.00
N366   N     0.83335   0.50001   0.04760   0.00000  Uiso   1.00
C367   C     0.67983   0.49304   0.14932   0.00000  Uiso   1.00
C368   C     0.98736   0.49994   0.18625   0.00000  Uiso   1.00
C369   C     0.78701   0.35562   0.15197   0.00000  Uiso   1.00
C370   C     0.87768   0.64450   0.18777   0.00000  Uiso   1.00
C371   C     0.78835   0.64577   0.14599   0.00000  Uiso   1.00
C372   C     0.87928   0.35464   0.18366   0.00000  Uiso   1.00
C373   C     0.83279   0.62413   0.16676   0.00000  Uiso   1.00
C374   C     0.83346   0.37593   0.16691   0.00000  Uiso   1.00
C375   C     0.82123   0.53544   0.02251   0.00000  Uiso   1.00
C376   C     0.84509   0.46450   0.31079   0.00000  Uiso   1.00
H377   H     0.81138   0.56378   0.03937   0.00000  Uiso   1.00
H378   H     0.85430   0.43608   0.29388   0.00000  Uiso   1.00
C379   C     0.82129   0.53544   0.30790   0.00000  Uiso   1.00
C380   C     0.84505   0.46449   0.02541   0.00000  Uiso   1.00
H381   H     0.81140   0.56376   0.28863   0.00000  Uiso   1.00
H382   H     0.85442   0.43605   0.04463   0.00000  Uiso   1.00
S383   S     0.98586   0.47271   0.09331   0.00000  Uiso   1.00
O384   O     0.95071   0.43714   0.09873   0.00000  Uiso   1.00
O385   O     0.95645   0.50704   0.06586   0.00000  Uiso   1.00
O386   O     0.69717   0.45481   0.06297   0.00000  Uiso   1.00
H387   H     0.67799   0.44699   0.03249   0.00000  Uiso   1.00
S388   S     0.68204   0.51254   0.24545   0.00000  Uiso   1.00
O389   O     0.71582   0.47684   0.26504   0.00000  Uiso   1.00
O390   O     0.71319   0.55156   0.24637   0.00000  Uiso   1.00
O391   O     0.97235   0.52078   0.28112   0.00000  Uiso   1.00
H392   H     0.99297   0.52586   0.31174   0.00000  Uiso   1.00
C393   C     0.73680   0.38021   0.14700   0.00000  Uiso   1.00
C394   C     0.72340   0.39082   0.19444   0.00000  Uiso   1.00
H395   H     0.71372   0.36200   0.21182   0.00000  Uiso   1.00
H396   H     0.75514   0.40598   0.21722   0.00000  Uiso   1.00
H397   H     0.69053   0.41280   0.19045   0.00000  Uiso   1.00
H398   H     0.74001   0.40928   0.12764   0.00000  Uiso   1.00
H399   H     0.70379   0.36374   0.12751   0.00000  Uiso   1.00
C400   C     0.92338   0.61985   0.21320   0.00000  Uiso   1.00
C401   C     0.91970   0.61497   0.26428   0.00000  Uiso   1.00
H402   H     0.90754   0.64465   0.27921   0.00000  Uiso   1.00
H403   H     0.89197   0.59054   0.26948   0.00000  Uiso   1.00
H404   H     0.95766   0.60562   0.28345   0.00000  Uiso   1.00
H405   H     0.92713   0.58863   0.19751   0.00000  Uiso   1.00
H406   H     0.96012   0.63478   0.21072   0.00000  Uiso   1.00
C407   C     0.74336   0.62317   0.11762   0.00000  Uiso   1.00
C408   C     0.70564   0.60754   0.14751   0.00000  Uiso   1.00
H409   H     0.67415   0.59050   0.12597   0.00000  Uiso   1.00
H410   H     0.72541   0.58610   0.17392   0.00000  Uiso   1.00
H411   H     0.68914   0.63400   0.16470   0.00000  Uiso   1.00
H412   H     0.72340   0.64345   0.08989   0.00000  Uiso   1.00
H413   H     0.75636   0.59650   0.09824   0.00000  Uiso   1.00
C414   C     0.92929   0.37846   0.19481   0.00000  Uiso   1.00
C415   C     0.94542   0.38619   0.24639   0.00000  Uiso   1.00
H416   H     0.91154   0.39067   0.26381   0.00000  Uiso   1.00
H417   H     0.96902   0.35985   0.26251   0.00000  Uiso   1.00
H418   H     0.96901   0.41478   0.25193   0.00000  Uiso   1.00
H419   H     0.95944   0.36190   0.17956   0.00000  Uiso   1.00
H420   H     0.92686   0.40913   0.17743   0.00000  Uiso   1.00
O421   O     0.16666   0.77225   0.20487   0.00000  Uiso   1.00
O422   O     0.16667   0.89442   0.12846   0.00000  Uiso   1.00
O423   O     0.16666   0.77226   0.12843   0.00000  Uiso   1.00
O424   O     0.16667   0.89441   0.20490   0.00000  Uiso   1.00
C425   C     0.16673   0.75347   0.16664   0.00000  Uiso   1.00
C426   C     0.16565   0.91326   0.16661   0.00000  Uiso   1.00
O427   O     0.09058   0.83333   0.19595   0.00000  Uiso   1.00
O428   O     0.24275   0.83334   0.13739   0.00000  Uiso   1.00
O429   O     0.09058   0.83334   0.11950   0.00000  Uiso   1.00
O430   O     0.24275   0.83333   0.21383   0.00000  Uiso   1.00
C431   C     0.06717   0.83224   0.15492   0.00000  Uiso   1.00
C432   C     0.26620   0.83232   0.17878   0.00000  Uiso   1.00
Zn433  Zn    0.16667   0.83333   0.21771   0.00000  Uiso   1.00
Zn434  Zn    0.16667   0.83334   0.11563   0.00000  Uiso   1.00
N435   N     0.16665   0.83332   0.28573   0.00000  Uiso   1.00
N436   N     0.16668   0.83334   0.04760   0.00000  Uiso   1.00
C437   C     0.01317   0.82637   0.14932   0.00000  Uiso   1.00
C438   C     0.32069   0.83328   0.18625   0.00000  Uiso   1.00
C439   C     0.12034   0.68895   0.15197   0.00000  Uiso   1.00
C440   C     0.21101   0.97784   0.18777   0.00000  Uiso   1.00
C441   C     0.12168   0.97910   0.14599   0.00000  Uiso   1.00
C442   C     0.21262   0.68798   0.18366   0.00000  Uiso   1.00
C443   C     0.16612   0.95746   0.16676   0.00000  Uiso   1.00
C444   C     0.16679   0.70927   0.16691   0.00000  Uiso   1.00
C445   C     0.15456   0.86878   0.02251   0.00000  Uiso   1.00
C446   C     0.17842   0.79783   0.31079   0.00000  Uiso   1.00
H447   H     0.14471   0.89712   0.03937   0.00000  Uiso   1.00
H448   H     0.18763   0.76941   0.29388   0.00000  Uiso   1.00
C449   C     0.15462   0.86877   0.30790   0.00000  Uiso   1.00
C450   C     0.17838   0.79782   0.02541   0.00000  Uiso   1.00
H451   H     0.14474   0.89710   0.28863   0.00000  Uiso   1.00
H452   H     0.18775   0.76939   0.04463   0.00000  Uiso   1.00
S453   S     0.31920   0.80604   0.09331   0.00000  Uiso   1.00
O454   O     0.28404   0.77047   0.09873   0.00000  Uiso   1.00
O455   O     0.28979   0.84037   0.06586   0.00000  Uiso   1.00
O456   O     0.03051   0.78814   0.06297   0.00000  Uiso   1.00
H457   H     0.01132   0.78032   0.03249   0.00000  Uiso   1.00
S458   S     0.01538   0.84587   0.24545   0.00000  Uiso   1.00
O459   O     0.04916   0.81018   0.26504   0.00000  Uiso   1.00
O460   O     0.04653   0.88489   0.24637   0.00000  Uiso   1.00
O461   O     0.30569   0.85411   0.28112   0.00000  Uiso   1.00
H462   H     0.32630   0.85920   0.31174   0.00000  Uiso   1.00
C463   C     0.07013   0.71355   0.14700   0.00000  Uiso   1.00
C464   C     0.05673   0.72415   0.19444   0.00000  Uiso   1.00
H465   H     0.04705   0.69533   0.21182   0.00000  Uiso   1.00
H466   H     0.08848   0.73931   0.21722   0.00000  Uiso   1.00
H467   H     0.02386   0.74613   0.19045   0.00000  Uiso   1.00
H468   H     0.07335   0.74261   0.12764   0.00000  Uiso   1.00
H469   H     0.03712   0.69707   0.12751   0.00000  Uiso   1.00
C470   C     0.25671   0.95319   0.21320   0.00000  Uiso   1.00
C471   C     0.25303   0.94830   0.26428   0.00000  Uiso   1.00
H472   H     0.24087   0.97798   0.27921   0.00000  Uiso   1.00
H473   H     0.22530   0.92387   0.26948   0.00000  Uiso   1.00
H474   H     0.29099   0.93895   0.28345   0.00000  Uiso   1.00
H475   H     0.26047   0.92196   0.19751   0.00000  Uiso   1.00
H476   H     0.29346   0.96812   0.21072   0.00000  Uiso   1.00
C477   C     0.07669   0.95651   0.11762   0.00000  Uiso   1.00
C478   C     0.03897   0.94087   0.14751   0.00000  Uiso   1.00
H479   H     0.00748   0.92384   0.12597   0.00000  Uiso   1.00
H480   H     0.05875   0.91944   0.17392   0.00000  Uiso   1.00
H481   H     0.02248   0.96733   0.16470   0.00000  Uiso   1.00
H482   H     0.05674   0.97678   0.08989   0.00000  Uiso   1.00
H483   H     0.08969   0.92983   0.09824   0.00000  Uiso   1.00
C484   C     0.26263   0.71180   0.19481   0.00000  Uiso   1.00
C485   C     0.27876   0.71952   0.24639   0.00000  Uiso   1.00
H486   H     0.24488   0.72400   0.26381   0.00000  Uiso   1.00
H487   H     0.30235   0.69318   0.26251   0.00000  Uiso   1.00
H488   H     0.30234   0.74811   0.25193   0.00000  Uiso   1.00
H489   H     0.29278   0.69523   0.17956   0.00000  Uiso   1.00
H490   H     0.26020   0.74247   0.17743   0.00000  Uiso   1.00
O491   O     0.50000   0.77225   0.20487   0.00000  Uiso   1.00
O492   O     0.50000   0.89442   0.12846   0.00000  Uiso   1.00
O493   O     0.50000   0.77226   0.12843   0.00000  Uiso   1.00
O494   O     0.50000   0.89441   0.20490   0.00000  Uiso   1.00
C495   C     0.50007   0.75347   0.16664   0.00000  Uiso   1.00
C496   C     0.49898   0.91326   0.16661   0.00000  Uiso   1.00
O497   O     0.42392   0.83333   0.19595   0.00000  Uiso   1.00
O498   O     0.57608   0.83334   0.13739   0.00000  Uiso   1.00
O499   O     0.42392   0.83334   0.11950   0.00000  Uiso   1.00
O500   O     0.57608   0.83333   0.21383   0.00000  Uiso   1.00
C501   C     0.40051   0.83224   0.15492   0.00000  Uiso   1.00
C502   C     0.59954   0.83232   0.17878   0.00000  Uiso   1.00
Zn503  Zn    0.50000   0.83333   0.21771   0.00000  Uiso   1.00
Zn504  Zn    0.50000   0.83334   0.11563   0.00000  Uiso   1.00
N505   N     0.49999   0.83332   0.28573   0.00000  Uiso   1.00
N506   N     0.50001   0.83334   0.04760   0.00000  Uiso   1.00
C507   C     0.34650   0.82637   0.14932   0.00000  Uiso   1.00
C508   C     0.65402   0.83328   0.18625   0.00000  Uiso   1.00
C509   C     0.45368   0.68895   0.15197   0.00000  Uiso   1.00
C510   C     0.54435   0.97784   0.18777   0.00000  Uiso   1.00
C511   C     0.45501   0.97910   0.14599   0.00000  Uiso   1.00
C512   C     0.54595   0.68798   0.18366   0.00000  Uiso   1.00
C513   C     0.49946   0.95746   0.16676   0.00000  Uiso   1.00
C514   C     0.50013   0.70927   0.16691   0.00000  Uiso   1.00
C515   C     0.48790   0.86878   0.02251   0.00000  Uiso   1.00
C516   C     0.51175   0.79783   0.31079   0.00000  Uiso   1.00
H517   H     0.47804   0.89712   0.03937   0.00000  Uiso   1.00
H518   H     0.52096   0.76941   0.29388   0.00000  Uiso   1.00
C519   C     0.48796   0.86877   0.30790   0.00000  Uiso   1.00
C520   C     0.51172   0.79782   0.02541   0.00000  Uiso   1.00
H521   H     0.47807   0.89710   0.28863   0.00000  Uiso   1.00
H522   H     0.52108   0.76939   0.04463   0.00000  Uiso   1.00
S523   S     0.65253   0.80604   0.09331   0.00000  Uiso   1.00
O524   O     0.61738   0.77047   0.09873   0.00000  Uiso   1.00
O525   O     0.62312   0.84037   0.06586   0.00000  Uiso   1.00
O526   O     0.36384   0.78814   0.06297   0.00000  Uiso   1.00
H527   H     0.34465   0.78032   0.03249   0.00000  Uiso   1.00
S528   S     0.34871   0.84587   0.24545   0.00000  Uiso   1.00
O529   O     0.38249   0.81018   0.26504   0.00000  Uiso   1.00
O530   O     0.37986   0.88489   0.24637   0.00000  Uiso   1.00
O531   O     0.63902   0.85411   0.28112   0.00000  Uiso   1.00
H532   H     0.65963   0.85920   0.31174   0.00000  Uiso   1.00
C533   C     0.40347   0.71355   0.14700   0.00000  Uiso   1.00
C534   C     0.39006   0.72415   0.19444   0.00000  Uiso   1.00
H535   H     0.38038   0.69533   0.21182   0.00000  Uiso   1.00
H536   H     0.42181   0.73931   0.21722   0.00000  Uiso   1.00
H537   H     0.35719   0.74613   0.19045   0.00000  Uiso   1.00
H538   H     0.40668   0.74261   0.12764   0.00000  Uiso   1.00
H539   H     0.37045   0.69707   0.12751   0.00000  Uiso   1.00
C540   C     0.59004   0.95319   0.21320   0.00000  Uiso   1.00
C541   C     0.58637   0.94830   0.26428   0.00000  Uiso   1.00
H542   H     0.57421   0.97798   0.27921   0.00000  Uiso   1.00
H543   H     0.55863   0.92387   0.26948   0.00000  Uiso   1.00
H544   H     0.62433   0.93895   0.28345   0.00000  Uiso   1.00
H545   H     0.59380   0.92196   0.19751   0.00000  Uiso   1.00
H546   H     0.62679   0.96812   0.21072   0.00000  Uiso   1.00
C547   C     0.41003   0.95651   0.11762   0.00000  Uiso   1.00
C548   C     0.37231   0.94087   0.14751   0.00000  Uiso   1.00
H549   H     0.34081   0.92384   0.12597   0.00000  Uiso   1.00
H550   H     0.39208   0.91944   0.17392   0.00000  Uiso   1.00
H551   H     0.35581   0.96733   0.16470   0.00000  Uiso   1.00
H552   H     0.39007   0.97678   0.08989   0.00000  Uiso   1.00
H553   H     0.42303   0.92983   0.09824   0.00000  Uiso   1.00
C554   C     0.59596   0.71180   0.19481   0.00000  Uiso   1.00
C555   C     0.61209   0.71952   0.24639   0.00000  Uiso   1.00
H556   H     0.57821   0.72400   0.26381   0.00000  Uiso   1.00
H557   H     0.63569   0.69318   0.26251   0.00000  Uiso   1.00
H558   H     0.63568   0.74811   0.25193   0.00000  Uiso   1.00
H559   H     0.62611   0.69523   0.17956   0.00000  Uiso   1.00
H560   H     0.59353   0.74247   0.17743   0.00000  Uiso   1.00
O561   O     0.83333   0.77225   0.20487   0.00000  Uiso   1.00
O562   O     0.83334   0.89442   0.12846   0.00000  Uiso   1.00
O563   O     0.83333   0.77226   0.12843   0.00000  Uiso   1.00
O564   O     0.83334   0.89441   0.20490   0.00000  Uiso   1.00
C565   C     0.83340   0.75347   0.16664   0.00000  Uiso   1.00
C566   C     0.83231   0.91326   0.16661   0.00000  Uiso   1.00
O567   O     0.75725   0.83333   0.19595   0.00000  Uiso   1.00
O568   O     0.90942   0.83334   0.13739   0.00000  Uiso   1.00
O569   O     0.75725   0.83334   0.11950   0.00000  Uiso   1.00
O570   O     0.90942   0.83333   0.21383   0.00000  Uiso   1.00
C571   C     0.73384   0.83224   0.15492   0.00000  Uiso   1.00
C572   C     0.93287   0.83232   0.17878   0.00000  Uiso   1.00
Zn573  Zn    0.83333   0.83333   0.21771   0.00000  Uiso   1.00
Zn574  Zn    0.83333   0.83334   0.11563   0.00000  Uiso   1.00
N575   N     0.83332   0.83332   0.28573   0.00000  Uiso   1.00
N576   N     0.83335   0.83334   0.04760   0.00000  Uiso   1.00
C577   C     0.67983   0.82637   0.14932   0.00000  Uiso   1.00
C578   C     0.98736   0.83328   0.18625   0.00000  Uiso   1.00
C579   C     0.78701   0.68895   0.15197   0.00000  Uiso   1.00
C580   C     0.87768   0.97784   0.18777   0.00000  Uiso   1.00
C581   C     0.78835   0.97910   0.14599   0.00000  Uiso   1.00
C582   C     0.87928   0.68798   0.18366   0.00000  Uiso   1.00
C583   C     0.83279   0.95746   0.16676   0.00000  Uiso   1.00
C584   C     0.83346   0.70927   0.16691   0.00000  Uiso   1.00
C585   C     0.82123   0.86878   0.02251   0.00000  Uiso   1.00
C586   C     0.84509   0.79783   0.31079   0.00000  Uiso   1.00
H587   H     0.81138   0.89712   0.03937   0.00000  Uiso   1.00
H588   H     0.85430   0.76941   0.29388   0.00000  Uiso   1.00
C589   C     0.82129   0.86877   0.30790   0.00000  Uiso   1.00
C590   C     0.84505   0.79782   0.02541   0.00000  Uiso   1.00
H591   H     0.81140   0.89710   0.28863   0.00000  Uiso   1.00
H592   H     0.85442   0.76939   0.04463   0.00000  Uiso   1.00
S593   S     0.98586   0.80604   0.09331   0.00000  Uiso   1.00
O594   O     0.95071   0.77047   0.09873   0.00000  Uiso   1.00
O595   O     0.95645   0.84037   0.06586   0.00000  Uiso   1.00
O596   O     0.69717   0.78814   0.06297   0.00000  Uiso   1.00
H597   H     0.67799   0.78032   0.03249   0.00000  Uiso   1.00
S598   S     0.68204   0.84587   0.24545   0.00000  Uiso   1.00
O599   O     0.71582   0.81018   0.26504   0.00000  Uiso   1.00
O600   O     0.71319   0.88489   0.24637   0.00000  Uiso   1.00
O601   O     0.97235   0.85411   0.28112   0.00000  Uiso   1.00
H602   H     0.99297   0.85920   0.31174   0.00000  Uiso   1.00
C603   C     0.73680   0.71355   0.14700   0.00000  Uiso   1.00
C604   C     0.72340   0.72415   0.19444   0.00000  Uiso   1.00
H605   H     0.71372   0.69533   0.21182   0.00000  Uiso   1.00
H606   H     0.75514   0.73931   0.21722   0.00000  Uiso   1.00
H607   H     0.69053   0.74613   0.19045   0.00000  Uiso   1.00
H608   H     0.74001   0.74261   0.12764   0.00000  Uiso   1.00
H609   H     0.70379   0.69707   0.12751   0.00000  Uiso   1.00
C610   C     0.92338   0.95319   0.21320   0.00000  Uiso   1.00
C611   C     0.91970   0.94830   0.26428   0.00000  Uiso   1.00
H612   H     0.90754   0.97798   0.27921   0.00000  Uiso   1.00
H613   H     0.89197   0.92387   0.26948   0.00000  Uiso   1.00
H614   H     0.95766   0.93895   0.28345   0.00000  Uiso   1.00
H615   H     0.92713   0.92196   0.19751   0.00000  Uiso   1.00
H616   H     0.96012   0.96812   0.21072   0.00000  Uiso   1.00
C617   C     0.74336   0.95651   0.11762   0.00000  Uiso   1.00
C618   C     0.70564   0.94087   0.14751   0.00000  Uiso   1.00
H619   H     0.67415   0.92384   0.12597   0.00000  Uiso   1.00
H620   H     0.72541   0.91944   0.17392   0.00000  Uiso   1.00
H621   H     0.68914   0.96733   0.16470   0.00000  Uiso   1.00
H622   H     0.72340   0.97678   0.08989   0.00000  Uiso   1.00
H623   H     0.75636   0.92983   0.09824   0.00000  Uiso   1.00
C624   C     0.92929   0.71180   0.19481   0.00000  Uiso   1.00
C625   C     0.94542   0.71952   0.24639   0.00000  Uiso   1.00
H626   H     0.91154   0.72400   0.26381   0.00000  Uiso   1.00
H627   H     0.96902   0.69318   0.26251   0.00000  Uiso   1.00
H628   H     0.96901   0.74811   0.25193   0.00000  Uiso   1.00
H629   H     0.95944   0.69523   0.17956   0.00000  Uiso   1.00
H630   H     0.92686   0.74247   0.17743   0.00000  Uiso   1.00
O631   O     0.16666   0.10558   0.53821   0.00000  Uiso   1.00
O632   O     0.16667   0.22775   0.46179   0.00000  Uiso   1.00
O633   O     0.16666   0.10559   0.46176   0.00000  Uiso   1.00
O634   O     0.16667   0.22774   0.53824   0.00000  Uiso   1.00
C635   C     0.16673   0.08680   0.49997   0.00000  Uiso   1.00
C636   C     0.16565   0.24660   0.49995   0.00000  Uiso   1.00
O637   O     0.09058   0.16666   0.52928   0.00000  Uiso   1.00
O638   O     0.24275   0.16667   0.47072   0.00000  Uiso   1.00
O639   O     0.09058   0.16667   0.45284   0.00000  Uiso   1.00
O640   O     0.24275   0.16666   0.54716   0.00000  Uiso   1.00
C641   C     0.06717   0.16558   0.48825   0.00000  Uiso   1.00
C642   C     0.26620   0.16566   0.51211   0.00000  Uiso   1.00
Zn643  Zn    0.16667   0.16666   0.55104   0.00000  Uiso   1.00
Zn644  Zn    0.16667   0.16667   0.44896   0.00000  Uiso   1.00
N645   N     0.16665   0.16666   0.61907   0.00000  Uiso   1.00
N646   N     0.16668   0.16668   0.38093   0.00000  Uiso   1.00
C647   C     0.01317   0.15970   0.48265   0.00000  Uiso   1.00
C648   C     0.32069   0.16661   0.51958   0.00000  Uiso   1.00
C649   C     0.12034   0.02228   0.48530   0.00000  Uiso   1.00
C650   C     0.21101   0.31117   0.52110   0.00000  Uiso   1.00
C651   C     0.12168   0.31243   0.47932   0.00000  Uiso   1.00
C652   C     0.21262   0.02131   0.51699   0.00000  Uiso   1.00
C653   C     0.16612   0.29080   0.50009   0.00000  Uiso   1.00
C654   C     0.16679   0.04260   0.50025   0.00000  Uiso   1.00
C655   C     0.15456   0.20211   0.35585   0.00000  Uiso   1.00
C656   C     0.17842   0.13117   0.64413   0.00000  Uiso   1.00
H657   H     0.14471   0.23045   0.37270   0.00000  Uiso   1.00
H658   H     0.18763   0.10275   0.62721   0.00000  Uiso   1.00
C659   C     0.15462   0.20211   0.64123   0.00000  Uiso   1.00
C660   C     0.17838   0.13115   0.35875   0.00000  Uiso   1.00
H661   H     0.14474   0.23043   0.62196   0.00000  Uiso   1.00
H662   H     0.18775   0.10272   0.37797   0.00000  Uiso   1.00
S663   S     0.31920   0.13938   0.42664   0.00000  Uiso   1.00
O664   O     0.28404   0.10381   0.43206   0.00000  Uiso   1.00
O665   O     0.28979   0.17370   0.39919   0.00000  Uiso   1.00
O666   O     0.03051   0.12148   0.39630   0.00000  Uiso   1.00
H667   H     0.01132   0.11365   0.36582   0.00000  Uiso   1.00
S668   S     0.01538   0.17920   0.57879   0.00000  Uiso   1.00
O669   O     0.04916   0.14351   0.59837   0.00000  Uiso   1.00
O670   O     0.04653   0.21822   0.57970   0.00000  Uiso   1.00
O671   O     0.30569   0.18744   0.61446   0.00000  Uiso   1.00
H672   H     0.32630   0.19253   0.64508   0.00000  Uiso   1.00
C673   C     0.07013   0.04688   0.48033   0.00000  Uiso   1.00
C674   C     0.05673   0.05748   0.52777   0.00000  Uiso   1.00
H675   H     0.04705   0.02866   0.54515   0.00000  Uiso   1.00
H676   H     0.08848   0.07264   0.55056   0.00000  Uiso   1.00
H677   H     0.02386   0.07947   0.52378   0.00000  Uiso   1.00
H678   H     0.07335   0.07595   0.46097   0.00000  Uiso   1.00
H679   H     0.03712   0.03041   0.46084   0.00000  Uiso   1.00
C680   C     0.25671   0.28652   0.54653   0.00000  Uiso   1.00
C681   C     0.25303   0.28164   0.59761   0.00000  Uiso   1.00
H682   H     0.24087   0.31131   0.61254   0.00000  Uiso   1.00
H683   H     0.22530   0.25721   0.60281   0.00000  Uiso   1.00
H684   H     0.29099   0.27228   0.61678   0.00000  Uiso   1.00
H685   H     0.26047   0.25529   0.53085   0.00000  Uiso   1.00
H686   H     0.29346   0.30145   0.54406   0.00000  Uiso   1.00
C687   C     0.07669   0.28984   0.45095   0.00000  Uiso   1.00
C688   C     0.03897   0.27420   0.48084   0.00000  Uiso   1.00
H689   H     0.00748   0.25717   0.45931   0.00000  Uiso   1.00
H690   H     0.05875   0.25277   0.50725   0.00000  Uiso   1.00
H691   H     0.02248   0.30067   0.49803   0.00000  Uiso   1.00
H692   H     0.05674   0.31012   0.42323   0.00000  Uiso   1.00
H693   H     0.08969   0.26316   0.43158   0.00000  Uiso   1.00
C694   C     0.26263   0.04513   0.52814   0.00000  Uiso   1.00
C695   C     0.27876   0.05286   0.57973   0.00000  Uiso   1.00
H696   H     0.24488   0.05733   0.59714   0.00000  Uiso   1.00
H697   H     0.30235   0.02651   0.59585   0.00000  Uiso   1.00
H698   H     0.30234   0.08144   0.58526   0.00000  Uiso   1.00
H699   H     0.29278   0.02857   0.51289   0.00000  Uiso   1.00
H700   H     0.26020   0.07580   0.51076   0.00000  Uiso   1.00
O701   O     0.50000   0.10558   0.53821   0.00000  Uiso   1.00
O702   O     0.50000   0.22775   0.46179   0.00000  Uiso   1.00
O703   O     0.50000   0.10559   0.46176   0.00000  Uiso   1.00
O704   O     0.50000   0.22774   0.53824   0.00000  Uiso   1.00
C705   C     0.50007   0.08680   0.49997   0.00000  Uiso   1.00
C706   C     0.49898   0.24660   0.49995   0.00000  Uiso   1.00
O707   O     0.42392   0.16666   0.52928   0.00000  Uiso   1.00
O708   O     0.57608   0.16667   0.47072   0.00000  Uiso   1.00
O709   O     0.42392   0.16667   0.45284   0.00000  Uiso   1.00
O710   O     0.57608   0.16666   0.54716   0.00000  Uiso   1.00
C711   C     0.40051   0.16558   0.48825   0.00000  Uiso   1.00
C712   C     0.59954   0.16566   0.51211   0.00000  Uiso   1.00
Zn713  Zn    0.50000   0.16666   0.55104   0.00000  Uiso   1.00
Zn714  Zn    0.50000   0.16667   0.44896   0.00000  Uiso   1.00
N715   N     0.49999   0.16666   0.61907   0.00000  Uiso   1.00
N716   N     0.50001   0.16668   0.38093   0.00000  Uiso   1.00
C717   C     0.34650   0.15970   0.48265   0.00000  Uiso   1.00
C718   C     0.65402   0.16661   0.51958   0.00000  Uiso   1.00
C719   C     0.45368   0.02228   0.48530   0.00000  Uiso   1.00
C720   C     0.54435   0.31117   0.52110   0.00000  Uiso   1.00
C721   C     0.45501   0.31243   0.47932   0.00000  Uiso   1.00
C722   C     0.54595   0.02131   0.51699   0.00000  Uiso   1.00
C723   C     0.49946   0.29080   0.50009   0.00000  Uiso   1.00
C724   C     0.50013   0.04260   0.50025   0.00000  Uiso   1.00
C725   C     0.48790   0.20211   0.35585   0.00000  Uiso   1.00
C726   C     0.51175   0.13117   0.64413   0.00000  Uiso   1.00
H727   H     0.47804   0.23045   0.37270   0.00000  Uiso   1.00
H728   H     0.52096   0.10275   0.62721   0.00000  Uiso   1.00
C729   C     0.48796   0.20211   0.64123   0.00000  Uiso   1.00
C730   C     0.51172   0.13115   0.35875   0.00000  Uiso   1.00
H731   H     0.47807   0.23043   0.62196   0.00000  Uiso   1.00
H732   H     0.52108   0.10272   0.37797   0.00000  Uiso   1.00
S733   S     0.65253   0.13938   0.42664   0.00000  Uiso   1.00
O734   O     0.61738   0.10381   0.43206   0.00000  Uiso   1.00
O735   O     0.62312   0.17370   0.39919   0.00000  Uiso   1.00
O736   O     0.36384   0.12148   0.39630   0.00000  Uiso   1.00
H737   H     0.34465   0.11365   0.36582   0.00000  Uiso   1.00
S738   S     0.34871   0.17920   0.57879   0.00000  Uiso   1.00
O739   O     0.38249   0.14351   0.59837   0.00000  Uiso   1.00
O740   O     0.37986   0.21822   0.57970   0.00000  Uiso   1.00
O741   O     0.63902   0.18744   0.61446   0.00000  Uiso   1.00
H742   H     0.65963   0.19253   0.64508   0.00000  Uiso   1.00
C743   C     0.40347   0.04688   0.48033   0.00000  Uiso   1.00
C744   C     0.39006   0.05748   0.52777   0.00000  Uiso   1.00
H745   H     0.38038   0.02866   0.54515   0.00000  Uiso   1.00
H746   H     0.42181   0.07264   0.55056   0.00000  Uiso   1.00
H747   H     0.35719   0.07947   0.52378   0.00000  Uiso   1.00
H748   H     0.40668   0.07595   0.46097   0.00000  Uiso   1.00
H749   H     0.37045   0.03041   0.46084   0.00000  Uiso   1.00
C750   C     0.59004   0.28652   0.54653   0.00000  Uiso   1.00
C751   C     0.58637   0.28164   0.59761   0.00000  Uiso   1.00
H752   H     0.57421   0.31131   0.61254   0.00000  Uiso   1.00
H753   H     0.55863   0.25721   0.60281   0.00000  Uiso   1.00
H754   H     0.62433   0.27228   0.61678   0.00000  Uiso   1.00
H755   H     0.59380   0.25529   0.53085   0.00000  Uiso   1.00
H756   H     0.62679   0.30145   0.54406   0.00000  Uiso   1.00
C757   C     0.41003   0.28984   0.45095   0.00000  Uiso   1.00
C758   C     0.37231   0.27420   0.48084   0.00000  Uiso   1.00
H759   H     0.34081   0.25717   0.45931   0.00000  Uiso   1.00
H760   H     0.39208   0.25277   0.50725   0.00000  Uiso   1.00
H761   H     0.35581   0.30067   0.49803   0.00000  Uiso   1.00
H762   H     0.39007   0.31012   0.42323   0.00000  Uiso   1.00
H763   H     0.42303   0.26316   0.43158   0.00000  Uiso   1.00
C764   C     0.59596   0.04513   0.52814   0.00000  Uiso   1.00
C765   C     0.61209   0.05286   0.57973   0.00000  Uiso   1.00
H766   H     0.57821   0.05733   0.59714   0.00000  Uiso   1.00
H767   H     0.63569   0.02651   0.59585   0.00000  Uiso   1.00
H768   H     0.63568   0.08144   0.58526   0.00000  Uiso   1.00
H769   H     0.62611   0.02857   0.51289   0.00000  Uiso   1.00
H770   H     0.59353   0.07580   0.51076   0.00000  Uiso   1.00
O771   O     0.83333   0.10558   0.53821   0.00000  Uiso   1.00
O772   O     0.83334   0.22775   0.46179   0.00000  Uiso   1.00
O773   O     0.83333   0.10559   0.46176   0.00000  Uiso   1.00
O774   O     0.83334   0.22774   0.53824   0.00000  Uiso   1.00
C775   C     0.83340   0.08680   0.49997   0.00000  Uiso   1.00
C776   C     0.83231   0.24660   0.49995   0.00000  Uiso   1.00
O777   O     0.75725   0.16666   0.52928   0.00000  Uiso   1.00
O778   O     0.90942   0.16667   0.47072   0.00000  Uiso   1.00
O779   O     0.75725   0.16667   0.45284   0.00000  Uiso   1.00
O780   O     0.90942   0.16666   0.54716   0.00000  Uiso   1.00
C781   C     0.73384   0.16558   0.48825   0.00000  Uiso   1.00
C782   C     0.93287   0.16566   0.51211   0.00000  Uiso   1.00
Zn783  Zn    0.83333   0.16666   0.55104   0.00000  Uiso   1.00
Zn784  Zn    0.83333   0.16667   0.44896   0.00000  Uiso   1.00
N785   N     0.83332   0.16666   0.61907   0.00000  Uiso   1.00
N786   N     0.83335   0.16668   0.38093   0.00000  Uiso   1.00
C787   C     0.67983   0.15970   0.48265   0.00000  Uiso   1.00
C788   C     0.98736   0.16661   0.51958   0.00000  Uiso   1.00
C789   C     0.78701   0.02228   0.48530   0.00000  Uiso   1.00
C790   C     0.87768   0.31117   0.52110   0.00000  Uiso   1.00
C791   C     0.78835   0.31243   0.47932   0.00000  Uiso   1.00
C792   C     0.87928   0.02131   0.51699   0.00000  Uiso   1.00
C793   C     0.83279   0.29080   0.50009   0.00000  Uiso   1.00
C794   C     0.83346   0.04260   0.50025   0.00000  Uiso   1.00
C795   C     0.82123   0.20211   0.35585   0.00000  Uiso   1.00
C796   C     0.84509   0.13117   0.64413   0.00000  Uiso   1.00
H797   H     0.81138   0.23045   0.37270   0.00000  Uiso   1.00
H798   H     0.85430   0.10275   0.62721   0.00000  Uiso   1.00
C799   C     0.82129   0.20211   0.64123   0.00000  Uiso   1.00
C800   C     0.84505   0.13115   0.35875   0.00000  Uiso   1.00
H801   H     0.81140   0.23043   0.62196   0.00000  Uiso   1.00
H802   H     0.85442   0.10272   0.37797   0.00000  Uiso   1.00
S803   S     0.98586   0.13938   0.42664   0.00000  Uiso   1.00
O804   O     0.95071   0.10381   0.43206   0.00000  Uiso   1.00
O805   O     0.95645   0.17370   0.39919   0.00000  Uiso   1.00
O806   O     0.69717   0.12148   0.39630   0.00000  Uiso   1.00
H807   H     0.67799   0.11365   0.36582   0.00000  Uiso   1.00
S808   S     0.68204   0.17920   0.57879   0.00000  Uiso   1.00
O809   O     0.71582   0.14351   0.59837   0.00000  Uiso   1.00
O810   O     0.71319   0.21822   0.57970   0.00000  Uiso   1.00
O811   O     0.97235   0.18744   0.61446   0.00000  Uiso   1.00
H812   H     0.99297   0.19253   0.64508   0.00000  Uiso   1.00
C813   C     0.73680   0.04688   0.48033   0.00000  Uiso   1.00
C814   C     0.72340   0.05748   0.52777   0.00000  Uiso   1.00
H815   H     0.71372   0.02866   0.54515   0.00000  Uiso   1.00
H816   H     0.75514   0.07264   0.55056   0.00000  Uiso   1.00
H817   H     0.69053   0.07947   0.52378   0.00000  Uiso   1.00
H818   H     0.74001   0.07595   0.46097   0.00000  Uiso   1.00
H819   H     0.70379   0.03041   0.46084   0.00000  Uiso   1.00
C820   C     0.92338   0.28652   0.54653   0.00000  Uiso   1.00
C821   C     0.91970   0.28164   0.59761   0.00000  Uiso   1.00
H822   H     0.90754   0.31131   0.61254   0.00000  Uiso   1.00
H823   H     0.89197   0.25721   0.60281   0.00000  Uiso   1.00
H824   H     0.95766   0.27228   0.61678   0.00000  Uiso   1.00
H825   H     0.92713   0.25529   0.53085   0.00000  Uiso   1.00
H826   H     0.96012   0.30145   0.54406   0.00000  Uiso   1.00
C827   C     0.74336   0.28984   0.45095   0.00000  Uiso   1.00
C828   C     0.70564   0.27420   0.48084   0.00000  Uiso   1.00
H829   H     0.67415   0.25717   0.45931   0.00000  Uiso   1.00
H830   H     0.72541   0.25277   0.50725   0.00000  Uiso   1.00
H831   H     0.68914   0.30067   0.49803   0.00000  Uiso   1.00
H832   H     0.72340   0.31012   0.42323   0.00000  Uiso   1.00
H833   H     0.75636   0.26316   0.43158   0.00000  Uiso   1.00
C834   C     0.92929   0.04513   0.52814   0.00000  Uiso   1.00
C835   C     0.94542   0.05286   0.57973   0.00000  Uiso   1.00
H836   H     0.91154   0.05733   0.59714   0.00000  Uiso   1.00
H837   H     0.96902   0.02651   0.59585   0.00000  Uiso   1.00
H838   H     0.96901   0.08144   0.58526   0.00000  Uiso   1.00
H839   H     0.95944   0.02857   0.51289   0.00000  Uiso   1.00
H840   H     0.92686   0.07580   0.51076   0.00000  Uiso   1.00
O841   O     0.16666   0.43892   0.53821   0.00000  Uiso   1.00
O842   O     0.16667   0.56108   0.46179   0.00000  Uiso   1.00
O843   O     0.16666   0.43893   0.46176   0.00000  Uiso   1.00
O844   O     0.16667   0.56107   0.53824   0.00000  Uiso   1.00
C845   C     0.16673   0.42014   0.49997   0.00000  Uiso   1.00
C846   C     0.16565   0.57993   0.49995   0.00000  Uiso   1.00
O847   O     0.09058   0.50000   0.52928   0.00000  Uiso   1.00
O848   O     0.24275   0.50000   0.47072   0.00000  Uiso   1.00
O849   O     0.09058   0.50000   0.45284   0.00000  Uiso   1.00
O850   O     0.24275   0.50000   0.54716   0.00000  Uiso   1.00
C851   C     0.06717   0.49891   0.48825   0.00000  Uiso   1.00
C852   C     0.26620   0.49899   0.51211   0.00000  Uiso   1.00
Zn853  Zn    0.16667   0.49999   0.55104   0.00000  Uiso   1.00
Zn854  Zn    0.16667   0.50001   0.44896   0.00000  Uiso   1.00
N855   N     0.16665   0.49999   0.61907   0.00000  Uiso   1.00
N856   N     0.16668   0.50001   0.38093   0.00000  Uiso   1.00
C857   C     0.01317   0.49304   0.48265   0.00000  Uiso   1.00
C858   C     0.32069   0.49994   0.51958   0.00000  Uiso   1.00
C859   C     0.12034   0.35562   0.48530   0.00000  Uiso   1.00
C860   C     0.21101   0.64450   0.52110   0.00000  Uiso   1.00
C861   C     0.12168   0.64577   0.47932   0.00000  Uiso   1.00
C862   C     0.21262   0.35464   0.51699   0.00000  Uiso   1.00
C863   C     0.16612   0.62413   0.50009   0.00000  Uiso   1.00
C864   C     0.16679   0.37593   0.50025   0.00000  Uiso   1.00
C865   C     0.15456   0.53544   0.35585   0.00000  Uiso   1.00
C866   C     0.17842   0.46450   0.64413   0.00000  Uiso   1.00
H867   H     0.14471   0.56378   0.37270   0.00000  Uiso   1.00
H868   H     0.18763   0.43608   0.62721   0.00000  Uiso   1.00
C869   C     0.15462   0.53544   0.64123   0.00000  Uiso   1.00
C870   C     0.17838   0.46449   0.35875   0.00000  Uiso   1.00
H871   H     0.14474   0.56376   0.62196   0.00000  Uiso   1.00
H872   H     0.18775   0.43605   0.37797   0.00000  Uiso   1.00
S873   S     0.31920   0.47271   0.42664   0.00000  Uiso   1.00
O874   O     0.28404   0.43714   0.43206   0.00000  Uiso   1.00
O875   O     0.28979   0.50704   0.39919   0.00000  Uiso   1.00
O876   O     0.03051   0.45481   0.39630   0.00000  Uiso   1.00
H877   H     0.01132   0.44699   0.36582   0.00000  Uiso   1.00
S878   S     0.01538   0.51254   0.57879   0.00000  Uiso   1.00
O879   O     0.04916   0.47684   0.59837   0.00000  Uiso   1.00
O880   O     0.04653   0.55156   0.57970   0.00000  Uiso   1.00
O881   O     0.30569   0.52078   0.61446   0.00000  Uiso   1.00
H882   H     0.32630   0.52586   0.64508   0.00000  Uiso   1.00
C883   C     0.07013   0.38021   0.48033   0.00000  Uiso   1.00
C884   C     0.05673   0.39082   0.52777   0.00000  Uiso   1.00
H885   H     0.04705   0.36200   0.54515   0.00000  Uiso   1.00
H886   H     0.08848   0.40598   0.55056   0.00000  Uiso   1.00
H887   H     0.02386   0.41280   0.52378   0.00000  Uiso   1.00
H888   H     0.07335   0.40928   0.46097   0.00000  Uiso   1.00
H889   H     0.03712   0.36374   0.46084   0.00000  Uiso   1.00
C890   C     0.25671   0.61985   0.54653   0.00000  Uiso   1.00
C891   C     0.25303   0.61497   0.59761   0.00000  Uiso   1.00
H892   H     0.24087   0.64465   0.61254   0.00000  Uiso   1.00
H893   H     0.22530   0.59054   0.60281   0.00000  Uiso   1.00
H894   H     0.29099   0.60562   0.61678   0.00000  Uiso   1.00
H895   H     0.26047   0.58863   0.53085   0.00000  Uiso   1.00
H896   H     0.29346   0.63478   0.54406   0.00000  Uiso   1.00
C897   C     0.07669   0.62317   0.45095   0.00000  Uiso   1.00
C898   C     0.03897   0.60754   0.48084   0.00000  Uiso   1.00
H899   H     0.00748   0.59050   0.45931   0.00000  Uiso   1.00
H900   H     0.05875   0.58610   0.50725   0.00000  Uiso   1.00
H901   H     0.02248   0.63400   0.49803   0.00000  Uiso   1.00
H902   H     0.05674   0.64345   0.42323   0.00000  Uiso   1.00
H903   H     0.08969   0.59650   0.43158   0.00000  Uiso   1.00
C904   C     0.26263   0.37846   0.52814   0.00000  Uiso   1.00
C905   C     0.27876   0.38619   0.57973   0.00000  Uiso   1.00
H906   H     0.24488   0.39067   0.59714   0.00000  Uiso   1.00
H907   H     0.30235   0.35985   0.59585   0.00000  Uiso   1.00
H908   H     0.30234   0.41478   0.58526   0.00000  Uiso   1.00
H909   H     0.29278   0.36190   0.51289   0.00000  Uiso   1.00
H910   H     0.26020   0.40913   0.51076   0.00000  Uiso   1.00
O911   O     0.50000   0.43892   0.53821   0.00000  Uiso   1.00
O912   O     0.50000   0.56108   0.46179   0.00000  Uiso   1.00
O913   O     0.50000   0.43893   0.46176   0.00000  Uiso   1.00
O914   O     0.50000   0.56107   0.53824   0.00000  Uiso   1.00
C915   C     0.50007   0.42014   0.49997   0.00000  Uiso   1.00
C916   C     0.49898   0.57993   0.49995   0.00000  Uiso   1.00
O917   O     0.42392   0.50000   0.52928   0.00000  Uiso   1.00
O918   O     0.57608   0.50000   0.47072   0.00000  Uiso   1.00
O919   O     0.42392   0.50000   0.45284   0.00000  Uiso   1.00
O920   O     0.57608   0.50000   0.54716   0.00000  Uiso   1.00
C921   C     0.40051   0.49891   0.48825   0.00000  Uiso   1.00
C922   C     0.59954   0.49899   0.51211   0.00000  Uiso   1.00
Zn923  Zn    0.50000   0.49999   0.55104   0.00000  Uiso   1.00
Zn924  Zn    0.50000   0.50001   0.44896   0.00000  Uiso   1.00
N925   N     0.49999   0.49999   0.61907   0.00000  Uiso   1.00
N926   N     0.50001   0.50001   0.38093   0.00000  Uiso   1.00
C927   C     0.34650   0.49304   0.48265   0.00000  Uiso   1.00
C928   C     0.65402   0.49994   0.51958   0.00000  Uiso   1.00
C929   C     0.45368   0.35562   0.48530   0.00000  Uiso   1.00
C930   C     0.54435   0.64450   0.52110   0.00000  Uiso   1.00
C931   C     0.45501   0.64577   0.47932   0.00000  Uiso   1.00
C932   C     0.54595   0.35464   0.51699   0.00000  Uiso   1.00
C933   C     0.49946   0.62413   0.50009   0.00000  Uiso   1.00
C934   C     0.50013   0.37593   0.50025   0.00000  Uiso   1.00
C935   C     0.48790   0.53544   0.35585   0.00000  Uiso   1.00
C936   C     0.51175   0.46450   0.64413   0.00000  Uiso   1.00
H937   H     0.47804   0.56378   0.37270   0.00000  Uiso   1.00
H938   H     0.52096   0.43608   0.62721   0.00000  Uiso   1.00
C939   C     0.48796   0.53544   0.64123   0.00000  Uiso   1.00
C940   C     0.51172   0.46449   0.35875   0.00000  Uiso   1.00
H941   H     0.47807   0.56376   0.62196   0.00000  Uiso   1.00
H942   H     0.52108   0.43605   0.37797   0.00000  Uiso   1.00
S943   S     0.65253   0.47271   0.42664   0.00000  Uiso   1.00
O944   O     0.61738   0.43714   0.43206   0.00000  Uiso   1.00
O945   O     0.62312   0.50704   0.39919   0.00000  Uiso   1.00
O946   O     0.36384   0.45481   0.39630   0.00000  Uiso   1.00
H947   H     0.34465   0.44699   0.36582   0.00000  Uiso   1.00
S948   S     0.34871   0.51254   0.57879   0.00000  Uiso   1.00
O949   O     0.38249   0.47684   0.59837   0.00000  Uiso   1.00
O950   O     0.37986   0.55156   0.57970   0.00000  Uiso   1.00
O951   O     0.63902   0.52078   0.61446   0.00000  Uiso   1.00
H952   H     0.65963   0.52586   0.64508   0.00000  Uiso   1.00
C953   C     0.40347   0.38021   0.48033   0.00000  Uiso   1.00
C954   C     0.39006   0.39082   0.52777   0.00000  Uiso   1.00
H955   H     0.38038   0.36200   0.54515   0.00000  Uiso   1.00
H956   H     0.42181   0.40598   0.55056   0.00000  Uiso   1.00
H957   H     0.35719   0.41280   0.52378   0.00000  Uiso   1.00
H958   H     0.40668   0.40928   0.46097   0.00000  Uiso   1.00
H959   H     0.37045   0.36374   0.46084   0.00000  Uiso   1.00
C960   C     0.59004   0.61985   0.54653   0.00000  Uiso   1.00
C961   C     0.58637   0.61497   0.59761   0.00000  Uiso   1.00
H962   H     0.57421   0.64465   0.61254   0.00000  Uiso   1.00
H963   H     0.55863   0.59054   0.60281   0.00000  Uiso   1.00
H964   H     0.62433   0.60562   0.61678   0.00000  Uiso   1.00
H965   H     0.59380   0.58863   0.53085   0.00000  Uiso   1.00
H966   H     0.62679   0.63478   0.54406   0.00000  Uiso   1.00
C967   C     0.41003   0.62317   0.45095   0.00000  Uiso   1.00
C968   C     0.37231   0.60754   0.48084   0.00000  Uiso   1.00
H969   H     0.34081   0.59050   0.45931   0.00000  Uiso   1.00
H970   H     0.39208   0.58610   0.50725   0.00000  Uiso   1.00
H971   H     0.35581   0.63400   0.49803   0.00000  Uiso   1.00
H972   H     0.39007   0.64345   0.42323   0.00000  Uiso   1.00
H973   H     0.42303   0.59650   0.43158   0.00000  Uiso   1.00
C974   C     0.59596   0.37846   0.52814   0.00000  Uiso   1.00
C975   C     0.61209   0.38619   0.57973   0.00000  Uiso   1.00
H976   H     0.57821   0.39067   0.59714   0.00000  Uiso   1.00
H977   H     0.63569   0.35985   0.59585   0.00000  Uiso   1.00
H978   H     0.63568   0.41478   0.58526   0.00000  Uiso   1.00
H979   H     0.62611   0.36190   0.51289   0.00000  Uiso   1.00
H980   H     0.59353   0.40913   0.51076   0.00000  Uiso   1.00
O981   O     0.83333   0.43892   0.53821   0.00000  Uiso   1.00
O982   O     0.83334   0.56108   0.46179   0.00000  Uiso   1.00
O983   O     0.83333   0.43893   0.46176   0.00000  Uiso   1.00
O984   O     0.83334   0.56107   0.53824   0.00000  Uiso   1.00
C985   C     0.83340   0.42014   0.49997   0.00000  Uiso   1.00
C986   C     0.83231   0.57993   0.49995   0.00000  Uiso   1.00
O987   O     0.75725   0.50000   0.52928   0.00000  Uiso   1.00
O988   O     0.90942   0.50000   0.47072   0.00000  Uiso   1.00
O989   O     0.75725   0.50000   0.45284   0.00000  Uiso   1.00
O990   O     0.90942   0.50000   0.54716   0.00000  Uiso   1.00
C991   C     0.73384   0.49891   0.48825   0.00000  Uiso   1.00
C992   C     0.93287   0.49899   0.51211   0.00000  Uiso   1.00
Zn993  Zn    0.83333   0.49999   0.55104   0.00000  Uiso   1.00
Zn994  Zn    0.83333   0.50001   0.44896   0.00000  Uiso   1.00
N995   N     0.83332   0.49999   0.61907   0.00000  Uiso   1.00
N996   N     0.83335   0.50001   0.38093   0.00000  Uiso   1.00
C997   C     0.67983   0.49304   0.48265   0.00000  Uiso   1.00
C998   C     0.98736   0.49994   0.51958   0.00000  Uiso   1.00
C999   C     0.78701   0.35562   0.48530   0.00000  Uiso   1.00
C1000  C     0.87768   0.64450   0.52110   0.00000  Uiso   1.00
C1001  C     0.78835   0.64577   0.47932   0.00000  Uiso   1.00
C1002  C     0.87928   0.35464   0.51699   0.00000  Uiso   1.00
C1003  C     0.83279   0.62413   0.50009   0.00000  Uiso   1.00
C1004  C     0.83346   0.37593   0.50025   0.00000  Uiso   1.00
C1005  C     0.82123   0.53544   0.35585   0.00000  Uiso   1.00
C1006  C     0.84509   0.46450   0.64413   0.00000  Uiso   1.00
H1007  H     0.81138   0.56378   0.37270   0.00000  Uiso   1.00
H1008  H     0.85430   0.43608   0.62721   0.00000  Uiso   1.00
C1009  C     0.82129   0.53544   0.64123   0.00000  Uiso   1.00
C1010  C     0.84505   0.46449   0.35875   0.00000  Uiso   1.00
H1011  H     0.81140   0.56376   0.62196   0.00000  Uiso   1.00
H1012  H     0.85442   0.43605   0.37797   0.00000  Uiso   1.00
S1013  S     0.98586   0.47271   0.42664   0.00000  Uiso   1.00
O1014  O     0.95071   0.43714   0.43206   0.00000  Uiso   1.00
O1015  O     0.95645   0.50704   0.39919   0.00000  Uiso   1.00
O1016  O     0.69717   0.45481   0.39630   0.00000  Uiso   1.00
H1017  H     0.67799   0.44699   0.36582   0.00000  Uiso   1.00
S1018  S     0.68204   0.51254   0.57879   0.00000  Uiso   1.00
O1019  O     0.71582   0.47684   0.59837   0.00000  Uiso   1.00
O1020  O     0.71319   0.55156   0.57970   0.00000  Uiso   1.00
O1021  O     0.97235   0.52078   0.61446   0.00000  Uiso   1.00
H1022  H     0.99297   0.52586   0.64508   0.00000  Uiso   1.00
C1023  C     0.73680   0.38021   0.48033   0.00000  Uiso   1.00
C1024  C     0.72340   0.39082   0.52777   0.00000  Uiso   1.00
H1025  H     0.71372   0.36200   0.54515   0.00000  Uiso   1.00
H1026  H     0.75514   0.40598   0.55056   0.00000  Uiso   1.00
H1027  H     0.69053   0.41280   0.52378   0.00000  Uiso   1.00
H1028  H     0.74001   0.40928   0.46097   0.00000  Uiso   1.00
H1029  H     0.70379   0.36374   0.46084   0.00000  Uiso   1.00
C1030  C     0.92338   0.61985   0.54653   0.00000  Uiso   1.00
C1031  C     0.91970   0.61497   0.59761   0.00000  Uiso   1.00
H1032  H     0.90754   0.64465   0.61254   0.00000  Uiso   1.00
H1033  H     0.89197   0.59054   0.60281   0.00000  Uiso   1.00
H1034  H     0.95766   0.60562   0.61678   0.00000  Uiso   1.00
H1035  H     0.92713   0.58863   0.53085   0.00000  Uiso   1.00
H1036  H     0.96012   0.63478   0.54406   0.00000  Uiso   1.00
C1037  C     0.74336   0.62317   0.45095   0.00000  Uiso   1.00
C1038  C     0.70564   0.60754   0.48084   0.00000  Uiso   1.00
H1039  H     0.67415   0.59050   0.45931   0.00000  Uiso   1.00
H1040  H     0.72541   0.58610   0.50725   0.00000  Uiso   1.00
H1041  H     0.68914   0.63400   0.49803   0.00000  Uiso   1.00
H1042  H     0.72340   0.64345   0.42323   0.00000  Uiso   1.00
H1043  H     0.75636   0.59650   0.43158   0.00000  Uiso   1.00
C1044  C     0.92929   0.37846   0.52814   0.00000  Uiso   1.00
C1045  C     0.94542   0.38619   0.57973   0.00000  Uiso   1.00
H1046  H     0.91154   0.39067   0.59714   0.00000  Uiso   1.00
H1047  H     0.96902   0.35985   0.59585   0.00000  Uiso   1.00
H1048  H     0.96901   0.41478   0.58526   0.00000  Uiso   1.00
H1049  H     0.95944   0.36190   0.51289   0.00000  Uiso   1.00
H1050  H     0.92686   0.40913   0.51076   0.00000  Uiso   1.00
O1051  O     0.16666   0.77225   0.53821   0.00000  Uiso   1.00
O1052  O     0.16667   0.89442   0.46179   0.00000  Uiso   1.00
O1053  O     0.16666   0.77226   0.46176   0.00000  Uiso   1.00
O1054  O     0.16667   0.89441   0.53824   0.00000  Uiso   1.00
C1055  C     0.16673   0.75347   0.49997   0.00000  Uiso   1.00
C1056  C     0.16565   0.91326   0.49995   0.00000  Uiso   1.00
O1057  O     0.09058   0.83333   0.52928   0.00000  Uiso   1.00
O1058  O     0.24275   0.83334   0.47072   0.00000  Uiso   1.00
O1059  O     0.09058   0.83334   0.45284   0.00000  Uiso   1.00
O1060  O     0.24275   0.83333   0.54716   0.00000  Uiso   1.00
C1061  C     0.06717   0.83224   0.48825   0.00000  Uiso   1.00
C1062  C     0.26620   0.83232   0.51211   0.00000  Uiso   1.00
Zn1063 Zn    0.16667   0.83333   0.55104   0.00000  Uiso   1.00
Zn1064 Zn    0.16667   0.83334   0.44896   0.00000  Uiso   1.00
N1065  N     0.16665   0.83332   0.61907   0.00000  Uiso   1.00
N1066  N     0.16668   0.83334   0.38093   0.00000  Uiso   1.00
C1067  C     0.01317   0.82637   0.48265   0.00000  Uiso   1.00
C1068  C     0.32069   0.83328   0.51958   0.00000  Uiso   1.00
C1069  C     0.12034   0.68895   0.48530   0.00000  Uiso   1.00
C1070  C     0.21101   0.97784   0.52110   0.00000  Uiso   1.00
C1071  C     0.12168   0.97910   0.47932   0.00000  Uiso   1.00
C1072  C     0.21262   0.68798   0.51699   0.00000  Uiso   1.00
C1073  C     0.16612   0.95746   0.50009   0.00000  Uiso   1.00
C1074  C     0.16679   0.70927   0.50025   0.00000  Uiso   1.00
C1075  C     0.15456   0.86878   0.35585   0.00000  Uiso   1.00
C1076  C     0.17842   0.79783   0.64413   0.00000  Uiso   1.00
H1077  H     0.14471   0.89712   0.37270   0.00000  Uiso   1.00
H1078  H     0.18763   0.76941   0.62721   0.00000  Uiso   1.00
C1079  C     0.15462   0.86877   0.64123   0.00000  Uiso   1.00
C1080  C     0.17838   0.79782   0.35875   0.00000  Uiso   1.00
H1081  H     0.14474   0.89710   0.62196   0.00000  Uiso   1.00
H1082  H     0.18775   0.76939   0.37797   0.00000  Uiso   1.00
S1083  S     0.31920   0.80604   0.42664   0.00000  Uiso   1.00
O1084  O     0.28404   0.77047   0.43206   0.00000  Uiso   1.00
O1085  O     0.28979   0.84037   0.39919   0.00000  Uiso   1.00
O1086  O     0.03051   0.78814   0.39630   0.00000  Uiso   1.00
H1087  H     0.01132   0.78032   0.36582   0.00000  Uiso   1.00
S1088  S     0.01538   0.84587   0.57879   0.00000  Uiso   1.00
O1089  O     0.04916   0.81018   0.59837   0.00000  Uiso   1.00
O1090  O     0.04653   0.88489   0.57970   0.00000  Uiso   1.00
O1091  O     0.30569   0.85411   0.61446   0.00000  Uiso   1.00
H1092  H     0.32630   0.85920   0.64508   0.00000  Uiso   1.00
C1093  C     0.07013   0.71355   0.48033   0.00000  Uiso   1.00
C1094  C     0.05673   0.72415   0.52777   0.00000  Uiso   1.00
H1095  H     0.04705   0.69533   0.54515   0.00000  Uiso   1.00
H1096  H     0.08848   0.73931   0.55056   0.00000  Uiso   1.00
H1097  H     0.02386   0.74613   0.52378   0.00000  Uiso   1.00
H1098  H     0.07335   0.74261   0.46097   0.00000  Uiso   1.00
H1099  H     0.03712   0.69707   0.46084   0.00000  Uiso   1.00
C1100  C     0.25671   0.95319   0.54653   0.00000  Uiso   1.00
C1101  C     0.25303   0.94830   0.59761   0.00000  Uiso   1.00
H1102  H     0.24087   0.97798   0.61254   0.00000  Uiso   1.00
H1103  H     0.22530   0.92387   0.60281   0.00000  Uiso   1.00
H1104  H     0.29099   0.93895   0.61678   0.00000  Uiso   1.00
H1105  H     0.26047   0.92196   0.53085   0.00000  Uiso   1.00
H1106  H     0.29346   0.96812   0.54406   0.00000  Uiso   1.00
C1107  C     0.07669   0.95651   0.45095   0.00000  Uiso   1.00
C1108  C     0.03897   0.94087   0.48084   0.00000  Uiso   1.00
H1109  H     0.00748   0.92384   0.45931   0.00000  Uiso   1.00
H1110  H     0.05875   0.91944   0.50725   0.00000  Uiso   1.00
H1111  H     0.02248   0.96733   0.49803   0.00000  Uiso   1.00
H1112  H     0.05674   0.97678   0.42323   0.00000  Uiso   1.00
H1113  H     0.08969   0.92983   0.43158   0.00000  Uiso   1.00
C1114  C     0.26263   0.71180   0.52814   0.00000  Uiso   1.00
C1115  C     0.27876   0.71952   0.57973   0.00000  Uiso   1.00
H1116  H     0.24488   0.72400   0.59714   0.00000  Uiso   1.00
H1117  H     0.30235   0.69318   0.59585   0.00000  Uiso   1.00
H1118  H     0.30234   0.74811   0.58526   0.00000  Uiso   1.00
H1119  H     0.29278   0.69523   0.51289   0.00000  Uiso   1.00
H1120  H     0.26020   0.74247   0.51076   0.00000  Uiso   1.00
O1121  O     0.50000   0.77225   0.53821   0.00000  Uiso   1.00
O1122  O     0.50000   0.89442   0.46179   0.00000  Uiso   1.00
O1123  O     0.50000   0.77226   0.46176   0.00000  Uiso   1.00
O1124  O     0.50000   0.89441   0.53824   0.00000  Uiso   1.00
C1125  C     0.50007   0.75347   0.49997   0.00000  Uiso   1.00
C1126  C     0.49898   0.91326   0.49995   0.00000  Uiso   1.00
O1127  O     0.42392   0.83333   0.52928   0.00000  Uiso   1.00
O1128  O     0.57608   0.83334   0.47072   0.00000  Uiso   1.00
O1129  O     0.42392   0.83334   0.45284   0.00000  Uiso   1.00
O1130  O     0.57608   0.83333   0.54716   0.00000  Uiso   1.00
C1131  C     0.40051   0.83224   0.48825   0.00000  Uiso   1.00
C1132  C     0.59954   0.83232   0.51211   0.00000  Uiso   1.00
Zn1133 Zn    0.50000   0.83333   0.55104   0.00000  Uiso   1.00
Zn1134 Zn    0.50000   0.83334   0.44896   0.00000  Uiso   1.00
N1135  N     0.49999   0.83332   0.61907   0.00000  Uiso   1.00
N1136  N     0.50001   0.83334   0.38093   0.00000  Uiso   1.00
C1137  C     0.34650   0.82637   0.48265   0.00000  Uiso   1.00
C1138  C     0.65402   0.83328   0.51958   0.00000  Uiso   1.00
C1139  C     0.45368   0.68895   0.48530   0.00000  Uiso   1.00
C1140  C     0.54435   0.97784   0.52110   0.00000  Uiso   1.00
C1141  C     0.45501   0.97910   0.47932   0.00000  Uiso   1.00
C1142  C     0.54595   0.68798   0.51699   0.00000  Uiso   1.00
C1143  C     0.49946   0.95746   0.50009   0.00000  Uiso   1.00
C1144  C     0.50013   0.70927   0.50025   0.00000  Uiso   1.00
C1145  C     0.48790   0.86878   0.35585   0.00000  Uiso   1.00
C1146  C     0.51175   0.79783   0.64413   0.00000  Uiso   1.00
H1147  H     0.47804   0.89712   0.37270   0.00000  Uiso   1.00
H1148  H     0.52096   0.76941   0.62721   0.00000  Uiso   1.00
C1149  C     0.48796   0.86877   0.64123   0.00000  Uiso   1.00
C1150  C     0.51172   0.79782   0.35875   0.00000  Uiso   1.00
H1151  H     0.47807   0.89710   0.62196   0.00000  Uiso   1.00
H1152  H     0.52108   0.76939   0.37797   0.00000  Uiso   1.00
S1153  S     0.65253   0.80604   0.42664   0.00000  Uiso   1.00
O1154  O     0.61738   0.77047   0.43206   0.00000  Uiso   1.00
O1155  O     0.62312   0.84037   0.39919   0.00000  Uiso   1.00
O1156  O     0.36384   0.78814   0.39630   0.00000  Uiso   1.00
H1157  H     0.34465   0.78032   0.36582   0.00000  Uiso   1.00
S1158  S     0.34871   0.84587   0.57879   0.00000  Uiso   1.00
O1159  O     0.38249   0.81018   0.59837   0.00000  Uiso   1.00
O1160  O     0.37986   0.88489   0.57970   0.00000  Uiso   1.00
O1161  O     0.63902   0.85411   0.61446   0.00000  Uiso   1.00
H1162  H     0.65963   0.85920   0.64508   0.00000  Uiso   1.00
C1163  C     0.40347   0.71355   0.48033   0.00000  Uiso   1.00
C1164  C     0.39006   0.72415   0.52777   0.00000  Uiso   1.00
H1165  H     0.38038   0.69533   0.54515   0.00000  Uiso   1.00
H1166  H     0.42181   0.73931   0.55056   0.00000  Uiso   1.00
H1167  H     0.35719   0.74613   0.52378   0.00000  Uiso   1.00
H1168  H     0.40668   0.74261   0.46097   0.00000  Uiso   1.00
H1169  H     0.37045   0.69707   0.46084   0.00000  Uiso   1.00
C1170  C     0.59004   0.95319   0.54653   0.00000  Uiso   1.00
C1171  C     0.58637   0.94830   0.59761   0.00000  Uiso   1.00
H1172  H     0.57421   0.97798   0.61254   0.00000  Uiso   1.00
H1173  H     0.55863   0.92387   0.60281   0.00000  Uiso   1.00
H1174  H     0.62433   0.93895   0.61678   0.00000  Uiso   1.00
H1175  H     0.59380   0.92196   0.53085   0.00000  Uiso   1.00
H1176  H     0.62679   0.96812   0.54406   0.00000  Uiso   1.00
C1177  C     0.41003   0.95651   0.45095   0.00000  Uiso   1.00
C1178  C     0.37231   0.94087   0.48084   0.00000  Uiso   1.00
H1179  H     0.34081   0.92384   0.45931   0.00000  Uiso   1.00
H1180  H     0.39208   0.91944   0.50725   0.00000  Uiso   1.00
H1181  H     0.35581   0.96733   0.49803   0.00000  Uiso   1.00
H1182  H     0.39007   0.97678   0.42323   0.00000  Uiso   1.00
H1183  H     0.42303   0.92983   0.43158   0.00000  Uiso   1.00
C1184  C     0.59596   0.71180   0.52814   0.00000  Uiso   1.00
C1185  C     0.61209   0.71952   0.57973   0.00000  Uiso   1.00
H1186  H     0.57821   0.72400   0.59714   0.00000  Uiso   1.00
H1187  H     0.63569   0.69318   0.59585   0.00000  Uiso   1.00
H1188  H     0.63568   0.74811   0.58526   0.00000  Uiso   1.00
H1189  H     0.62611   0.69523   0.51289   0.00000  Uiso   1.00
H1190  H     0.59353   0.74247   0.51076   0.00000  Uiso   1.00
O1191  O     0.83333   0.77225   0.53821   0.00000  Uiso   1.00
O1192  O     0.83334   0.89442   0.46179   0.00000  Uiso   1.00
O1193  O     0.83333   0.77226   0.46176   0.00000  Uiso   1.00
O1194  O     0.83334   0.89441   0.53824   0.00000  Uiso   1.00
C1195  C     0.83340   0.75347   0.49997   0.00000  Uiso   1.00
C1196  C     0.83231   0.91326   0.49995   0.00000  Uiso   1.00
O1197  O     0.75725   0.83333   0.52928   0.00000  Uiso   1.00
O1198  O     0.90942   0.83334   0.47072   0.00000  Uiso   1.00
O1199  O     0.75725   0.83334   0.45284   0.00000  Uiso   1.00
O1200  O     0.90942   0.83333   0.54716   0.00000  Uiso   1.00
C1201  C     0.73384   0.83224   0.48825   0.00000  Uiso   1.00
C1202  C     0.93287   0.83232   0.51211   0.00000  Uiso   1.00
Zn1203 Zn    0.83333   0.83333   0.55104   0.00000  Uiso   1.00
Zn1204 Zn    0.83333   0.83334   0.44896   0.00000  Uiso   1.00
N1205  N     0.83332   0.83332   0.61907   0.00000  Uiso   1.00
N1206  N     0.83335   0.83334   0.38093   0.00000  Uiso   1.00
C1207  C     0.67983   0.82637   0.48265   0.00000  Uiso   1.00
C1208  C     0.98736   0.83328   0.51958   0.00000  Uiso   1.00
C1209  C     0.78701   0.68895   0.48530   0.00000  Uiso   1.00
C1210  C     0.87768   0.97784   0.52110   0.00000  Uiso   1.00
C1211  C     0.78835   0.97910   0.47932   0.00000  Uiso   1.00
C1212  C     0.87928   0.68798   0.51699   0.00000  Uiso   1.00
C1213  C     0.83279   0.95746   0.50009   0.00000  Uiso   1.00
C1214  C     0.83346   0.70927   0.50025   0.00000  Uiso   1.00
C1215  C     0.82123   0.86878   0.35585   0.00000  Uiso   1.00
C1216  C     0.84509   0.79783   0.64413   0.00000  Uiso   1.00
H1217  H     0.81138   0.89712   0.37270   0.00000  Uiso   1.00
H1218  H     0.85430   0.76941   0.62721   0.00000  Uiso   1.00
C1219  C     0.82129   0.86877   0.64123   0.00000  Uiso   1.00
C1220  C     0.84505   0.79782   0.35875   0.00000  Uiso   1.00
H1221  H     0.81140   0.89710   0.62196   0.00000  Uiso   1.00
H1222  H     0.85442   0.76939   0.37797   0.00000  Uiso   1.00
S1223  S     0.98586   0.80604   0.42664   0.00000  Uiso   1.00
O1224  O     0.95071   0.77047   0.43206   0.00000  Uiso   1.00
O1225  O     0.95645   0.84037   0.39919   0.00000  Uiso   1.00
O1226  O     0.69717   0.78814   0.39630   0.00000  Uiso   1.00
H1227  H     0.67799   0.78032   0.36582   0.00000  Uiso   1.00
S1228  S     0.68204   0.84587   0.57879   0.00000  Uiso   1.00
O1229  O     0.71582   0.81018   0.59837   0.00000  Uiso   1.00
O1230  O     0.71319   0.88489   0.57970   0.00000  Uiso   1.00
O1231  O     0.97235   0.85411   0.61446   0.00000  Uiso   1.00
H1232  H     0.99297   0.85920   0.64508   0.00000  Uiso   1.00
C1233  C     0.73680   0.71355   0.48033   0.00000  Uiso   1.00
C1234  C     0.72340   0.72415   0.52777   0.00000  Uiso   1.00
H1235  H     0.71372   0.69533   0.54515   0.00000  Uiso   1.00
H1236  H     0.75514   0.73931   0.55056   0.00000  Uiso   1.00
H1237  H     0.69053   0.74613   0.52378   0.00000  Uiso   1.00
H1238  H     0.74001   0.74261   0.46097   0.00000  Uiso   1.00
H1239  H     0.70379   0.69707   0.46084   0.00000  Uiso   1.00
C1240  C     0.92338   0.95319   0.54653   0.00000  Uiso   1.00
C1241  C     0.91970   0.94830   0.59761   0.00000  Uiso   1.00
H1242  H     0.90754   0.97798   0.61254   0.00000  Uiso   1.00
H1243  H     0.89197   0.92387   0.60281   0.00000  Uiso   1.00
H1244  H     0.95766   0.93895   0.61678   0.00000  Uiso   1.00
H1245  H     0.92713   0.92196   0.53085   0.00000  Uiso   1.00
H1246  H     0.96012   0.96812   0.54406   0.00000  Uiso   1.00
C1247  C     0.74336   0.95651   0.45095   0.00000  Uiso   1.00
C1248  C     0.70564   0.94087   0.48084   0.00000  Uiso   1.00
H1249  H     0.67415   0.92384   0.45931   0.00000  Uiso   1.00
H1250  H     0.72541   0.91944   0.50725   0.00000  Uiso   1.00
H1251  H     0.68914   0.96733   0.49803   0.00000  Uiso   1.00
H1252  H     0.72340   0.97678   0.42323   0.00000  Uiso   1.00
H1253  H     0.75636   0.92983   0.43158   0.00000  Uiso   1.00
C1254  C     0.92929   0.71180   0.52814   0.00000  Uiso   1.00
C1255  C     0.94542   0.71952   0.57973   0.00000  Uiso   1.00
H1256  H     0.91154   0.72400   0.59714   0.00000  Uiso   1.00
H1257  H     0.96902   0.69318   0.59585   0.00000  Uiso   1.00
H1258  H     0.96901   0.74811   0.58526   0.00000  Uiso   1.00
H1259  H     0.95944   0.69523   0.51289   0.00000  Uiso   1.00
H1260  H     0.92686   0.74247   0.51076   0.00000  Uiso   1.00
O1261  O     0.16666   0.10558   0.87154   0.00000  Uiso   1.00
O1262  O     0.16667   0.22775   0.79513   0.00000  Uiso   1.00
O1263  O     0.16666   0.10559   0.79510   0.00000  Uiso   1.00
O1264  O     0.16667   0.22774   0.87157   0.00000  Uiso   1.00
C1265  C     0.16673   0.08680   0.83331   0.00000  Uiso   1.00
C1266  C     0.16565   0.24660   0.83328   0.00000  Uiso   1.00
O1267  O     0.09058   0.16666   0.86261   0.00000  Uiso   1.00
O1268  O     0.24275   0.16667   0.80405   0.00000  Uiso   1.00
O1269  O     0.09058   0.16667   0.78617   0.00000  Uiso   1.00
O1270  O     0.24275   0.16666   0.88050   0.00000  Uiso   1.00
C1271  C     0.06717   0.16558   0.82158   0.00000  Uiso   1.00
C1272  C     0.26620   0.16566   0.84545   0.00000  Uiso   1.00
Zn1273 Zn    0.16667   0.16666   0.88437   0.00000  Uiso   1.00
Zn1274 Zn    0.16667   0.16667   0.78229   0.00000  Uiso   1.00
N1275  N     0.16665   0.16666   0.95240   0.00000  Uiso   1.00
N1276  N     0.16668   0.16668   0.71427   0.00000  Uiso   1.00
C1277  C     0.01317   0.15970   0.81598   0.00000  Uiso   1.00
C1278  C     0.32069   0.16661   0.85291   0.00000  Uiso   1.00
C1279  C     0.12034   0.02228   0.81863   0.00000  Uiso   1.00
C1280  C     0.21101   0.31117   0.85444   0.00000  Uiso   1.00
C1281  C     0.12168   0.31243   0.81266   0.00000  Uiso   1.00
C1282  C     0.21262   0.02131   0.85033   0.00000  Uiso   1.00
C1283  C     0.16612   0.29080   0.83342   0.00000  Uiso   1.00
C1284  C     0.16679   0.04260   0.83358   0.00000  Uiso   1.00
C1285  C     0.15456   0.20211   0.68918   0.00000  Uiso   1.00
C1286  C     0.17842   0.13117   0.97746   0.00000  Uiso   1.00
H1287  H     0.14471   0.23045   0.70604   0.00000  Uiso   1.00
H1288  H     0.18763   0.10275   0.96054   0.00000  Uiso   1.00
C1289  C     0.15462   0.20211   0.97456   0.00000  Uiso   1.00
C1290  C     0.17838   0.13115   0.69208   0.00000  Uiso   1.00
H1291  H     0.14474   0.23043   0.95530   0.00000  Uiso   1.00
H1292  H     0.18775   0.10272   0.71130   0.00000  Uiso   1.00
S1293  S     0.31920   0.13938   0.75998   0.00000  Uiso   1.00
O1294  O     0.28404   0.10381   0.76539   0.00000  Uiso   1.00
O1295  O     0.28979   0.17370   0.73252   0.00000  Uiso   1.00
O1296  O     0.03051   0.12148   0.72964   0.00000  Uiso   1.00
H1297  H     0.01132   0.11365   0.69916   0.00000  Uiso   1.00
S1298  S     0.01538   0.17920   0.91212   0.00000  Uiso   1.00
O1299  O     0.04916   0.14351   0.93171   0.00000  Uiso   1.00
O1300  O     0.04653   0.21822   0.91303   0.00000  Uiso   1.00
O1301  O     0.30569   0.18744   0.94779   0.00000  Uiso   1.00
H1302  H     0.32630   0.19253   0.97841   0.00000  Uiso   1.00
C1303  C     0.07013   0.04688   0.81367   0.00000  Uiso   1.00
C1304  C     0.05673   0.05748   0.86110   0.00000  Uiso   1.00
H1305  H     0.04705   0.02866   0.87849   0.00000  Uiso   1.00
H1306  H     0.08848   0.07264   0.88389   0.00000  Uiso   1.00
H1307  H     0.02386   0.07947   0.85711   0.00000  Uiso   1.00
H1308  H     0.07335   0.07595   0.79431   0.00000  Uiso   1.00
H1309  H     0.03712   0.03041   0.79417   0.00000  Uiso   1.00
C1310  C     0.25671   0.28652   0.87987   0.00000  Uiso   1.00
C1311  C     0.25303   0.28164   0.93094   0.00000  Uiso   1.00
H1312  H     0.24087   0.31131   0.94587   0.00000  Uiso   1.00
H1313  H     0.22530   0.25721   0.93615   0.00000  Uiso   1.00
H1314  H     0.29099   0.27228   0.95011   0.00000  Uiso   1.00
H1315  H     0.26047   0.25529   0.86418   0.00000  Uiso   1.00
H1316  H     0.29346   0.30145   0.87739   0.00000  Uiso   1.00
C1317  C     0.07669   0.28984   0.78429   0.00000  Uiso   1.00
C1318  C     0.03897   0.27420   0.81417   0.00000  Uiso   1.00
H1319  H     0.00748   0.25717   0.79264   0.00000  Uiso   1.00
H1320  H     0.05875   0.25277   0.84059   0.00000  Uiso   1.00
H1321  H     0.02248   0.30067   0.83136   0.00000  Uiso   1.00
H1322  H     0.05674   0.31012   0.75656   0.00000  Uiso   1.00
H1323  H     0.08969   0.26316   0.76491   0.00000  Uiso   1.00
C1324  C     0.26263   0.04513   0.86148   0.00000  Uiso   1.00
C1325  C     0.27876   0.05286   0.91306   0.00000  Uiso   1.00
H1326  H     0.24488   0.05733   0.93048   0.00000  Uiso   1.00
H1327  H     0.30235   0.02651   0.92918   0.00000  Uiso   1.00
H1328  H     0.30234   0.08144   0.91860   0.00000  Uiso   1.00
H1329  H     0.29278   0.02857   0.84623   0.00000  Uiso   1.00
H1330  H     0.26020   0.07580   0.84409   0.00000  Uiso   1.00
O1331  O     0.50000   0.10558   0.87154   0.00000  Uiso   1.00
O1332  O     0.50000   0.22775   0.79513   0.00000  Uiso   1.00
O1333  O     0.50000   0.10559   0.79510   0.00000  Uiso   1.00
O1334  O     0.50000   0.22774   0.87157   0.00000  Uiso   1.00
C1335  C     0.50007   0.08680   0.83331   0.00000  Uiso   1.00
C1336  C     0.49898   0.24660   0.83328   0.00000  Uiso   1.00
O1337  O     0.42392   0.16666   0.86261   0.00000  Uiso   1.00
O1338  O     0.57608   0.16667   0.80405   0.00000  Uiso   1.00
O1339  O     0.42392   0.16667   0.78617   0.00000  Uiso   1.00
O1340  O     0.57608   0.16666   0.88050   0.00000  Uiso   1.00
C1341  C     0.40051   0.16558   0.82158   0.00000  Uiso   1.00
C1342  C     0.59954   0.16566   0.84545   0.00000  Uiso   1.00
Zn1343 Zn    0.50000   0.16666   0.88437   0.00000  Uiso   1.00
Zn1344 Zn    0.50000   0.16667   0.78229   0.00000  Uiso   1.00
N1345  N     0.49999   0.16666   0.95240   0.00000  Uiso   1.00
N1346  N     0.50001   0.16668   0.71427   0.00000  Uiso   1.00
C1347  C     0.34650   0.15970   0.81598   0.00000  Uiso   1.00
C1348  C     0.65402   0.16661   0.85291   0.00000  Uiso   1.00
C1349  C     0.45368   0.02228   0.81863   0.00000  Uiso   1.00
C1350  C     0.54435   0.31117   0.85444   0.00000  Uiso   1.00
C1351  C     0.45501   0.31243   0.81266   0.00000  Uiso   1.00
C1352  C     0.54595   0.02131   0.85033   0.00000  Uiso   1.00
C1353  C     0.49946   0.29080   0.83342   0.00000  Uiso   1.00
C1354  C     0.50013   0.04260   0.83358   0.00000  Uiso   1.00
C1355  C     0.48790   0.20211   0.68918   0.00000  Uiso   1.00
C1356  C     0.51175   0.13117   0.97746   0.00000  Uiso   1.00
H1357  H     0.47804   0.23045   0.70604   0.00000  Uiso   1.00
H1358  H     0.52096   0.10275   0.96054   0.00000  Uiso   1.00
C1359  C     0.48796   0.20211   0.97456   0.00000  Uiso   1.00
C1360  C     0.51172   0.13115   0.69208   0.00000  Uiso   1.00
H1361  H     0.47807   0.23043   0.95530   0.00000  Uiso   1.00
H1362  H     0.52108   0.10272   0.71130   0.00000  Uiso   1.00
S1363  S     0.65253   0.13938   0.75998   0.00000  Uiso   1.00
O1364  O     0.61738   0.10381   0.76539   0.00000  Uiso   1.00
O1365  O     0.62312   0.17370   0.73252   0.00000  Uiso   1.00
O1366  O     0.36384   0.12148   0.72964   0.00000  Uiso   1.00
H1367  H     0.34465   0.11365   0.69916   0.00000  Uiso   1.00
S1368  S     0.34871   0.17920   0.91212   0.00000  Uiso   1.00
O1369  O     0.38249   0.14351   0.93171   0.00000  Uiso   1.00
O1370  O     0.37986   0.21822   0.91303   0.00000  Uiso   1.00
O1371  O     0.63902   0.18744   0.94779   0.00000  Uiso   1.00
H1372  H     0.65963   0.19253   0.97841   0.00000  Uiso   1.00
C1373  C     0.40347   0.04688   0.81367   0.00000  Uiso   1.00
C1374  C     0.39006   0.05748   0.86110   0.00000  Uiso   1.00
H1375  H     0.38038   0.02866   0.87849   0.00000  Uiso   1.00
H1376  H     0.42181   0.07264   0.88389   0.00000  Uiso   1.00
H1377  H     0.35719   0.07947   0.85711   0.00000  Uiso   1.00
H1378  H     0.40668   0.07595   0.79431   0.00000  Uiso   1.00
H1379  H     0.37045   0.03041   0.79417   0.00000  Uiso   1.00
C1380  C     0.59004   0.28652   0.87987   0.00000  Uiso   1.00
C1381  C     0.58637   0.28164   0.93094   0.00000  Uiso   1.00
H1382  H     0.57421   0.31131   0.94587   0.00000  Uiso   1.00
H1383  H     0.55863   0.25721   0.93615   0.00000  Uiso   1.00
H1384  H     0.62433   0.27228   0.95011   0.00000  Uiso   1.00
H1385  H     0.59380   0.25529   0.86418   0.00000  Uiso   1.00
H1386  H     0.62679   0.30145   0.87739   0.00000  Uiso   1.00
C1387  C     0.41003   0.28984   0.78429   0.00000  Uiso   1.00
C1388  C     0.37231   0.27420   0.81417   0.00000  Uiso   1.00
H1389  H     0.34081   0.25717   0.79264   0.00000  Uiso   1.00
H1390  H     0.39208   0.25277   0.84059   0.00000  Uiso   1.00
H1391  H     0.35581   0.30067   0.83136   0.00000  Uiso   1.00
H1392  H     0.39007   0.31012   0.75656   0.00000  Uiso   1.00
H1393  H     0.42303   0.26316   0.76491   0.00000  Uiso   1.00
C1394  C     0.59596   0.04513   0.86148   0.00000  Uiso   1.00
C1395  C     0.61209   0.05286   0.91306   0.00000  Uiso   1.00
H1396  H     0.57821   0.05733   0.93048   0.00000  Uiso   1.00
H1397  H     0.63569   0.02651   0.92918   0.00000  Uiso   1.00
H1398  H     0.63568   0.08144   0.91860   0.00000  Uiso   1.00
H1399  H     0.62611   0.02857   0.84623   0.00000  Uiso   1.00
H1400  H     0.59353   0.07580   0.84409   0.00000  Uiso   1.00
O1401  O     0.83333   0.10558   0.87154   0.00000  Uiso   1.00
O1402  O     0.83334   0.22775   0.79513   0.00000  Uiso   1.00
O1403  O     0.83333   0.10559   0.79510   0.00000  Uiso   1.00
O1404  O     0.83334   0.22774   0.87157   0.00000  Uiso   1.00
C1405  C     0.83340   0.08680   0.83331   0.00000  Uiso   1.00
C1406  C     0.83231   0.24660   0.83328   0.00000  Uiso   1.00
O1407  O     0.75725   0.16666   0.86261   0.00000  Uiso   1.00
O1408  O     0.90942   0.16667   0.80405   0.00000  Uiso   1.00
O1409  O     0.75725   0.16667   0.78617   0.00000  Uiso   1.00
O1410  O     0.90942   0.16666   0.88050   0.00000  Uiso   1.00
C1411  C     0.73384   0.16558   0.82158   0.00000  Uiso   1.00
C1412  C     0.93287   0.16566   0.84545   0.00000  Uiso   1.00
Zn1413 Zn    0.83333   0.16666   0.88437   0.00000  Uiso   1.00
Zn1414 Zn    0.83333   0.16667   0.78229   0.00000  Uiso   1.00
N1415  N     0.83332   0.16666   0.95240   0.00000  Uiso   1.00
N1416  N     0.83335   0.16668   0.71427   0.00000  Uiso   1.00
C1417  C     0.67983   0.15970   0.81598   0.00000  Uiso   1.00
C1418  C     0.98736   0.16661   0.85291   0.00000  Uiso   1.00
C1419  C     0.78701   0.02228   0.81863   0.00000  Uiso   1.00
C1420  C     0.87768   0.31117   0.85444   0.00000  Uiso   1.00
C1421  C     0.78835   0.31243   0.81266   0.00000  Uiso   1.00
C1422  C     0.87928   0.02131   0.85033   0.00000  Uiso   1.00
C1423  C     0.83279   0.29080   0.83342   0.00000  Uiso   1.00
C1424  C     0.83346   0.04260   0.83358   0.00000  Uiso   1.00
C1425  C     0.82123   0.20211   0.68918   0.00000  Uiso   1.00
C1426  C     0.84509   0.13117   0.97746   0.00000  Uiso   1.00
H1427  H     0.81138   0.23045   0.70604   0.00000  Uiso   1.00
H1428  H     0.85430   0.10275   0.96054   0.00000  Uiso   1.00
C1429  C     0.82129   0.20211   0.97456   0.00000  Uiso   1.00
C1430  C     0.84505   0.13115   0.69208   0.00000  Uiso   1.00
H1431  H     0.81140   0.23043   0.95530   0.00000  Uiso   1.00
H1432  H     0.85442   0.10272   0.71130   0.00000  Uiso   1.00
S1433  S     0.98586   0.13938   0.75998   0.00000  Uiso   1.00
O1434  O     0.95071   0.10381   0.76539   0.00000  Uiso   1.00
O1435  O     0.95645   0.17370   0.73252   0.00000  Uiso   1.00
O1436  O     0.69717   0.12148   0.72964   0.00000  Uiso   1.00
H1437  H     0.67799   0.11365   0.69916   0.00000  Uiso   1.00
S1438  S     0.68204   0.17920   0.91212   0.00000  Uiso   1.00
O1439  O     0.71582   0.14351   0.93171   0.00000  Uiso   1.00
O1440  O     0.71319   0.21822   0.91303   0.00000  Uiso   1.00
O1441  O     0.97235   0.18744   0.94779   0.00000  Uiso   1.00
H1442  H     0.99297   0.19253   0.97841   0.00000  Uiso   1.00
C1443  C     0.73680   0.04688   0.81367   0.00000  Uiso   1.00
C1444  C     0.72340   0.05748   0.86110   0.00000  Uiso   1.00
H1445  H     0.71372   0.02866   0.87849   0.00000  Uiso   1.00
H1446  H     0.75514   0.07264   0.88389   0.00000  Uiso   1.00
H1447  H     0.69053   0.07947   0.85711   0.00000  Uiso   1.00
H1448  H     0.74001   0.07595   0.79431   0.00000  Uiso   1.00
H1449  H     0.70379   0.03041   0.79417   0.00000  Uiso   1.00
C1450  C     0.92338   0.28652   0.87987   0.00000  Uiso   1.00
C1451  C     0.91970   0.28164   0.93094   0.00000  Uiso   1.00
H1452  H     0.90754   0.31131   0.94587   0.00000  Uiso   1.00
H1453  H     0.89197   0.25721   0.93615   0.00000  Uiso   1.00
H1454  H     0.95766   0.27228   0.95011   0.00000  Uiso   1.00
H1455  H     0.92713   0.25529   0.86418   0.00000  Uiso   1.00
H1456  H     0.96012   0.30145   0.87739   0.00000  Uiso   1.00
C1457  C     0.74336   0.28984   0.78429   0.00000  Uiso   1.00
C1458  C     0.70564   0.27420   0.81417   0.00000  Uiso   1.00
H1459  H     0.67415   0.25717   0.79264   0.00000  Uiso   1.00
H1460  H     0.72541   0.25277   0.84059   0.00000  Uiso   1.00
H1461  H     0.68914   0.30067   0.83136   0.00000  Uiso   1.00
H1462  H     0.72340   0.31012   0.75656   0.00000  Uiso   1.00
H1463  H     0.75636   0.26316   0.76491   0.00000  Uiso   1.00
C1464  C     0.92929   0.04513   0.86148   0.00000  Uiso   1.00
C1465  C     0.94542   0.05286   0.91306   0.00000  Uiso   1.00
H1466  H     0.91154   0.05733   0.93048   0.00000  Uiso   1.00
H1467  H     0.96902   0.02651   0.92918   0.00000  Uiso   1.00
H1468  H     0.96901   0.08144   0.91860   0.00000  Uiso   1.00
H1469  H     0.95944   0.02857   0.84623   0.00000  Uiso   1.00
H1470  H     0.92686   0.07580   0.84409   0.00000  Uiso   1.00
O1471  O     0.16666   0.43892   0.87154   0.00000  Uiso   1.00
O1472  O     0.16667   0.56108   0.79513   0.00000  Uiso   1.00
O1473  O     0.16666   0.43893   0.79510   0.00000  Uiso   1.00
O1474  O     0.16667   0.56107   0.87157   0.00000  Uiso   1.00
C1475  C     0.16673   0.42014   0.83331   0.00000  Uiso   1.00
C1476  C     0.16565   0.57993   0.83328   0.00000  Uiso   1.00
O1477  O     0.09058   0.50000   0.86261   0.00000  Uiso   1.00
O1478  O     0.24275   0.50000   0.80405   0.00000  Uiso   1.00
O1479  O     0.09058   0.50000   0.78617   0.00000  Uiso   1.00
O1480  O     0.24275   0.50000   0.88050   0.00000  Uiso   1.00
C1481  C     0.06717   0.49891   0.82158   0.00000  Uiso   1.00
C1482  C     0.26620   0.49899   0.84545   0.00000  Uiso   1.00
Zn1483 Zn    0.16667   0.49999   0.88437   0.00000  Uiso   1.00
Zn1484 Zn    0.16667   0.50001   0.78229   0.00000  Uiso   1.00
N1485  N     0.16665   0.49999   0.95240   0.00000  Uiso   1.00
N1486  N     0.16668   0.50001   0.71427   0.00000  Uiso   1.00
C1487  C     0.01317   0.49304   0.81598   0.00000  Uiso   1.00
C1488  C     0.32069   0.49994   0.85291   0.00000  Uiso   1.00
C1489  C     0.12034   0.35562   0.81863   0.00000  Uiso   1.00
C1490  C     0.21101   0.64450   0.85444   0.00000  Uiso   1.00
C1491  C     0.12168   0.64577   0.81266   0.00000  Uiso   1.00
C1492  C     0.21262   0.35464   0.85033   0.00000  Uiso   1.00
C1493  C     0.16612   0.62413   0.83342   0.00000  Uiso   1.00
C1494  C     0.16679   0.37593   0.83358   0.00000  Uiso   1.00
C1495  C     0.15456   0.53544   0.68918   0.00000  Uiso   1.00
C1496  C     0.17842   0.46450   0.97746   0.00000  Uiso   1.00
H1497  H     0.14471   0.56378   0.70604   0.00000  Uiso   1.00
H1498  H     0.18763   0.43608   0.96054   0.00000  Uiso   1.00
C1499  C     0.15462   0.53544   0.97456   0.00000  Uiso   1.00
C1500  C     0.17838   0.46449   0.69208   0.00000  Uiso   1.00
H1501  H     0.14474   0.56376   0.95530   0.00000  Uiso   1.00
H1502  H     0.18775   0.43605   0.71130   0.00000  Uiso   1.00
S1503  S     0.31920   0.47271   0.75998   0.00000  Uiso   1.00
O1504  O     0.28404   0.43714   0.76539   0.00000  Uiso   1.00
O1505  O     0.28979   0.50704   0.73252   0.00000  Uiso   1.00
O1506  O     0.03051   0.45481   0.72964   0.00000  Uiso   1.00
H1507  H     0.01132   0.44699   0.69916   0.00000  Uiso   1.00
S1508  S     0.01538   0.51254   0.91212   0.00000  Uiso   1.00
O1509  O     0.04916   0.47684   0.93171   0.00000  Uiso   1.00
O1510  O     0.04653   0.55156   0.91303   0.00000  Uiso   1.00
O1511  O     0.30569   0.52078   0.94779   0.00000  Uiso   1.00
H1512  H     0.32630   0.52586   0.97841   0.00000  Uiso   1.00
C1513  C     0.07013   0.38021   0.81367   0.00000  Uiso   1.00
C1514  C     0.05673   0.39082   0.86110   0.00000  Uiso   1.00
H1515  H     0.04705   0.36200   0.87849   0.00000  Uiso   1.00
H1516  H     0.08848   0.40598   0.88389   0.00000  Uiso   1.00
H1517  H     0.02386   0.41280   0.85711   0.00000  Uiso   1.00
H1518  H     0.07335   0.40928   0.79431   0.00000  Uiso   1.00
H1519  H     0.03712   0.36374   0.79417   0.00000  Uiso   1.00
C1520  C     0.25671   0.61985   0.87987   0.00000  Uiso   1.00
C1521  C     0.25303   0.61497   0.93094   0.00000  Uiso   1.00
H1522  H     0.24087   0.64465   0.94587   0.00000  Uiso   1.00
H1523  H     0.22530   0.59054   0.93615   0.00000  Uiso   1.00
H1524  H     0.29099   0.60562   0.95011   0.00000  Uiso   1.00
H1525  H     0.26047   0.58863   0.86418   0.00000  Uiso   1.00
H1526  H     0.29346   0.63478   0.87739   0.00000  Uiso   1.00
C1527  C     0.07669   0.62317   0.78429   0.00000  Uiso   1.00
C1528  C     0.03897   0.60754   0.81417   0.00000  Uiso   1.00
H1529  H     0.00748   0.59050   0.79264   0.00000  Uiso   1.00
H1530  H     0.05875   0.58610   0.84059   0.00000  Uiso   1.00
H1531  H     0.02248   0.63400   0.83136   0.00000  Uiso   1.00
H1532  H     0.05674   0.64345   0.75656   0.00000  Uiso   1.00
H1533  H     0.08969   0.59650   0.76491   0.00000  Uiso   1.00
C1534  C     0.26263   0.37846   0.86148   0.00000  Uiso   1.00
C1535  C     0.27876   0.38619   0.91306   0.00000  Uiso   1.00
H1536  H     0.24488   0.39067   0.93048   0.00000  Uiso   1.00
H1537  H     0.30235   0.35985   0.92918   0.00000  Uiso   1.00
H1538  H     0.30234   0.41478   0.91860   0.00000  Uiso   1.00
H1539  H     0.29278   0.36190   0.84623   0.00000  Uiso   1.00
H1540  H     0.26020   0.40913   0.84409   0.00000  Uiso   1.00
O1541  O     0.50000   0.43892   0.87154   0.00000  Uiso   1.00
O1542  O     0.50000   0.56108   0.79513   0.00000  Uiso   1.00
O1543  O     0.50000   0.43893   0.79510   0.00000  Uiso   1.00
O1544  O     0.50000   0.56107   0.87157   0.00000  Uiso   1.00
C1545  C     0.50007   0.42014   0.83331   0.00000  Uiso   1.00
C1546  C     0.49898   0.57993   0.83328   0.00000  Uiso   1.00
O1547  O     0.42392   0.50000   0.86261   0.00000  Uiso   1.00
O1548  O     0.57608   0.50000   0.80405   0.00000  Uiso   1.00
O1549  O     0.42392   0.50000   0.78617   0.00000  Uiso   1.00
O1550  O     0.57608   0.50000   0.88050   0.00000  Uiso   1.00
C1551  C     0.40051   0.49891   0.82158   0.00000  Uiso   1.00
C1552  C     0.59954   0.49899   0.84545   0.00000  Uiso   1.00
Zn1553 Zn    0.50000   0.49999   0.88437   0.00000  Uiso   1.00
Zn1554 Zn    0.50000   0.50001   0.78229   0.00000  Uiso   1.00
N1555  N     0.49999   0.49999   0.95240   0.00000  Uiso   1.00
N1556  N     0.50001   0.50001   0.71427   0.00000  Uiso   1.00
C1557  C     0.34650   0.49304   0.81598   0.00000  Uiso   1.00
C1558  C     0.65402   0.49994   0.85291   0.00000  Uiso   1.00
C1559  C     0.45368   0.35562   0.81863   0.00000  Uiso   1.00
C1560  C     0.54435   0.64450   0.85444   0.00000  Uiso   1.00
C1561  C     0.45501   0.64577   0.81266   0.00000  Uiso   1.00
C1562  C     0.54595   0.35464   0.85033   0.00000  Uiso   1.00
C1563  C     0.49946   0.62413   0.83342   0.00000  Uiso   1.00
C1564  C     0.50013   0.37593   0.83358   0.00000  Uiso   1.00
C1565  C     0.48790   0.53544   0.68918   0.00000  Uiso   1.00
C1566  C     0.51175   0.46450   0.97746   0.00000  Uiso   1.00
H1567  H     0.47804   0.56378   0.70604   0.00000  Uiso   1.00
H1568  H     0.52096   0.43608   0.96054   0.00000  Uiso   1.00
C1569  C     0.48796   0.53544   0.97456   0.00000  Uiso   1.00
C1570  C     0.51172   0.46449   0.69208   0.00000  Uiso   1.00
H1571  H     0.47807   0.56376   0.95530   0.00000  Uiso   1.00
H1572  H     0.52108   0.43605   0.71130   0.00000  Uiso   1.00
S1573  S     0.65253   0.47271   0.75998   0.00000  Uiso   1.00
O1574  O     0.61738   0.43714   0.76539   0.00000  Uiso   1.00
O1575  O     0.62312   0.50704   0.73252   0.00000  Uiso   1.00
O1576  O     0.36384   0.45481   0.72964   0.00000  Uiso   1.00
H1577  H     0.34465   0.44699   0.69916   0.00000  Uiso   1.00
S1578  S     0.34871   0.51254   0.91212   0.00000  Uiso   1.00
O1579  O     0.38249   0.47684   0.93171   0.00000  Uiso   1.00
O1580  O     0.37986   0.55156   0.91303   0.00000  Uiso   1.00
O1581  O     0.63902   0.52078   0.94779   0.00000  Uiso   1.00
H1582  H     0.65963   0.52586   0.97841   0.00000  Uiso   1.00
C1583  C     0.40347   0.38021   0.81367   0.00000  Uiso   1.00
C1584  C     0.39006   0.39082   0.86110   0.00000  Uiso   1.00
H1585  H     0.38038   0.36200   0.87849   0.00000  Uiso   1.00
H1586  H     0.42181   0.40598   0.88389   0.00000  Uiso   1.00
H1587  H     0.35719   0.41280   0.85711   0.00000  Uiso   1.00
H1588  H     0.40668   0.40928   0.79431   0.00000  Uiso   1.00
H1589  H     0.37045   0.36374   0.79417   0.00000  Uiso   1.00
C1590  C     0.59004   0.61985   0.87987   0.00000  Uiso   1.00
C1591  C     0.58637   0.61497   0.93094   0.00000  Uiso   1.00
H1592  H     0.57421   0.64465   0.94587   0.00000  Uiso   1.00
H1593  H     0.55863   0.59054   0.93615   0.00000  Uiso   1.00
H1594  H     0.62433   0.60562   0.95011   0.00000  Uiso   1.00
H1595  H     0.59380   0.58863   0.86418   0.00000  Uiso   1.00
H1596  H     0.62679   0.63478   0.87739   0.00000  Uiso   1.00
C1597  C     0.41003   0.62317   0.78429   0.00000  Uiso   1.00
C1598  C     0.37231   0.60754   0.81417   0.00000  Uiso   1.00
H1599  H     0.34081   0.59050   0.79264   0.00000  Uiso   1.00
H1600  H     0.39208   0.58610   0.84059   0.00000  Uiso   1.00
H1601  H     0.35581   0.63400   0.83136   0.00000  Uiso   1.00
H1602  H     0.39007   0.64345   0.75656   0.00000  Uiso   1.00
H1603  H     0.42303   0.59650   0.76491   0.00000  Uiso   1.00
C1604  C     0.59596   0.37846   0.86148   0.00000  Uiso   1.00
C1605  C     0.61209   0.38619   0.91306   0.00000  Uiso   1.00
H1606  H     0.57821   0.39067   0.93048   0.00000  Uiso   1.00
H1607  H     0.63569   0.35985   0.92918   0.00000  Uiso   1.00
H1608  H     0.63568   0.41478   0.91860   0.00000  Uiso   1.00
H1609  H     0.62611   0.36190   0.84623   0.00000  Uiso   1.00
H1610  H     0.59353   0.40913   0.84409   0.00000  Uiso   1.00
O1611  O     0.83333   0.43892   0.87154   0.00000  Uiso   1.00
O1612  O     0.83334   0.56108   0.79513   0.00000  Uiso   1.00
O1613  O     0.83333   0.43893   0.79510   0.00000  Uiso   1.00
O1614  O     0.83334   0.56107   0.87157   0.00000  Uiso   1.00
C1615  C     0.83340   0.42014   0.83331   0.00000  Uiso   1.00
C1616  C     0.83231   0.57993   0.83328   0.00000  Uiso   1.00
O1617  O     0.75725   0.50000   0.86261   0.00000  Uiso   1.00
O1618  O     0.90942   0.50000   0.80405   0.00000  Uiso   1.00
O1619  O     0.75725   0.50000   0.78617   0.00000  Uiso   1.00
O1620  O     0.90942   0.50000   0.88050   0.00000  Uiso   1.00
C1621  C     0.73384   0.49891   0.82158   0.00000  Uiso   1.00
C1622  C     0.93287   0.49899   0.84545   0.00000  Uiso   1.00
Zn1623 Zn    0.83333   0.49999   0.88437   0.00000  Uiso   1.00
Zn1624 Zn    0.83333   0.50001   0.78229   0.00000  Uiso   1.00
N1625  N     0.83332   0.49999   0.95240   0.00000  Uiso   1.00
N1626  N     0.83335   0.50001   0.71427   0.00000  Uiso   1.00
C1627  C     0.67983   0.49304   0.81598   0.00000  Uiso   1.00
C1628  C     0.98736   0.49994   0.85291   0.00000  Uiso   1.00
C1629  C     0.78701   0.35562   0.81863   0.00000  Uiso   1.00
C1630  C     0.87768   0.64450   0.85444   0.00000  Uiso   1.00
C1631  C     0.78835   0.64577   0.81266   0.00000  Uiso   1.00
C1632  C     0.87928   0.35464   0.85033   0.00000  Uiso   1.00
C1633  C     0.83279   0.62413   0.83342   0.00000  Uiso   1.00
C1634  C     0.83346   0.37593   0.83358   0.00000  Uiso   1.00
C1635  C     0.82123   0.53544   0.68918   0.00000  Uiso   1.00
C1636  C     0.84509   0.46450   0.97746   0.00000  Uiso   1.00
H1637  H     0.81138   0.56378   0.70604   0.00000  Uiso   1.00
H1638  H     0.85430   0.43608   0.96054   0.00000  Uiso   1.00
C1639  C     0.82129   0.53544   0.97456   0.00000  Uiso   1.00
C1640  C     0.84505   0.46449   0.69208   0.00000  Uiso   1.00
H1641  H     0.81140   0.56376   0.95530   0.00000  Uiso   1.00
H1642  H     0.85442   0.43605   0.71130   0.00000  Uiso   1.00
S1643  S     0.98586   0.47271   0.75998   0.00000  Uiso   1.00
O1644  O     0.95071   0.43714   0.76539   0.00000  Uiso   1.00
O1645  O     0.95645   0.50704   0.73252   0.00000  Uiso   1.00
O1646  O     0.69717   0.45481   0.72964   0.00000  Uiso   1.00
H1647  H     0.67799   0.44699   0.69916   0.00000  Uiso   1.00
S1648  S     0.68204   0.51254   0.91212   0.00000  Uiso   1.00
O1649  O     0.71582   0.47684   0.93171   0.00000  Uiso   1.00
O1650  O     0.71319   0.55156   0.91303   0.00000  Uiso   1.00
O1651  O     0.97235   0.52078   0.94779   0.00000  Uiso   1.00
H1652  H     0.99297   0.52586   0.97841   0.00000  Uiso   1.00
C1653  C     0.73680   0.38021   0.81367   0.00000  Uiso   1.00
C1654  C     0.72340   0.39082   0.86110   0.00000  Uiso   1.00
H1655  H     0.71372   0.36200   0.87849   0.00000  Uiso   1.00
H1656  H     0.75514   0.40598   0.88389   0.00000  Uiso   1.00
H1657  H     0.69053   0.41280   0.85711   0.00000  Uiso   1.00
H1658  H     0.74001   0.40928   0.79431   0.00000  Uiso   1.00
H1659  H     0.70379   0.36374   0.79417   0.00000  Uiso   1.00
C1660  C     0.92338   0.61985   0.87987   0.00000  Uiso   1.00
C1661  C     0.91970   0.61497   0.93094   0.00000  Uiso   1.00
H1662  H     0.90754   0.64465   0.94587   0.00000  Uiso   1.00
H1663  H     0.89197   0.59054   0.93615   0.00000  Uiso   1.00
H1664  H     0.95766   0.60562   0.95011   0.00000  Uiso   1.00
H1665  H     0.92713   0.58863   0.86418   0.00000  Uiso   1.00
H1666  H     0.96012   0.63478   0.87739   0.00000  Uiso   1.00
C1667  C     0.74336   0.62317   0.78429   0.00000  Uiso   1.00
C1668  C     0.70564   0.60754   0.81417   0.00000  Uiso   1.00
H1669  H     0.67415   0.59050   0.79264   0.00000  Uiso   1.00
H1670  H     0.72541   0.58610   0.84059   0.00000  Uiso   1.00
H1671  H     0.68914   0.63400   0.83136   0.00000  Uiso   1.00
H1672  H     0.72340   0.64345   0.75656   0.00000  Uiso   1.00
H1673  H     0.75636   0.59650   0.76491   0.00000  Uiso   1.00
C1674  C     0.92929   0.37846   0.86148   0.00000  Uiso   1.00
C1675  C     0.94542   0.38619   0.91306   0.00000  Uiso   1.00
H1676  H     0.91154   0.39067   0.93048   0.00000  Uiso   1.00
H1677  H     0.96902   0.35985   0.92918   0.00000  Uiso   1.00
H1678  H     0.96901   0.41478   0.91860   0.00000  Uiso   1.00
H1679  H     0.95944   0.36190   0.84623   0.00000  Uiso   1.00
H1680  H     0.92686   0.40913   0.84409   0.00000  Uiso   1.00
O1681  O     0.16666   0.77225   0.87154   0.00000  Uiso   1.00
O1682  O     0.16667   0.89442   0.79513   0.00000  Uiso   1.00
O1683  O     0.16666   0.77226   0.79510   0.00000  Uiso   1.00
O1684  O     0.16667   0.89441   0.87157   0.00000  Uiso   1.00
C1685  C     0.16673   0.75347   0.83331   0.00000  Uiso   1.00
C1686  C     0.16565   0.91326   0.83328   0.00000  Uiso   1.00
O1687  O     0.09058   0.83333   0.86261   0.00000  Uiso   1.00
O1688  O     0.24275   0.83334   0.80405   0.00000  Uiso   1.00
O1689  O     0.09058   0.83334   0.78617   0.00000  Uiso   1.00
O1690  O     0.24275   0.83333   0.88050   0.00000  Uiso   1.00
C1691  C     0.06717   0.83224   0.82158   0.00000  Uiso   1.00
C1692  C     0.26620   0.83232   0.84545   0.00000  Uiso   1.00
Zn1693 Zn    0.16667   0.83333   0.88437   0.00000  Uiso   1.00
Zn1694 Zn    0.16667   0.83334   0.78229   0.00000  Uiso   1.00
N1695  N     0.16665   0.83332   0.95240   0.00000  Uiso   1.00
N1696  N     0.16668   0.83334   0.71427   0.00000  Uiso   1.00
C1697  C     0.01317   0.82637   0.81598   0.00000  Uiso   1.00
C1698  C     0.32069   0.83328   0.85291   0.00000  Uiso   1.00
C1699  C     0.12034   0.68895   0.81863   0.00000  Uiso   1.00
C1700  C     0.21101   0.97784   0.85444   0.00000  Uiso   1.00
C1701  C     0.12168   0.97910   0.81266   0.00000  Uiso   1.00
C1702  C     0.21262   0.68798   0.85033   0.00000  Uiso   1.00
C1703  C     0.16612   0.95746   0.83342   0.00000  Uiso   1.00
C1704  C     0.16679   0.70927   0.83358   0.00000  Uiso   1.00
C1705  C     0.15456   0.86878   0.68918   0.00000  Uiso   1.00
C1706  C     0.17842   0.79783   0.97746   0.00000  Uiso   1.00
H1707  H     0.14471   0.89712   0.70604   0.00000  Uiso   1.00
H1708  H     0.18763   0.76941   0.96054   0.00000  Uiso   1.00
C1709  C     0.15462   0.86877   0.97456   0.00000  Uiso   1.00
C1710  C     0.17838   0.79782   0.69208   0.00000  Uiso   1.00
H1711  H     0.14474   0.89710   0.95530   0.00000  Uiso   1.00
H1712  H     0.18775   0.76939   0.71130   0.00000  Uiso   1.00
S1713  S     0.31920   0.80604   0.75998   0.00000  Uiso   1.00
O1714  O     0.28404   0.77047   0.76539   0.00000  Uiso   1.00
O1715  O     0.28979   0.84037   0.73252   0.00000  Uiso   1.00
O1716  O     0.03051   0.78814   0.72964   0.00000  Uiso   1.00
H1717  H     0.01132   0.78032   0.69916   0.00000  Uiso   1.00
S1718  S     0.01538   0.84587   0.91212   0.00000  Uiso   1.00
O1719  O     0.04916   0.81018   0.93171   0.00000  Uiso   1.00
O1720  O     0.04653   0.88489   0.91303   0.00000  Uiso   1.00
O1721  O     0.30569   0.85411   0.94779   0.00000  Uiso   1.00
H1722  H     0.32630   0.85920   0.97841   0.00000  Uiso   1.00
C1723  C     0.07013   0.71355   0.81367   0.00000  Uiso   1.00
C1724  C     0.05673   0.72415   0.86110   0.00000  Uiso   1.00
H1725  H     0.04705   0.69533   0.87849   0.00000  Uiso   1.00
H1726  H     0.08848   0.73931   0.88389   0.00000  Uiso   1.00
H1727  H     0.02386   0.74613   0.85711   0.00000  Uiso   1.00
H1728  H     0.07335   0.74261   0.79431   0.00000  Uiso   1.00
H1729  H     0.03712   0.69707   0.79417   0.00000  Uiso   1.00
C1730  C     0.25671   0.95319   0.87987   0.00000  Uiso   1.00
C1731  C     0.25303   0.94830   0.93094   0.00000  Uiso   1.00
H1732  H     0.24087   0.97798   0.94587   0.00000  Uiso   1.00
H1733  H     0.22530   0.92387   0.93615   0.00000  Uiso   1.00
H1734  H     0.29099   0.93895   0.95011   0.00000  Uiso   1.00
H1735  H     0.26047   0.92196   0.86418   0.00000  Uiso   1.00
H1736  H     0.29346   0.96812   0.87739   0.00000  Uiso   1.00
C1737  C     0.07669   0.95651   0.78429   0.00000  Uiso   1.00
C1738  C     0.03897   0.94087   0.81417   0.00000  Uiso   1.00
H1739  H     0.00748   0.92384   0.79264   0.00000  Uiso   1.00
H1740  H     0.05875   0.91944   0.84059   0.00000  Uiso   1.00
H1741  H     0.02248   0.96733   0.83136   0.00000  Uiso   1.00
H1742  H     0.05674   0.97678   0.75656   0.00000  Uiso   1.00
H1743  H     0.08969   0.92983   0.76491   0.00000  Uiso   1.00
C1744  C     0.26263   0.71180   0.86148   0.00000  Uiso   1.00
C1745  C     0.27876   0.71952   0.91306   0.00000  Uiso   1.00
H1746  H     0.24488   0.72400   0.93048   0.00000  Uiso   1.00
H1747  H     0.30235   0.69318   0.92918   0.00000  Uiso   1.00
H1748  H     0.30234   0.74811   0.91860   0.00000  Uiso   1.00
H1749  H     0.29278   0.69523   0.84623   0.00000  Uiso   1.00
H1750  H     0.26020   0.74247   0.84409   0.00000  Uiso   1.00
O1751  O     0.50000   0.77225   0.87154   0.00000  Uiso   1.00
O1752  O     0.50000   0.89442   0.79513   0.00000  Uiso   1.00
O1753  O     0.50000   0.77226   0.79510   0.00000  Uiso   1.00
O1754  O     0.50000   0.89441   0.87157   0.00000  Uiso   1.00
C1755  C     0.50007   0.75347   0.83331   0.00000  Uiso   1.00
C1756  C     0.49898   0.91326   0.83328   0.00000  Uiso   1.00
O1757  O     0.42392   0.83333   0.86261   0.00000  Uiso   1.00
O1758  O     0.57608   0.83334   0.80405   0.00000  Uiso   1.00
O1759  O     0.42392   0.83334   0.78617   0.00000  Uiso   1.00
O1760  O     0.57608   0.83333   0.88050   0.00000  Uiso   1.00
C1761  C     0.40051   0.83224   0.82158   0.00000  Uiso   1.00
C1762  C     0.59954   0.83232   0.84545   0.00000  Uiso   1.00
Zn1763 Zn    0.50000   0.83333   0.88437   0.00000  Uiso   1.00
Zn1764 Zn    0.50000   0.83334   0.78229   0.00000  Uiso   1.00
N1765  N     0.49999   0.83332   0.95240   0.00000  Uiso   1.00
N1766  N     0.50001   0.83334   0.71427   0.00000  Uiso   1.00
C1767  C     0.34650   0.82637   0.81598   0.00000  Uiso   1.00
C1768  C     0.65402   0.83328   0.85291   0.00000  Uiso   1.00
C1769  C     0.45368   0.68895   0.81863   0.00000  Uiso   1.00
C1770  C     0.54435   0.97784   0.85444   0.00000  Uiso   1.00
C1771  C     0.45501   0.97910   0.81266   0.00000  Uiso   1.00
C1772  C     0.54595   0.68798   0.85033   0.00000  Uiso   1.00
C1773  C     0.49946   0.95746   0.83342   0.00000  Uiso   1.00
C1774  C     0.50013   0.70927   0.83358   0.00000  Uiso   1.00
C1775  C     0.48790   0.86878   0.68918   0.00000  Uiso   1.00
C1776  C     0.51175   0.79783   0.97746   0.00000  Uiso   1.00
H1777  H     0.47804   0.89712   0.70604   0.00000  Uiso   1.00
H1778  H     0.52096   0.76941   0.96054   0.00000  Uiso   1.00
C1779  C     0.48796   0.86877   0.97456   0.00000  Uiso   1.00
C1780  C     0.51172   0.79782   0.69208   0.00000  Uiso   1.00
H1781  H     0.47807   0.89710   0.95530   0.00000  Uiso   1.00
H1782  H     0.52108   0.76939   0.71130   0.00000  Uiso   1.00
S1783  S     0.65253   0.80604   0.75998   0.00000  Uiso   1.00
O1784  O     0.61738   0.77047   0.76539   0.00000  Uiso   1.00
O1785  O     0.62312   0.84037   0.73252   0.00000  Uiso   1.00
O1786  O     0.36384   0.78814   0.72964   0.00000  Uiso   1.00
H1787  H     0.34465   0.78032   0.69916   0.00000  Uiso   1.00
S1788  S     0.34871   0.84587   0.91212   0.00000  Uiso   1.00
O1789  O     0.38249   0.81018   0.93171   0.00000  Uiso   1.00
O1790  O     0.37986   0.88489   0.91303   0.00000  Uiso   1.00
O1791  O     0.63902   0.85411   0.94779   0.00000  Uiso   1.00
H1792  H     0.65963   0.85920   0.97841   0.00000  Uiso   1.00
C1793  C     0.40347   0.71355   0.81367   0.00000  Uiso   1.00
C1794  C     0.39006   0.72415   0.86110   0.00000  Uiso   1.00
H1795  H     0.38038   0.69533   0.87849   0.00000  Uiso   1.00
H1796  H     0.42181   0.73931   0.88389   0.00000  Uiso   1.00
H1797  H     0.35719   0.74613   0.85711   0.00000  Uiso   1.00
H1798  H     0.40668   0.74261   0.79431   0.00000  Uiso   1.00
H1799  H     0.37045   0.69707   0.79417   0.00000  Uiso   1.00
C1800  C     0.59004   0.95319   0.87987   0.00000  Uiso   1.00
C1801  C     0.58637   0.94830   0.93094   0.00000  Uiso   1.00
H1802  H     0.57421   0.97798   0.94587   0.00000  Uiso   1.00
H1803  H     0.55863   0.92387   0.93615   0.00000  Uiso   1.00
H1804  H     0.62433   0.93895   0.95011   0.00000  Uiso   1.00
H1805  H     0.59380   0.92196   0.86418   0.00000  Uiso   1.00
H1806  H     0.62679   0.96812   0.87739   0.00000  Uiso   1.00
C1807  C     0.41003   0.95651   0.78429   0.00000  Uiso   1.00
C1808  C     0.37231   0.94087   0.81417   0.00000  Uiso   1.00
H1809  H     0.34081   0.92384   0.79264   0.00000  Uiso   1.00
H1810  H     0.39208   0.91944   0.84059   0.00000  Uiso   1.00
H1811  H     0.35581   0.96733   0.83136   0.00000  Uiso   1.00
H1812  H     0.39007   0.97678   0.75656   0.00000  Uiso   1.00
H1813  H     0.42303   0.92983   0.76491   0.00000  Uiso   1.00
C1814  C     0.59596   0.71180   0.86148   0.00000  Uiso   1.00
C1815  C     0.61209   0.71952   0.91306   0.00000  Uiso   1.00
H1816  H     0.57821   0.72400   0.93048   0.00000  Uiso   1.00
H1817  H     0.63569   0.69318   0.92918   0.00000  Uiso   1.00
H1818  H     0.63568   0.74811   0.91860   0.00000  Uiso   1.00
H1819  H     0.62611   0.69523   0.84623   0.00000  Uiso   1.00
H1820  H     0.59353   0.74247   0.84409   0.00000  Uiso   1.00
O1821  O     0.83333   0.77225   0.87154   0.00000  Uiso   1.00
O1822  O     0.83334   0.89442   0.79513   0.00000  Uiso   1.00
O1823  O     0.83333   0.77226   0.79510   0.00000  Uiso   1.00
O1824  O     0.83334   0.89441   0.87157   0.00000  Uiso   1.00
C1825  C     0.83340   0.75347   0.83331   0.00000  Uiso   1.00
C1826  C     0.83231   0.91326   0.83328   0.00000  Uiso   1.00
O1827  O     0.75725   0.83333   0.86261   0.00000  Uiso   1.00
O1828  O     0.90942   0.83334   0.80405   0.00000  Uiso   1.00
O1829  O     0.75725   0.83334   0.78617   0.00000  Uiso   1.00
O1830  O     0.90942   0.83333   0.88050   0.00000  Uiso   1.00
C1831  C     0.73384   0.83224   0.82158   0.00000  Uiso   1.00
C1832  C     0.93287   0.83232   0.84545   0.00000  Uiso   1.00
Zn1833 Zn    0.83333   0.83333   0.88437   0.00000  Uiso   1.00
Zn1834 Zn    0.83333   0.83334   0.78229   0.00000  Uiso   1.00
N1835  N     0.83332   0.83332   0.95240   0.00000  Uiso   1.00
N1836  N     0.83335   0.83334   0.71427   0.00000  Uiso   1.00
C1837  C     0.67983   0.82637   0.81598   0.00000  Uiso   1.00
C1838  C     0.98736   0.83328   0.85291   0.00000  Uiso   1.00
C1839  C     0.78701   0.68895   0.81863   0.00000  Uiso   1.00
C1840  C     0.87768   0.97784   0.85444   0.00000  Uiso   1.00
C1841  C     0.78835   0.97910   0.81266   0.00000  Uiso   1.00
C1842  C     0.87928   0.68798   0.85033   0.00000  Uiso   1.00
C1843  C     0.83279   0.95746   0.83342   0.00000  Uiso   1.00
C1844  C     0.83346   0.70927   0.83358   0.00000  Uiso   1.00
C1845  C     0.82123   0.86878   0.68918   0.00000  Uiso   1.00
C1846  C     0.84509   0.79783   0.97746   0.00000  Uiso   1.00
H1847  H     0.81138   0.89712   0.70604   0.00000  Uiso   1.00
H1848  H     0.85430   0.76941   0.96054   0.00000  Uiso   1.00
C1849  C     0.82129   0.86877   0.97456   0.00000  Uiso   1.00
C1850  C     0.84505   0.79782   0.69208   0.00000  Uiso   1.00
H1851  H     0.81140   0.89710   0.95530   0.00000  Uiso   1.00
H1852  H     0.85442   0.76939   0.71130   0.00000  Uiso   1.00
S1853  S     0.98586   0.80604   0.75998   0.00000  Uiso   1.00
O1854  O     0.95071   0.77047   0.76539   0.00000  Uiso   1.00
O1855  O     0.95645   0.84037   0.73252   0.00000  Uiso   1.00
O1856  O     0.69717   0.78814   0.72964   0.00000  Uiso   1.00
H1857  H     0.67799   0.78032   0.69916   0.00000  Uiso   1.00
S1858  S     0.68204   0.84587   0.91212   0.00000  Uiso   1.00
O1859  O     0.71582   0.81018   0.93171   0.00000  Uiso   1.00
O1860  O     0.71319   0.88489   0.91303   0.00000  Uiso   1.00
O1861  O     0.97235   0.85411   0.94779   0.00000  Uiso   1.00
H1862  H     0.99297   0.85920   0.97841   0.00000  Uiso   1.00
C1863  C     0.73680   0.71355   0.81367   0.00000  Uiso   1.00
C1864  C     0.72340   0.72415   0.86110   0.00000  Uiso   1.00
H1865  H     0.71372   0.69533   0.87849   0.00000  Uiso   1.00
H1866  H     0.75514   0.73931   0.88389   0.00000  Uiso   1.00
H1867  H     0.69053   0.74613   0.85711   0.00000  Uiso   1.00
H1868  H     0.74001   0.74261   0.79431   0.00000  Uiso   1.00
H1869  H     0.70379   0.69707   0.79417   0.00000  Uiso   1.00
C1870  C     0.92338   0.95319   0.87987   0.00000  Uiso   1.00
C1871  C     0.91970   0.94830   0.93094   0.00000  Uiso   1.00
H1872  H     0.90754   0.97798   0.94587   0.00000  Uiso   1.00
H1873  H     0.89197   0.92387   0.93615   0.00000  Uiso   1.00
H1874  H     0.95766   0.93895   0.95011   0.00000  Uiso   1.00
H1875  H     0.92713   0.92196   0.86418   0.00000  Uiso   1.00
H1876  H     0.96012   0.96812   0.87739   0.00000  Uiso   1.00
C1877  C     0.74336   0.95651   0.78429   0.00000  Uiso   1.00
C1878  C     0.70564   0.94087   0.81417   0.00000  Uiso   1.00
H1879  H     0.67415   0.92384   0.79264   0.00000  Uiso   1.00
H1880  H     0.72541   0.91944   0.84059   0.00000  Uiso   1.00
H1881  H     0.68914   0.96733   0.83136   0.00000  Uiso   1.00
H1882  H     0.72340   0.97678   0.75656   0.00000  Uiso   1.00
H1883  H     0.75636   0.92983   0.76491   0.00000  Uiso   1.00
C1884  C     0.92929   0.71180   0.86148   0.00000  Uiso   1.00
C1885  C     0.94542   0.71952   0.91306   0.00000  Uiso   1.00
H1886  H     0.91154   0.72400   0.93048   0.00000  Uiso   1.00
H1887  H     0.96902   0.69318   0.92918   0.00000  Uiso   1.00
H1888  H     0.96901   0.74811   0.91860   0.00000  Uiso   1.00
H1889  H     0.95944   0.69523   0.84623   0.00000  Uiso   1.00
H1890  H     0.92686   0.74247   0.84409   0.00000  Uiso   1.00
loop_
_geom_bond_atom_site_label_1
_geom_bond_atom_site_label_2
_geom_bond_distance
_geom_bond_site_symmetry_2
_ccdc_geom_bond_type
O1     C5      1.273   .     A
O1     Zn13    1.990   .     S
O2     C6      1.275   .     A
O2     Zn14    1.990   .     S
O3     Zn14    1.994   .     S
O3     C5      1.278   .     A
O4     C6      1.278   .     A
O4     Zn13    1.994   .     S
C5     C24     1.416   .     S
C6     C23     1.416   .     S
O7     C11     1.268   .     A
O7     Zn13    2.015   .     S
O8     C12     1.277   .     A
O8     Zn14    2.015   .     S
O9     Zn14    2.035   .     S
O9     C11     1.294   .     A
O10    C12     1.285   .     A
O10    Zn13    2.035   .     S
C11    C17     1.428   .     S
C12    C18     1.425   .     S
Zn13   N15     2.002   .     S
Zn14   N16     2.002   .     S
N15    C29     1.365   .     A
N15    C26     1.365   .     A
N16    C30     1.365   .     A
N16    C25     1.365   .     A
C17    C158    1.387   1_455 S
C17    S173    1.812   1_455 S
C18    C87     1.387   .     S
C18    S108    1.827   .     S
C19    C24     1.404   .     A
C19    C43     1.525   .     S
C19    C441    1.394   1_545 S
C20    C23     1.414   .     A
C20    C50     1.533   .     S
C20    C232    1.400   .     S
C21    C57     1.529   .     S
C21    C23     1.414   .     A
C21    C229    1.394   .     S
C22    C24     1.406   .     A
C22    C64     1.524   .     S
C22    C440    1.400   1_545 S
C25    H27     1.081   .     S
C25    C1289   1.411   1_554 S
C26    H28     1.079   .     S
C26    C660    1.411   .     S
C29    H31     1.080   .     S
C29    C655    1.411   .     S
C30    H32     1.081   .     S
C30    C1286   1.411   1_554 S
S33    O34     1.504   .     D
S33    O35     1.504   .     D
S33    C87     1.812   .     S
S33    O106    1.684   .     S
O36    H37     0.991   .     S
O36    S173    1.684   1_455 S
S38    O40     1.502   .     D
S38    O39     1.504   .     D
S38    C158    1.827   1_455 S
S38    O181    1.684   1_455 S
O41    H42     0.991   .     S
O41    S108    1.684   .     S
C43    C44     1.529   .     S
C43    H48     1.105   .     S
C43    H49     1.104   .     S
C44    H47     1.106   .     S
C44    H45     1.110   .     S
C44    H46     1.104   .     S
C50    H55     1.109   .     S
C50    C51     1.530   .     S
C50    H56     1.101   .     S
C51    H54     1.111   .     S
C51    H52     1.110   .     S
C51    H53     1.106   .     S
C57    H62     1.109   .     S
C57    C58     1.521   .     S
C57    H63     1.106   .     S
C58    H61     1.105   .     S
C58    H60     1.105   .     S
C58    H59     1.110   .     S
C64    H70     1.107   .     S
C64    C65     1.530   .     S
C64    H69     1.105   .     S
C65    H67     1.108   .     S
C65    H68     1.110   .     S
C65    H66     1.109   .     S
O71    C75     1.273   .     A
O71    Zn83    1.990   .     S
O72    C76     1.275   .     A
O72    Zn84    1.990   .     S
O73    Zn84    1.994   .     S
O73    C75     1.278   .     A
O74    C76     1.278   .     A
O74    Zn83    1.994   .     S
C75    C94     1.416   .     S
C76    C93     1.416   .     S
O77    C81     1.268   .     A
O77    Zn83    2.015   .     S
O78    C82     1.277   .     A
O78    Zn84    2.015   .     S
O79    Zn84    2.035   .     S
O79    C81     1.294   .     A
O80    C82     1.285   .     A
O80    Zn83    2.035   .     S
C81    C87     1.428   .     S
C82    C88     1.425   .     S
Zn83   N85     2.002   .     S
Zn84   N86     2.002   .     S
N85    C99     1.365   .     A
N85    C96     1.365   .     A
N86    C100    1.365   .     A
N86    C95     1.365   .     A
C88    C157    1.387   .     S
C88    S178    1.827   .     S
C89    C94     1.404   .     A
C89    C113    1.525   .     S
C89    C511    1.394   1_545 S
C90    C93     1.414   .     A
C90    C120    1.533   .     S
C90    C302    1.400   .     S
C91    C127    1.529   .     S
C91    C93     1.414   .     A
C91    C299    1.394   .     S
C92    C94     1.406   .     A
C92    C134    1.524   .     S
C92    C510    1.400   1_545 S
C95    H97     1.081   .     S
C95    C1359   1.411   1_554 S
C96    H98     1.079   .     S
C96    C730    1.411   .     S
C99    H101    1.080   .     S
C99    C725    1.411   .     S
C100   H102    1.081   .     S
C100   C1356   1.411   1_554 S
S103   O104    1.504   .     D
S103   O105    1.504   .     D
S103   C157    1.812   .     S
S103   O176    1.684   .     S
O106   H107    0.991   .     S
S108   O110    1.502   .     D
S108   O109    1.504   .     D
O111   H112    0.991   .     S
O111   S178    1.684   .     S
C113   C114    1.529   .     S
C113   H118    1.105   .     S
C113   H119    1.104   .     S
C114   H117    1.106   .     S
C114   H115    1.110   .     S
C114   H116    1.104   .     S
C120   H125    1.109   .     S
C120   C121    1.530   .     S
C120   H126    1.101   .     S
C121   H124    1.111   .     S
C121   H122    1.110   .     S
C121   H123    1.106   .     S
C127   H132    1.109   .     S
C127   C128    1.521   .     S
C127   H133    1.106   .     S
C128   H131    1.105   .     S
C128   H130    1.105   .     S
C128   H129    1.110   .     S
C134   H140    1.107   .     S
C134   C135    1.530   .     S
C134   H139    1.105   .     S
C135   H137    1.108   .     S
C135   H138    1.110   .     S
C135   H136    1.109   .     S
O141   C145    1.273   .     A
O141   Zn153   1.990   .     S
O142   C146    1.275   .     A
O142   Zn154   1.990   .     S
O143   Zn154   1.994   .     S
O143   C145    1.278   .     A
O144   C146    1.278   .     A
O144   Zn153   1.994   .     S
C145   C164    1.416   .     S
C146   C163    1.416   .     S
O147   C151    1.268   .     A
O147   Zn153   2.015   .     S
O148   C152    1.277   .     A
O148   Zn154   2.015   .     S
O149   Zn154   2.035   .     S
O149   C151    1.294   .     A
O150   C152    1.285   .     A
O150   Zn153   2.035   .     S
C151   C157    1.428   .     S
C152   C158    1.425   .     S
Zn153  N155    2.002   .     S
Zn154  N156    2.002   .     S
N155   C169    1.365   .     A
N155   C166    1.365   .     A
N156   C170    1.365   .     A
N156   C165    1.365   .     A
C158   C17     1.387   1_655 S
C158   S38     1.827   1_655 S
C159   C164    1.404   .     A
C159   C183    1.525   .     S
C159   C581    1.394   1_545 S
C160   C163    1.414   .     A
C160   C190    1.533   .     S
C160   C372    1.400   .     S
C161   C197    1.529   .     S
C161   C163    1.414   .     A
C161   C369    1.394   .     S
C162   C164    1.406   .     A
C162   C204    1.524   .     S
C162   C580    1.400   1_545 S
C165   H167    1.081   .     S
C165   C1429   1.411   1_554 S
C166   H168    1.079   .     S
C166   C800    1.411   .     S
C169   H171    1.080   .     S
C169   C795    1.411   .     S
C170   H172    1.081   .     S
C170   C1426   1.411   1_554 S
S173   O174    1.504   .     D
S173   O175    1.504   .     D
S173   C17     1.812   1_655 S
S173   O36     1.684   1_655 S
O176   H177    0.991   .     S
S178   O180    1.502   .     D
S178   O179    1.504   .     D
O181   H182    0.991   .     S
O181   S38     1.684   1_655 S
C183   C184    1.529   .     S
C183   H188    1.105   .     S
C183   H189    1.104   .     S
C184   H187    1.106   .     S
C184   H185    1.110   .     S
C184   H186    1.104   .     S
C190   H195    1.109   .     S
C190   C191    1.530   .     S
C190   H196    1.101   .     S
C191   H194    1.111   .     S
C191   H192    1.110   .     S
C191   H193    1.106   .     S
C197   H202    1.109   .     S
C197   C198    1.521   .     S
C197   H203    1.106   .     S
C198   H201    1.105   .     S
C198   H200    1.105   .     S
C198   H199    1.110   .     S
C204   H210    1.107   .     S
C204   C205    1.530   .     S
C204   H209    1.105   .     S
C205   H207    1.108   .     S
C205   H208    1.110   .     S
C205   H206    1.109   .     S
O211   C215    1.273   .     A
O211   Zn223   1.990   .     S
O212   C216    1.275   .     A
O212   Zn224   1.990   .     S
O213   Zn224   1.994   .     S
O213   C215    1.278   .     A
O214   C216    1.278   .     A
O214   Zn223   1.994   .     S
C215   C234    1.416   .     S
C216   C233    1.416   .     S
O217   C221    1.268   .     A
O217   Zn223   2.015   .     S
O218   C222    1.277   .     A
O218   Zn224   2.015   .     S
O219   Zn224   2.035   .     S
O219   C221    1.294   .     A
O220   C222    1.285   .     A
O220   Zn223   2.035   .     S
C221   C227    1.428   .     S
C222   C228    1.425   .     S
Zn223  N225    2.002   .     S
Zn224  N226    2.002   .     S
N225   C239    1.365   .     A
N225   C236    1.365   .     A
N226   C240    1.365   .     A
N226   C235    1.365   .     A
C227   C368    1.387   1_455 S
C227   S383    1.812   1_455 S
C228   C297    1.387   .     S
C228   S318    1.827   .     S
C229   C234    1.404   .     A
C229   C253    1.525   .     S
C230   C233    1.414   .     A
C230   C260    1.533   .     S
C230   C442    1.400   .     S
C231   C267    1.529   .     S
C231   C233    1.414   .     A
C231   C439    1.394   .     S
C232   C234    1.406   .     A
C232   C274    1.524   .     S
C235   H237    1.081   .     S
C235   C1499   1.411   1_554 S
C236   H238    1.079   .     S
C236   C870    1.411   .     S
C239   H241    1.080   .     S
C239   C865    1.411   .     S
C240   H242    1.081   .     S
C240   C1496   1.411   1_554 S
S243   O244    1.504   .     D
S243   O245    1.504   .     D
S243   C297    1.812   .     S
S243   O316    1.684   .     S
O246   H247    0.991   .     S
O246   S383    1.684   1_455 S
S248   O250    1.502   .     D
S248   O249    1.504   .     D
S248   C368    1.827   1_455 S
S248   O391    1.684   1_455 S
O251   H252    0.991   .     S
O251   S318    1.684   .     S
C253   C254    1.529   .     S
C253   H258    1.105   .     S
C253   H259    1.104   .     S
C254   H257    1.106   .     S
C254   H255    1.110   .     S
C254   H256    1.104   .     S
C260   H265    1.109   .     S
C260   C261    1.530   .     S
C260   H266    1.101   .     S
C261   H264    1.111   .     S
C261   H262    1.110   .     S
C261   H263    1.106   .     S
C267   H272    1.109   .     S
C267   C268    1.521   .     S
C267   H273    1.106   .     S
C268   H271    1.105   .     S
C268   H270    1.105   .     S
C268   H269    1.110   .     S
C274   H280    1.107   .     S
C274   C275    1.530   .     S
C274   H279    1.105   .     S
C275   H277    1.108   .     S
C275   H278    1.110   .     S
C275   H276    1.109   .     S
O281   C285    1.273   .     A
O281   Zn293   1.990   .     S
O282   C286    1.275   .     A
O282   Zn294   1.990   .     S
O283   Zn294   1.994   .     S
O283   C285    1.278   .     A
O284   C286    1.278   .     A
O284   Zn293   1.994   .     S
C285   C304    1.416   .     S
C286   C303    1.416   .     S
O287   C291    1.268   .     A
O287   Zn293   2.015   .     S
O288   C292    1.277   .     A
O288   Zn294   2.015   .     S
O289   Zn294   2.035   .     S
O289   C291    1.294   .     A
O290   C292    1.285   .     A
O290   Zn293   2.035   .     S
C291   C297    1.428   .     S
C292   C298    1.425   .     S
Zn293  N295    2.002   .     S
Zn294  N296    2.002   .     S
N295   C309    1.365   .     A
N295   C306    1.365   .     A
N296   C310    1.365   .     A
N296   C305    1.365   .     A
C298   C367    1.387   .     S
C298   S388    1.827   .     S
C299   C304    1.404   .     A
C299   C323    1.525   .     S
C300   C303    1.414   .     A
C300   C330    1.533   .     S
C300   C512    1.400   .     S
C301   C337    1.529   .     S
C301   C303    1.414   .     A
C301   C509    1.394   .     S
C302   C304    1.406   .     A
C302   C344    1.524   .     S
C305   H307    1.081   .     S
C305   C1569   1.411   1_554 S
C306   H308    1.079   .     S
C306   C940    1.411   .     S
C309   H311    1.080   .     S
C309   C935    1.411   .     S
C310   H312    1.081   .     S
C310   C1566   1.411   1_554 S
S313   O314    1.504   .     D
S313   O315    1.504   .     D
S313   C367    1.812   .     S
S313   O386    1.684   .     S
O316   H317    0.991   .     S
S318   O320    1.502   .     D
S318   O319    1.504   .     D
O321   H322    0.991   .     S
O321   S388    1.684   .     S
C323   C324    1.529   .     S
C323   H328    1.105   .     S
C323   H329    1.104   .     S
C324   H327    1.106   .     S
C324   H325    1.110   .     S
C324   H326    1.104   .     S
C330   H335    1.109   .     S
C330   C331    1.530   .     S
C330   H336    1.101   .     S
C331   H334    1.111   .     S
C331   H332    1.110   .     S
C331   H333    1.106   .     S
C337   H342    1.109   .     S
C337   C338    1.521   .     S
C337   H343    1.106   .     S
C338   H341    1.105   .     S
C338   H340    1.105   .     S
C338   H339    1.110   .     S
C344   H350    1.107   .     S
C344   C345    1.530   .     S
C344   H349    1.105   .     S
C345   H347    1.108   .     S
C345   H348    1.110   .     S
C345   H346    1.109   .     S
O351   C355    1.273   .     A
O351   Zn363   1.990   .     S
O352   C356    1.275   .     A
O352   Zn364   1.990   .     S
O353   Zn364   1.994   .     S
O353   C355    1.278   .     A
O354   C356    1.278   .     A
O354   Zn363   1.994   .     S
C355   C374    1.416   .     S
C356   C373    1.416   .     S
O357   C361    1.268   .     A
O357   Zn363   2.015   .     S
O358   C362    1.277   .     A
O358   Zn364   2.015   .     S
O359   Zn364   2.035   .     S
O359   C361    1.294   .     A
O360   C362    1.285   .     A
O360   Zn363   2.035   .     S
C361   C367    1.428   .     S
C362   C368    1.425   .     S
Zn363  N365    2.002   .     S
Zn364  N366    2.002   .     S
N365   C379    1.365   .     A
N365   C376    1.365   .     A
N366   C380    1.365   .     A
N366   C375    1.365   .     A
C368   C227    1.387   1_655 S
C368   S248    1.827   1_655 S
C369   C374    1.404   .     A
C369   C393    1.525   .     S
C370   C373    1.414   .     A
C370   C400    1.533   .     S
C370   C582    1.400   .     S
C371   C407    1.529   .     S
C371   C373    1.414   .     A
C371   C579    1.394   .     S
C372   C374    1.406   .     A
C372   C414    1.524   .     S
C375   H377    1.081   .     S
C375   C1639   1.411   1_554 S
C376   H378    1.079   .     S
C376   C1010   1.411   .     S
C379   H381    1.080   .     S
C379   C1005   1.411   .     S
C380   H382    1.081   .     S
C380   C1636   1.411   1_554 S
S383   O384    1.504   .     D
S383   O385    1.504   .     D
S383   C227    1.812   1_655 S
S383   O246    1.684   1_655 S
O386   H387    0.991   .     S
S388   O390    1.502   .     D
S388   O389    1.504   .     D
O391   H392    0.991   .     S
O391   S248    1.684   1_655 S
C393   C394    1.529   .     S
C393   H398    1.105   .     S
C393   H399    1.104   .     S
C394   H397    1.106   .     S
C394   H395    1.110   .     S
C394   H396    1.104   .     S
C400   H405    1.109   .     S
C400   C401    1.530   .     S
C400   H406    1.101   .     S
C401   H404    1.111   .     S
C401   H402    1.110   .     S
C401   H403    1.106   .     S
C407   H412    1.109   .     S
C407   C408    1.521   .     S
C407   H413    1.106   .     S
C408   H411    1.105   .     S
C408   H410    1.105   .     S
C408   H409    1.110   .     S
C414   H420    1.107   .     S
C414   C415    1.530   .     S
C414   H419    1.105   .     S
C415   H417    1.108   .     S
C415   H418    1.110   .     S
C415   H416    1.109   .     S
O421   C425    1.273   .     A
O421   Zn433   1.990   .     S
O422   C426    1.275   .     A
O422   Zn434   1.990   .     S
O423   Zn434   1.994   .     S
O423   C425    1.278   .     A
O424   C426    1.278   .     A
O424   Zn433   1.994   .     S
C425   C444    1.416   .     S
C426   C443    1.416   .     S
O427   C431    1.268   .     A
O427   Zn433   2.015   .     S
O428   C432    1.277   .     A
O428   Zn434   2.015   .     S
O429   Zn434   2.035   .     S
O429   C431    1.294   .     A
O430   C432    1.285   .     A
O430   Zn433   2.035   .     S
C431   C437    1.428   .     S
C432   C438    1.425   .     S
Zn433  N435    2.002   .     S
Zn434  N436    2.002   .     S
N435   C449    1.365   .     A
N435   C446    1.365   .     A
N436   C450    1.365   .     A
N436   C445    1.365   .     A
C437   C578    1.387   1_455 S
C437   S593    1.812   1_455 S
C438   C507    1.387   .     S
C438   S528    1.827   .     S
C439   C444    1.404   .     A
C439   C463    1.525   .     S
C440   C443    1.414   .     A
C440   C470    1.533   .     S
C440   C22     1.400   1_565 S
C441   C477    1.529   .     S
C441   C443    1.414   .     A
C441   C19     1.394   1_565 S
C442   C444    1.406   .     A
C442   C484    1.524   .     S
C445   H447    1.081   .     S
C445   C1709   1.411   1_554 S
C446   H448    1.079   .     S
C446   C1080   1.411   .     S
C449   H451    1.080   .     S
C449   C1075   1.411   .     S
C450   H452    1.081   .     S
C450   C1706   1.411   1_554 S
S453   O454    1.504   .     D
S453   O455    1.504   .     D
S453   C507    1.812   .     S
S453   O526    1.684   .     S
O456   H457    0.991   .     S
O456   S593    1.684   1_455 S
S458   O460    1.502   .     D
S458   O459    1.504   .     D
S458   C578    1.827   1_455 S
S458   O601    1.684   1_455 S
O461   H462    0.991   .     S
O461   S528    1.684   .     S
C463   C464    1.529   .     S
C463   H468    1.105   .     S
C463   H469    1.104   .     S
C464   H467    1.106   .     S
C464   H465    1.110   .     S
C464   H466    1.104   .     S
C470   H475    1.109   .     S
C470   C471    1.530   .     S
C470   H476    1.101   .     S
C471   H474    1.111   .     S
C471   H472    1.110   .     S
C471   H473    1.106   .     S
C477   H482    1.109   .     S
C477   C478    1.521   .     S
C477   H483    1.106   .     S
C478   H481    1.105   .     S
C478   H480    1.105   .     S
C478   H479    1.110   .     S
C484   H490    1.107   .     S
C484   C485    1.530   .     S
C484   H489    1.105   .     S
C485   H487    1.108   .     S
C485   H488    1.110   .     S
C485   H486    1.109   .     S
O491   C495    1.273   .     A
O491   Zn503   1.990   .     S
O492   C496    1.275   .     A
O492   Zn504   1.990   .     S
O493   Zn504   1.994   .     S
O493   C495    1.278   .     A
O494   C496    1.278   .     A
O494   Zn503   1.994   .     S
C495   C514    1.416   .     S
C496   C513    1.416   .     S
O497   C501    1.268   .     A
O497   Zn503   2.015   .     S
O498   C502    1.277   .     A
O498   Zn504   2.015   .     S
O499   Zn504   2.035   .     S
O499   C501    1.294   .     A
O500   C502    1.285   .     A
O500   Zn503   2.035   .     S
C501   C507    1.428   .     S
C502   C508    1.425   .     S
Zn503  N505    2.002   .     S
Zn504  N506    2.002   .     S
N505   C519    1.365   .     A
N505   C516    1.365   .     A
N506   C520    1.365   .     A
N506   C515    1.365   .     A
C508   C577    1.387   .     S
C508   S598    1.827   .     S
C509   C514    1.404   .     A
C509   C533    1.525   .     S
C510   C513    1.414   .     A
C510   C540    1.533   .     S
C510   C92     1.400   1_565 S
C511   C547    1.529   .     S
C511   C513    1.414   .     A
C511   C89     1.394   1_565 S
C512   C514    1.406   .     A
C512   C554    1.524   .     S
C515   H517    1.081   .     S
C515   C1779   1.411   1_554 S
C516   H518    1.079   .     S
C516   C1150   1.411   .     S
C519   H521    1.080   .     S
C519   C1145   1.411   .     S
C520   H522    1.081   .     S
C520   C1776   1.411   1_554 S
S523   O524    1.504   .     D
S523   O525    1.504   .     D
S523   C577    1.812   .     S
S523   O596    1.684   .     S
O526   H527    0.991   .     S
S528   O530    1.502   .     D
S528   O529    1.504   .     D
O531   H532    0.991   .     S
O531   S598    1.684   .     S
C533   C534    1.529   .     S
C533   H538    1.105   .     S
C533   H539    1.104   .     S
C534   H537    1.106   .     S
C534   H535    1.110   .     S
C534   H536    1.104   .     S
C540   H545    1.109   .     S
C540   C541    1.530   .     S
C540   H546    1.101   .     S
C541   H544    1.111   .     S
C541   H542    1.110   .     S
C541   H543    1.106   .     S
C547   H552    1.109   .     S
C547   C548    1.521   .     S
C547   H553    1.106   .     S
C548   H551    1.105   .     S
C548   H550    1.105   .     S
C548   H549    1.110   .     S
C554   H560    1.107   .     S
C554   C555    1.530   .     S
C554   H559    1.105   .     S
C555   H557    1.108   .     S
C555   H558    1.110   .     S
C555   H556    1.109   .     S
O561   C565    1.273   .     A
O561   Zn573   1.990   .     S
O562   C566    1.275   .     A
O562   Zn574   1.990   .     S
O563   Zn574   1.994   .     S
O563   C565    1.278   .     A
O564   C566    1.278   .     A
O564   Zn573   1.994   .     S
C565   C584    1.416   .     S
C566   C583    1.416   .     S
O567   C571    1.268   .     A
O567   Zn573   2.015   .     S
O568   C572    1.277   .     A
O568   Zn574   2.015   .     S
O569   Zn574   2.035   .     S
O569   C571    1.294   .     A
O570   C572    1.285   .     A
O570   Zn573   2.035   .     S
C571   C577    1.428   .     S
C572   C578    1.425   .     S
Zn573  N575    2.002   .     S
Zn574  N576    2.002   .     S
N575   C589    1.365   .     A
N575   C586    1.365   .     A
N576   C590    1.365   .     A
N576   C585    1.365   .     A
C578   C437    1.387   1_655 S
C578   S458    1.827   1_655 S
C579   C584    1.404   .     A
C579   C603    1.525   .     S
C580   C583    1.414   .     A
C580   C610    1.533   .     S
C580   C162    1.400   1_565 S
C581   C617    1.529   .     S
C581   C583    1.414   .     A
C581   C159    1.394   1_565 S
C582   C584    1.406   .     A
C582   C624    1.524   .     S
C585   H587    1.081   .     S
C585   C1849   1.411   1_554 S
C586   H588    1.079   .     S
C586   C1220   1.411   .     S
C589   H591    1.080   .     S
C589   C1215   1.411   .     S
C590   H592    1.081   .     S
C590   C1846   1.411   1_554 S
S593   O594    1.504   .     D
S593   O595    1.504   .     D
S593   C437    1.812   1_655 S
S593   O456    1.684   1_655 S
O596   H597    0.991   .     S
S598   O600    1.502   .     D
S598   O599    1.504   .     D
O601   H602    0.991   .     S
O601   S458    1.684   1_655 S
C603   C604    1.529   .     S
C603   H608    1.105   .     S
C603   H609    1.104   .     S
C604   H607    1.106   .     S
C604   H605    1.110   .     S
C604   H606    1.104   .     S
C610   H615    1.109   .     S
C610   C611    1.530   .     S
C610   H616    1.101   .     S
C611   H614    1.111   .     S
C611   H612    1.110   .     S
C611   H613    1.106   .     S
C617   H622    1.109   .     S
C617   C618    1.521   .     S
C617   H623    1.106   .     S
C618   H621    1.105   .     S
C618   H620    1.105   .     S
C618   H619    1.110   .     S
C624   H630    1.107   .     S
C624   C625    1.530   .     S
C624   H629    1.105   .     S
C625   H627    1.108   .     S
C625   H628    1.110   .     S
C625   H626    1.109   .     S
O631   C635    1.273   .     A
O631   Zn643   1.990   .     S
O632   C636    1.275   .     A
O632   Zn644   1.990   .     S
O633   Zn644   1.994   .     S
O633   C635    1.278   .     A
O634   C636    1.278   .     A
O634   Zn643   1.994   .     S
C635   C654    1.416   .     S
C636   C653    1.416   .     S
O637   C641    1.268   .     A
O637   Zn643   2.015   .     S
O638   C642    1.277   .     A
O638   Zn644   2.015   .     S
O639   Zn644   2.035   .     S
O639   C641    1.294   .     A
O640   C642    1.285   .     A
O640   Zn643   2.035   .     S
C641   C647    1.428   .     S
C642   C648    1.425   .     S
Zn643  N645    2.002   .     S
Zn644  N646    2.002   .     S
N645   C659    1.365   .     A
N645   C656    1.365   .     A
N646   C660    1.365   .     A
N646   C655    1.365   .     A
C647   C788    1.387   1_455 S
C647   S803    1.812   1_455 S
C648   C717    1.387   .     S
C648   S738    1.827   .     S
C649   C654    1.404   .     A
C649   C673    1.525   .     S
C649   C1071   1.394   1_545 S
C650   C653    1.414   .     A
C650   C680    1.533   .     S
C650   C862    1.400   .     S
C651   C687    1.529   .     S
C651   C653    1.414   .     A
C651   C859    1.394   .     S
C652   C654    1.406   .     A
C652   C694    1.524   .     S
C652   C1070   1.400   1_545 S
C655   H657    1.081   .     S
C656   H658    1.079   .     S
C656   C1290   1.411   .     S
C659   H661    1.080   .     S
C659   C1285   1.411   .     S
C660   H662    1.081   .     S
S663   O664    1.504   .     D
S663   O665    1.504   .     D
S663   C717    1.812   .     S
S663   O736    1.684   .     S
O666   H667    0.991   .     S
O666   S803    1.684   1_455 S
S668   O670    1.502   .     D
S668   O669    1.504   .     D
S668   C788    1.827   1_455 S
S668   O811    1.684   1_455 S
O671   H672    0.991   .     S
O671   S738    1.684   .     S
C673   C674    1.529   .     S
C673   H678    1.105   .     S
C673   H679    1.104   .     S
C674   H677    1.106   .     S
C674   H675    1.110   .     S
C674   H676    1.104   .     S
C680   H685    1.109   .     S
C680   C681    1.530   .     S
C680   H686    1.101   .     S
C681   H684    1.111   .     S
C681   H682    1.110   .     S
C681   H683    1.106   .     S
C687   H692    1.109   .     S
C687   C688    1.521   .     S
C687   H693    1.106   .     S
C688   H691    1.105   .     S
C688   H690    1.105   .     S
C688   H689    1.110   .     S
C694   H700    1.107   .     S
C694   C695    1.530   .     S
C694   H699    1.105   .     S
C695   H697    1.108   .     S
C695   H698    1.110   .     S
C695   H696    1.109   .     S
O701   C705    1.273   .     A
O701   Zn713   1.990   .     S
O702   C706    1.275   .     A
O702   Zn714   1.990   .     S
O703   Zn714   1.994   .     S
O703   C705    1.278   .     A
O704   C706    1.278   .     A
O704   Zn713   1.994   .     S
C705   C724    1.416   .     S
C706   C723    1.416   .     S
O707   C711    1.268   .     A
O707   Zn713   2.015   .     S
O708   C712    1.277   .     A
O708   Zn714   2.015   .     S
O709   Zn714   2.035   .     S
O709   C711    1.294   .     A
O710   C712    1.285   .     A
O710   Zn713   2.035   .     S
C711   C717    1.428   .     S
C712   C718    1.425   .     S
Zn713  N715    2.002   .     S
Zn714  N716    2.002   .     S
N715   C729    1.365   .     A
N715   C726    1.365   .     A
N716   C730    1.365   .     A
N716   C725    1.365   .     A
C718   C787    1.387   .     S
C718   S808    1.827   .     S
C719   C724    1.404   .     A
C719   C743    1.525   .     S
C719   C1141   1.394   1_545 S
C720   C723    1.414   .     A
C720   C750    1.533   .     S
C720   C932    1.400   .     S
C721   C757    1.529   .     S
C721   C723    1.414   .     A
C721   C929    1.394   .     S
C722   C724    1.406   .     A
C722   C764    1.524   .     S
C722   C1140   1.400   1_545 S
C725   H727    1.081   .     S
C726   H728    1.079   .     S
C726   C1360   1.411   .     S
C729   H731    1.080   .     S
C729   C1355   1.411   .     S
C730   H732    1.081   .     S
S733   O734    1.504   .     D
S733   O735    1.504   .     D
S733   C787    1.812   .     S
S733   O806    1.684   .     S
O736   H737    0.991   .     S
S738   O740    1.502   .     D
S738   O739    1.504   .     D
O741   H742    0.991   .     S
O741   S808    1.684   .     S
C743   C744    1.529   .     S
C743   H748    1.105   .     S
C743   H749    1.104   .     S
C744   H747    1.106   .     S
C744   H745    1.110   .     S
C744   H746    1.104   .     S
C750   H755    1.109   .     S
C750   C751    1.530   .     S
C750   H756    1.101   .     S
C751   H754    1.111   .     S
C751   H752    1.110   .     S
C751   H753    1.106   .     S
C757   H762    1.109   .     S
C757   C758    1.521   .     S
C757   H763    1.106   .     S
C758   H761    1.105   .     S
C758   H760    1.105   .     S
C758   H759    1.110   .     S
C764   H770    1.107   .     S
C764   C765    1.530   .     S
C764   H769    1.105   .     S
C765   H767    1.108   .     S
C765   H768    1.110   .     S
C765   H766    1.109   .     S
O771   C775    1.273   .     A
O771   Zn783   1.990   .     S
O772   C776    1.275   .     A
O772   Zn784   1.990   .     S
O773   Zn784   1.994   .     S
O773   C775    1.278   .     A
O774   C776    1.278   .     A
O774   Zn783   1.994   .     S
C775   C794    1.416   .     S
C776   C793    1.416   .     S
O777   C781    1.268   .     A
O777   Zn783   2.015   .     S
O778   C782    1.277   .     A
O778   Zn784   2.015   .     S
O779   Zn784   2.035   .     S
O779   C781    1.294   .     A
O780   C782    1.285   .     A
O780   Zn783   2.035   .     S
C781   C787    1.428   .     S
C782   C788    1.425   .     S
Zn783  N785    2.002   .     S
Zn784  N786    2.002   .     S
N785   C799    1.365   .     A
N785   C796    1.365   .     A
N786   C800    1.365   .     A
N786   C795    1.365   .     A
C788   C647    1.387   1_655 S
C788   S668    1.827   1_655 S
C789   C794    1.404   .     A
C789   C813    1.525   .     S
C789   C1211   1.394   1_545 S
C790   C793    1.414   .     A
C790   C820    1.533   .     S
C790   C1002   1.400   .     S
C791   C827    1.529   .     S
C791   C793    1.414   .     A
C791   C999    1.394   .     S
C792   C794    1.406   .     A
C792   C834    1.524   .     S
C792   C1210   1.400   1_545 S
C795   H797    1.081   .     S
C796   H798    1.079   .     S
C796   C1430   1.411   .     S
C799   H801    1.080   .     S
C799   C1425   1.411   .     S
C800   H802    1.081   .     S
S803   O804    1.504   .     D
S803   O805    1.504   .     D
S803   C647    1.812   1_655 S
S803   O666    1.684   1_655 S
O806   H807    0.991   .     S
S808   O810    1.502   .     D
S808   O809    1.504   .     D
O811   H812    0.991   .     S
O811   S668    1.684   1_655 S
C813   C814    1.529   .     S
C813   H818    1.105   .     S
C813   H819    1.104   .     S
C814   H817    1.106   .     S
C814   H815    1.110   .     S
C814   H816    1.104   .     S
C820   H825    1.109   .     S
C820   C821    1.530   .     S
C820   H826    1.101   .     S
C821   H824    1.111   .     S
C821   H822    1.110   .     S
C821   H823    1.106   .     S
C827   H832    1.109   .     S
C827   C828    1.521   .     S
C827   H833    1.106   .     S
C828   H831    1.105   .     S
C828   H830    1.105   .     S
C828   H829    1.110   .     S
C834   H840    1.107   .     S
C834   C835    1.530   .     S
C834   H839    1.105   .     S
C835   H837    1.108   .     S
C835   H838    1.110   .     S
C835   H836    1.109   .     S
O841   C845    1.273   .     A
O841   Zn853   1.990   .     S
O842   C846    1.275   .     A
O842   Zn854   1.990   .     S
O843   Zn854   1.994   .     S
O843   C845    1.278   .     A
O844   C846    1.278   .     A
O844   Zn853   1.994   .     S
C845   C864    1.416   .     S
C846   C863    1.416   .     S
O847   C851    1.268   .     A
O847   Zn853   2.015   .     S
O848   C852    1.277   .     A
O848   Zn854   2.015   .     S
O849   Zn854   2.035   .     S
O849   C851    1.294   .     A
O850   C852    1.285   .     A
O850   Zn853   2.035   .     S
C851   C857    1.428   .     S
C852   C858    1.425   .     S
Zn853  N855    2.002   .     S
Zn854  N856    2.002   .     S
N855   C869    1.365   .     A
N855   C866    1.365   .     A
N856   C870    1.365   .     A
N856   C865    1.365   .     A
C857   C998    1.387   1_455 S
C857   S1013   1.812   1_455 S
C858   C927    1.387   .     S
C858   S948    1.827   .     S
C859   C864    1.404   .     A
C859   C883    1.525   .     S
C860   C863    1.414   .     A
C860   C890    1.533   .     S
C860   C1072   1.400   .     S
C861   C897    1.529   .     S
C861   C863    1.414   .     A
C861   C1069   1.394   .     S
C862   C864    1.406   .     A
C862   C904    1.524   .     S
C865   H867    1.081   .     S
C866   H868    1.079   .     S
C866   C1500   1.411   .     S
C869   H871    1.080   .     S
C869   C1495   1.411   .     S
C870   H872    1.081   .     S
S873   O874    1.504   .     D
S873   O875    1.504   .     D
S873   C927    1.812   .     S
S873   O946    1.684   .     S
O876   H877    0.991   .     S
O876   S1013   1.684   1_455 S
S878   O880    1.502   .     D
S878   O879    1.504   .     D
S878   C998    1.827   1_455 S
S878   O1021   1.684   1_455 S
O881   H882    0.991   .     S
O881   S948    1.684   .     S
C883   C884    1.529   .     S
C883   H888    1.105   .     S
C883   H889    1.104   .     S
C884   H887    1.106   .     S
C884   H885    1.110   .     S
C884   H886    1.104   .     S
C890   H895    1.109   .     S
C890   C891    1.530   .     S
C890   H896    1.101   .     S
C891   H894    1.111   .     S
C891   H892    1.110   .     S
C891   H893    1.106   .     S
C897   H902    1.109   .     S
C897   C898    1.521   .     S
C897   H903    1.106   .     S
C898   H901    1.105   .     S
C898   H900    1.105   .     S
C898   H899    1.110   .     S
C904   H910    1.107   .     S
C904   C905    1.530   .     S
C904   H909    1.105   .     S
C905   H907    1.108   .     S
C905   H908    1.110   .     S
C905   H906    1.109   .     S
O911   C915    1.273   .     A
O911   Zn923   1.990   .     S
O912   C916    1.275   .     A
O912   Zn924   1.990   .     S
O913   Zn924   1.994   .     S
O913   C915    1.278   .     A
O914   C916    1.278   .     A
O914   Zn923   1.994   .     S
C915   C934    1.416   .     S
C916   C933    1.416   .     S
O917   C921    1.268   .     A
O917   Zn923   2.015   .     S
O918   C922    1.277   .     A
O918   Zn924   2.015   .     S
O919   Zn924   2.035   .     S
O919   C921    1.294   .     A
O920   C922    1.285   .     A
O920   Zn923   2.035   .     S
C921   C927    1.428   .     S
C922   C928    1.425   .     S
Zn923  N925    2.002   .     S
Zn924  N926    2.002   .     S
N925   C939    1.365   .     A
N925   C936    1.365   .     A
N926   C940    1.365   .     A
N926   C935    1.365   .     A
C928   C997    1.387   .     S
C928   S1018   1.827   .     S
C929   C934    1.404   .     A
C929   C953    1.525   .     S
C930   C933    1.414   .     A
C930   C960    1.533   .     S
C930   C1142   1.400   .     S
C931   C967    1.529   .     S
C931   C933    1.414   .     A
C931   C1139   1.394   .     S
C932   C934    1.406   .     A
C932   C974    1.524   .     S
C935   H937    1.081   .     S
C936   H938    1.079   .     S
C936   C1570   1.411   .     S
C939   H941    1.080   .     S
C939   C1565   1.411   .     S
C940   H942    1.081   .     S
S943   O944    1.504   .     D
S943   O945    1.504   .     D
S943   C997    1.812   .     S
S943   O1016   1.684   .     S
O946   H947    0.991   .     S
S948   O950    1.502   .     D
S948   O949    1.504   .     D
O951   H952    0.991   .     S
O951   S1018   1.684   .     S
C953   C954    1.529   .     S
C953   H958    1.105   .     S
C953   H959    1.104   .     S
C954   H957    1.106   .     S
C954   H955    1.110   .     S
C954   H956    1.104   .     S
C960   H965    1.109   .     S
C960   C961    1.530   .     S
C960   H966    1.101   .     S
C961   H964    1.111   .     S
C961   H962    1.110   .     S
C961   H963    1.106   .     S
C967   H972    1.109   .     S
C967   C968    1.521   .     S
C967   H973    1.106   .     S
C968   H971    1.105   .     S
C968   H970    1.105   .     S
C968   H969    1.110   .     S
C974   H980    1.107   .     S
C974   C975    1.530   .     S
C974   H979    1.105   .     S
C975   H977    1.108   .     S
C975   H978    1.110   .     S
C975   H976    1.109   .     S
O981   C985    1.273   .     A
O981   Zn993   1.990   .     S
O982   C986    1.275   .     A
O982   Zn994   1.990   .     S
O983   Zn994   1.994   .     S
O983   C985    1.278   .     A
O984   C986    1.278   .     A
O984   Zn993   1.994   .     S
C985   C1004   1.416   .     S
C986   C1003   1.416   .     S
O987   C991    1.268   .     A
O987   Zn993   2.015   .     S
O988   C992    1.277   .     A
O988   Zn994   2.015   .     S
O989   Zn994   2.035   .     S
O989   C991    1.294   .     A
O990   C992    1.285   .     A
O990   Zn993   2.035   .     S
C991   C997    1.428   .     S
C992   C998    1.425   .     S
Zn993  N995    2.002   .     S
Zn994  N996    2.002   .     S
N995   C1009   1.365   .     A
N995   C1006   1.365   .     A
N996   C1010   1.365   .     A
N996   C1005   1.365   .     A
C998   C857    1.387   1_655 S
C998   S878    1.827   1_655 S
C999   C1004   1.404   .     A
C999   C1023   1.525   .     S
C1000  C1003   1.414   .     A
C1000  C1030   1.533   .     S
C1000  C1212   1.400   .     S
C1001  C1037   1.529   .     S
C1001  C1003   1.414   .     A
C1001  C1209   1.394   .     S
C1002  C1004   1.406   .     A
C1002  C1044   1.524   .     S
C1005  H1007   1.081   .     S
C1006  H1008   1.079   .     S
C1006  C1640   1.411   .     S
C1009  H1011   1.080   .     S
C1009  C1635   1.411   .     S
C1010  H1012   1.081   .     S
S1013  O1014   1.504   .     D
S1013  O1015   1.504   .     D
S1013  C857    1.812   1_655 S
S1013  O876    1.684   1_655 S
O1016  H1017   0.991   .     S
S1018  O1020   1.502   .     D
S1018  O1019   1.504   .     D
O1021  H1022   0.991   .     S
O1021  S878    1.684   1_655 S
C1023  C1024   1.529   .     S
C1023  H1028   1.105   .     S
C1023  H1029   1.104   .     S
C1024  H1027   1.106   .     S
C1024  H1025   1.110   .     S
C1024  H1026   1.104   .     S
C1030  H1035   1.109   .     S
C1030  C1031   1.530   .     S
C1030  H1036   1.101   .     S
C1031  H1034   1.111   .     S
C1031  H1032   1.110   .     S
C1031  H1033   1.106   .     S
C1037  H1042   1.109   .     S
C1037  C1038   1.521   .     S
C1037  H1043   1.106   .     S
C1038  H1041   1.105   .     S
C1038  H1040   1.105   .     S
C1038  H1039   1.110   .     S
C1044  H1050   1.107   .     S
C1044  C1045   1.530   .     S
C1044  H1049   1.105   .     S
C1045  H1047   1.108   .     S
C1045  H1048   1.110   .     S
C1045  H1046   1.109   .     S
O1051  C1055   1.273   .     A
O1051  Zn1063  1.990   .     S
O1052  C1056   1.275   .     A
O1052  Zn1064  1.990   .     S
O1053  Zn1064  1.994   .     S
O1053  C1055   1.278   .     A
O1054  C1056   1.278   .     A
O1054  Zn1063  1.994   .     S
C1055  C1074   1.416   .     S
C1056  C1073   1.416   .     S
O1057  C1061   1.268   .     A
O1057  Zn1063  2.015   .     S
O1058  C1062   1.277   .     A
O1058  Zn1064  2.015   .     S
O1059  Zn1064  2.035   .     S
O1059  C1061   1.294   .     A
O1060  C1062   1.285   .     A
O1060  Zn1063  2.035   .     S
C1061  C1067   1.428   .     S
C1062  C1068   1.425   .     S
Zn1063 N1065   2.002   .     S
Zn1064 N1066   2.002   .     S
N1065  C1079   1.365   .     A
N1065  C1076   1.365   .     A
N1066  C1080   1.365   .     A
N1066  C1075   1.365   .     A
C1067  C1208   1.387   1_455 S
C1067  S1223   1.812   1_455 S
C1068  C1137   1.387   .     S
C1068  S1158   1.827   .     S
C1069  C1074   1.404   .     A
C1069  C1093   1.525   .     S
C1070  C1073   1.414   .     A
C1070  C1100   1.533   .     S
C1070  C652    1.400   1_565 S
C1071  C1107   1.529   .     S
C1071  C1073   1.414   .     A
C1071  C649    1.394   1_565 S
C1072  C1074   1.406   .     A
C1072  C1114   1.524   .     S
C1075  H1077   1.081   .     S
C1076  H1078   1.079   .     S
C1076  C1710   1.411   .     S
C1079  H1081   1.080   .     S
C1079  C1705   1.411   .     S
C1080  H1082   1.081   .     S
S1083  O1084   1.504   .     D
S1083  O1085   1.504   .     D
S1083  C1137   1.812   .     S
S1083  O1156   1.684   .     S
O1086  H1087   0.991   .     S
O1086  S1223   1.684   1_455 S
S1088  O1090   1.502   .     D
S1088  O1089   1.504   .     D
S1088  C1208   1.827   1_455 S
S1088  O1231   1.684   1_455 S
O1091  H1092   0.991   .     S
O1091  S1158   1.684   .     S
C1093  C1094   1.529   .     S
C1093  H1098   1.105   .     S
C1093  H1099   1.104   .     S
C1094  H1097   1.106   .     S
C1094  H1095   1.110   .     S
C1094  H1096   1.104   .     S
C1100  H1105   1.109   .     S
C1100  C1101   1.530   .     S
C1100  H1106   1.101   .     S
C1101  H1104   1.111   .     S
C1101  H1102   1.110   .     S
C1101  H1103   1.106   .     S
C1107  H1112   1.109   .     S
C1107  C1108   1.521   .     S
C1107  H1113   1.106   .     S
C1108  H1111   1.105   .     S
C1108  H1110   1.105   .     S
C1108  H1109   1.110   .     S
C1114  H1120   1.107   .     S
C1114  C1115   1.530   .     S
C1114  H1119   1.105   .     S
C1115  H1117   1.108   .     S
C1115  H1118   1.110   .     S
C1115  H1116   1.109   .     S
O1121  C1125   1.273   .     A
O1121  Zn1133  1.990   .     S
O1122  C1126   1.275   .     A
O1122  Zn1134  1.990   .     S
O1123  Zn1134  1.994   .     S
O1123  C1125   1.278   .     A
O1124  C1126   1.278   .     A
O1124  Zn1133  1.994   .     S
C1125  C1144   1.416   .     S
C1126  C1143   1.416   .     S
O1127  C1131   1.268   .     A
O1127  Zn1133  2.015   .     S
O1128  C1132   1.277   .     A
O1128  Zn1134  2.015   .     S
O1129  Zn1134  2.035   .     S
O1129  C1131   1.294   .     A
O1130  C1132   1.285   .     A
O1130  Zn1133  2.035   .     S
C1131  C1137   1.428   .     S
C1132  C1138   1.425   .     S
Zn1133 N1135   2.002   .     S
Zn1134 N1136   2.002   .     S
N1135  C1149   1.365   .     A
N1135  C1146   1.365   .     A
N1136  C1150   1.365   .     A
N1136  C1145   1.365   .     A
C1138  C1207   1.387   .     S
C1138  S1228   1.827   .     S
C1139  C1144   1.404   .     A
C1139  C1163   1.525   .     S
C1140  C1143   1.414   .     A
C1140  C1170   1.533   .     S
C1140  C722    1.400   1_565 S
C1141  C1177   1.529   .     S
C1141  C1143   1.414   .     A
C1141  C719    1.394   1_565 S
C1142  C1144   1.406   .     A
C1142  C1184   1.524   .     S
C1145  H1147   1.081   .     S
C1146  H1148   1.079   .     S
C1146  C1780   1.411   .     S
C1149  H1151   1.080   .     S
C1149  C1775   1.411   .     S
C1150  H1152   1.081   .     S
S1153  O1154   1.504   .     D
S1153  O1155   1.504   .     D
S1153  C1207   1.812   .     S
S1153  O1226   1.684   .     S
O1156  H1157   0.991   .     S
S1158  O1160   1.502   .     D
S1158  O1159   1.504   .     D
O1161  H1162   0.991   .     S
O1161  S1228   1.684   .     S
C1163  C1164   1.529   .     S
C1163  H1168   1.105   .     S
C1163  H1169   1.104   .     S
C1164  H1167   1.106   .     S
C1164  H1165   1.110   .     S
C1164  H1166   1.104   .     S
C1170  H1175   1.109   .     S
C1170  C1171   1.530   .     S
C1170  H1176   1.101   .     S
C1171  H1174   1.111   .     S
C1171  H1172   1.110   .     S
C1171  H1173   1.106   .     S
C1177  H1182   1.109   .     S
C1177  C1178   1.521   .     S
C1177  H1183   1.106   .     S
C1178  H1181   1.105   .     S
C1178  H1180   1.105   .     S
C1178  H1179   1.110   .     S
C1184  H1190   1.107   .     S
C1184  C1185   1.530   .     S
C1184  H1189   1.105   .     S
C1185  H1187   1.108   .     S
C1185  H1188   1.110   .     S
C1185  H1186   1.109   .     S
O1191  C1195   1.273   .     A
O1191  Zn1203  1.990   .     S
O1192  C1196   1.275   .     A
O1192  Zn1204  1.990   .     S
O1193  Zn1204  1.994   .     S
O1193  C1195   1.278   .     A
O1194  C1196   1.278   .     A
O1194  Zn1203  1.994   .     S
C1195  C1214   1.416   .     S
C1196  C1213   1.416   .     S
O1197  C1201   1.268   .     A
O1197  Zn1203  2.015   .     S
O1198  C1202   1.277   .     A
O1198  Zn1204  2.015   .     S
O1199  Zn1204  2.035   .     S
O1199  C1201   1.294   .     A
O1200  C1202   1.285   .     A
O1200  Zn1203  2.035   .     S
C1201  C1207   1.428   .     S
C1202  C1208   1.425   .     S
Zn1203 N1205   2.002   .     S
Zn1204 N1206   2.002   .     S
N1205  C1219   1.365   .     A
N1205  C1216   1.365   .     A
N1206  C1220   1.365   .     A
N1206  C1215   1.365   .     A
C1208  C1067   1.387   1_655 S
C1208  S1088   1.827   1_655 S
C1209  C1214   1.404   .     A
C1209  C1233   1.525   .     S
C1210  C1213   1.414   .     A
C1210  C1240   1.533   .     S
C1210  C792    1.400   1_565 S
C1211  C1247   1.529   .     S
C1211  C1213   1.414   .     A
C1211  C789    1.394   1_565 S
C1212  C1214   1.406   .     A
C1212  C1254   1.524   .     S
C1215  H1217   1.081   .     S
C1216  H1218   1.079   .     S
C1216  C1850   1.411   .     S
C1219  H1221   1.080   .     S
C1219  C1845   1.411   .     S
C1220  H1222   1.081   .     S
S1223  O1224   1.504   .     D
S1223  O1225   1.504   .     D
S1223  C1067   1.812   1_655 S
S1223  O1086   1.684   1_655 S
O1226  H1227   0.991   .     S
S1228  O1230   1.502   .     D
S1228  O1229   1.504   .     D
O1231  H1232   0.991   .     S
O1231  S1088   1.684   1_655 S
C1233  C1234   1.529   .     S
C1233  H1238   1.105   .     S
C1233  H1239   1.104   .     S
C1234  H1237   1.106   .     S
C1234  H1235   1.110   .     S
C1234  H1236   1.104   .     S
C1240  H1245   1.109   .     S
C1240  C1241   1.530   .     S
C1240  H1246   1.101   .     S
C1241  H1244   1.111   .     S
C1241  H1242   1.110   .     S
C1241  H1243   1.106   .     S
C1247  H1252   1.109   .     S
C1247  C1248   1.521   .     S
C1247  H1253   1.106   .     S
C1248  H1251   1.105   .     S
C1248  H1250   1.105   .     S
C1248  H1249   1.110   .     S
C1254  H1260   1.107   .     S
C1254  C1255   1.530   .     S
C1254  H1259   1.105   .     S
C1255  H1257   1.108   .     S
C1255  H1258   1.110   .     S
C1255  H1256   1.109   .     S
O1261  C1265   1.273   .     A
O1261  Zn1273  1.990   .     S
O1262  C1266   1.275   .     A
O1262  Zn1274  1.990   .     S
O1263  Zn1274  1.994   .     S
O1263  C1265   1.278   .     A
O1264  C1266   1.278   .     A
O1264  Zn1273  1.994   .     S
C1265  C1284   1.416   .     S
C1266  C1283   1.416   .     S
O1267  C1271   1.268   .     A
O1267  Zn1273  2.015   .     S
O1268  C1272   1.277   .     A
O1268  Zn1274  2.015   .     S
O1269  Zn1274  2.035   .     S
O1269  C1271   1.294   .     A
O1270  C1272   1.285   .     A
O1270  Zn1273  2.035   .     S
C1271  C1277   1.428   .     S
C1272  C1278   1.425   .     S
Zn1273 N1275   2.002   .     S
Zn1274 N1276   2.002   .     S
N1275  C1289   1.365   .     A
N1275  C1286   1.365   .     A
N1276  C1290   1.365   .     A
N1276  C1285   1.365   .     A
C1277  C1418   1.387   1_455 S
C1277  S1433   1.812   1_455 S
C1278  C1347   1.387   .     S
C1278  S1368   1.827   .     S
C1279  C1284   1.404   .     A
C1279  C1303   1.525   .     S
C1279  C1701   1.394   1_545 S
C1280  C1283   1.414   .     A
C1280  C1310   1.533   .     S
C1280  C1492   1.400   .     S
C1281  C1317   1.529   .     S
C1281  C1283   1.414   .     A
C1281  C1489   1.394   .     S
C1282  C1284   1.406   .     A
C1282  C1324   1.524   .     S
C1282  C1700   1.400   1_545 S
C1285  H1287   1.081   .     S
C1286  H1288   1.079   .     S
C1286  C30     1.411   1_556 S
C1289  H1291   1.080   .     S
C1289  C25     1.411   1_556 S
C1290  H1292   1.081   .     S
S1293  O1294   1.504   .     D
S1293  O1295   1.504   .     D
S1293  C1347   1.812   .     S
S1293  O1366   1.684   .     S
O1296  H1297   0.991   .     S
O1296  S1433   1.684   1_455 S
S1298  O1300   1.502   .     D
S1298  O1299   1.504   .     D
S1298  C1418   1.827   1_455 S
S1298  O1441   1.684   1_455 S
O1301  H1302   0.991   .     S
O1301  S1368   1.684   .     S
C1303  C1304   1.529   .     S
C1303  H1308   1.105   .     S
C1303  H1309   1.104   .     S
C1304  H1307   1.106   .     S
C1304  H1305   1.110   .     S
C1304  H1306   1.104   .     S
C1310  H1315   1.109   .     S
C1310  C1311   1.530   .     S
C1310  H1316   1.101   .     S
C1311  H1314   1.111   .     S
C1311  H1312   1.110   .     S
C1311  H1313   1.106   .     S
C1317  H1322   1.109   .     S
C1317  C1318   1.521   .     S
C1317  H1323   1.106   .     S
C1318  H1321   1.105   .     S
C1318  H1320   1.105   .     S
C1318  H1319   1.110   .     S
C1324  H1330   1.107   .     S
C1324  C1325   1.530   .     S
C1324  H1329   1.105   .     S
C1325  H1327   1.108   .     S
C1325  H1328   1.110   .     S
C1325  H1326   1.109   .     S
O1331  C1335   1.273   .     A
O1331  Zn1343  1.990   .     S
O1332  C1336   1.275   .     A
O1332  Zn1344  1.990   .     S
O1333  Zn1344  1.994   .     S
O1333  C1335   1.278   .     A
O1334  C1336   1.278   .     A
O1334  Zn1343  1.994   .     S
C1335  C1354   1.416   .     S
C1336  C1353   1.416   .     S
O1337  C1341   1.268   .     A
O1337  Zn1343  2.015   .     S
O1338  C1342   1.277   .     A
O1338  Zn1344  2.015   .     S
O1339  Zn1344  2.035   .     S
O1339  C1341   1.294   .     A
O1340  C1342   1.285   .     A
O1340  Zn1343  2.035   .     S
C1341  C1347   1.428   .     S
C1342  C1348   1.425   .     S
Zn1343 N1345   2.002   .     S
Zn1344 N1346   2.002   .     S
N1345  C1359   1.365   .     A
N1345  C1356   1.365   .     A
N1346  C1360   1.365   .     A
N1346  C1355   1.365   .     A
C1348  C1417   1.387   .     S
C1348  S1438   1.827   .     S
C1349  C1354   1.404   .     A
C1349  C1373   1.525   .     S
C1349  C1771   1.394   1_545 S
C1350  C1353   1.414   .     A
C1350  C1380   1.533   .     S
C1350  C1562   1.400   .     S
C1351  C1387   1.529   .     S
C1351  C1353   1.414   .     A
C1351  C1559   1.394   .     S
C1352  C1354   1.406   .     A
C1352  C1394   1.524   .     S
C1352  C1770   1.400   1_545 S
C1355  H1357   1.081   .     S
C1356  H1358   1.079   .     S
C1356  C100    1.411   1_556 S
C1359  H1361   1.080   .     S
C1359  C95     1.411   1_556 S
C1360  H1362   1.081   .     S
S1363  O1364   1.504   .     D
S1363  O1365   1.504   .     D
S1363  C1417   1.812   .     S
S1363  O1436   1.684   .     S
O1366  H1367   0.991   .     S
S1368  O1370   1.502   .     D
S1368  O1369   1.504   .     D
O1371  H1372   0.991   .     S
O1371  S1438   1.684   .     S
C1373  C1374   1.529   .     S
C1373  H1378   1.105   .     S
C1373  H1379   1.104   .     S
C1374  H1377   1.106   .     S
C1374  H1375   1.110   .     S
C1374  H1376   1.104   .     S
C1380  H1385   1.109   .     S
C1380  C1381   1.530   .     S
C1380  H1386   1.101   .     S
C1381  H1384   1.111   .     S
C1381  H1382   1.110   .     S
C1381  H1383   1.106   .     S
C1387  H1392   1.109   .     S
C1387  C1388   1.521   .     S
C1387  H1393   1.106   .     S
C1388  H1391   1.105   .     S
C1388  H1390   1.105   .     S
C1388  H1389   1.110   .     S
C1394  H1400   1.107   .     S
C1394  C1395   1.530   .     S
C1394  H1399   1.105   .     S
C1395  H1397   1.108   .     S
C1395  H1398   1.110   .     S
C1395  H1396   1.109   .     S
O1401  C1405   1.273   .     A
O1401  Zn1413  1.990   .     S
O1402  C1406   1.275   .     A
O1402  Zn1414  1.990   .     S
O1403  Zn1414  1.994   .     S
O1403  C1405   1.278   .     A
O1404  C1406   1.278   .     A
O1404  Zn1413  1.994   .     S
C1405  C1424   1.416   .     S
C1406  C1423   1.416   .     S
O1407  C1411   1.268   .     A
O1407  Zn1413  2.015   .     S
O1408  C1412   1.277   .     A
O1408  Zn1414  2.015   .     S
O1409  Zn1414  2.035   .     S
O1409  C1411   1.294   .     A
O1410  C1412   1.285   .     A
O1410  Zn1413  2.035   .     S
C1411  C1417   1.428   .     S
C1412  C1418   1.425   .     S
Zn1413 N1415   2.002   .     S
Zn1414 N1416   2.002   .     S
N1415  C1429   1.365   .     A
N1415  C1426   1.365   .     A
N1416  C1430   1.365   .     A
N1416  C1425   1.365   .     A
C1418  C1277   1.387   1_655 S
C1418  S1298   1.827   1_655 S
C1419  C1424   1.404   .     A
C1419  C1443   1.525   .     S
C1419  C1841   1.394   1_545 S
C1420  C1423   1.414   .     A
C1420  C1450   1.533   .     S
C1420  C1632   1.400   .     S
C1421  C1457   1.529   .     S
C1421  C1423   1.414   .     A
C1421  C1629   1.394   .     S
C1422  C1424   1.406   .     A
C1422  C1464   1.524   .     S
C1422  C1840   1.400   1_545 S
C1425  H1427   1.081   .     S
C1426  H1428   1.079   .     S
C1426  C170    1.411   1_556 S
C1429  H1431   1.080   .     S
C1429  C165    1.411   1_556 S
C1430  H1432   1.081   .     S
S1433  O1434   1.504   .     D
S1433  O1435   1.504   .     D
S1433  C1277   1.812   1_655 S
S1433  O1296   1.684   1_655 S
O1436  H1437   0.991   .     S
S1438  O1440   1.502   .     D
S1438  O1439   1.504   .     D
O1441  H1442   0.991   .     S
O1441  S1298   1.684   1_655 S
C1443  C1444   1.529   .     S
C1443  H1448   1.105   .     S
C1443  H1449   1.104   .     S
C1444  H1447   1.106   .     S
C1444  H1445   1.110   .     S
C1444  H1446   1.104   .     S
C1450  H1455   1.109   .     S
C1450  C1451   1.530   .     S
C1450  H1456   1.101   .     S
C1451  H1454   1.111   .     S
C1451  H1452   1.110   .     S
C1451  H1453   1.106   .     S
C1457  H1462   1.109   .     S
C1457  C1458   1.521   .     S
C1457  H1463   1.106   .     S
C1458  H1461   1.105   .     S
C1458  H1460   1.105   .     S
C1458  H1459   1.110   .     S
C1464  H1470   1.107   .     S
C1464  C1465   1.530   .     S
C1464  H1469   1.105   .     S
C1465  H1467   1.108   .     S
C1465  H1468   1.110   .     S
C1465  H1466   1.109   .     S
O1471  C1475   1.273   .     A
O1471  Zn1483  1.990   .     S
O1472  C1476   1.275   .     A
O1472  Zn1484  1.990   .     S
O1473  Zn1484  1.994   .     S
O1473  C1475   1.278   .     A
O1474  C1476   1.278   .     A
O1474  Zn1483  1.994   .     S
C1475  C1494   1.416   .     S
C1476  C1493   1.416   .     S
O1477  C1481   1.268   .     A
O1477  Zn1483  2.015   .     S
O1478  C1482   1.277   .     A
O1478  Zn1484  2.015   .     S
O1479  Zn1484  2.035   .     S
O1479  C1481   1.294   .     A
O1480  C1482   1.285   .     A
O1480  Zn1483  2.035   .     S
C1481  C1487   1.428   .     S
C1482  C1488   1.425   .     S
Zn1483 N1485   2.002   .     S
Zn1484 N1486   2.002   .     S
N1485  C1499   1.365   .     A
N1485  C1496   1.365   .     A
N1486  C1500   1.365   .     A
N1486  C1495   1.365   .     A
C1487  C1628   1.387   1_455 S
C1487  S1643   1.812   1_455 S
C1488  C1557   1.387   .     S
C1488  S1578   1.827   .     S
C1489  C1494   1.404   .     A
C1489  C1513   1.525   .     S
C1490  C1493   1.414   .     A
C1490  C1520   1.533   .     S
C1490  C1702   1.400   .     S
C1491  C1527   1.529   .     S
C1491  C1493   1.414   .     A
C1491  C1699   1.394   .     S
C1492  C1494   1.406   .     A
C1492  C1534   1.524   .     S
C1495  H1497   1.081   .     S
C1496  H1498   1.079   .     S
C1496  C240    1.411   1_556 S
C1499  H1501   1.080   .     S
C1499  C235    1.411   1_556 S
C1500  H1502   1.081   .     S
S1503  O1504   1.504   .     D
S1503  O1505   1.504   .     D
S1503  C1557   1.812   .     S
S1503  O1576   1.684   .     S
O1506  H1507   0.991   .     S
O1506  S1643   1.684   1_455 S
S1508  O1510   1.502   .     D
S1508  O1509   1.504   .     D
S1508  C1628   1.827   1_455 S
S1508  O1651   1.684   1_455 S
O1511  H1512   0.991   .     S
O1511  S1578   1.684   .     S
C1513  C1514   1.529   .     S
C1513  H1518   1.105   .     S
C1513  H1519   1.104   .     S
C1514  H1517   1.106   .     S
C1514  H1515   1.110   .     S
C1514  H1516   1.104   .     S
C1520  H1525   1.109   .     S
C1520  C1521   1.530   .     S
C1520  H1526   1.101   .     S
C1521  H1524   1.111   .     S
C1521  H1522   1.110   .     S
C1521  H1523   1.106   .     S
C1527  H1532   1.109   .     S
C1527  C1528   1.521   .     S
C1527  H1533   1.106   .     S
C1528  H1531   1.105   .     S
C1528  H1530   1.105   .     S
C1528  H1529   1.110   .     S
C1534  H1540   1.107   .     S
C1534  C1535   1.530   .     S
C1534  H1539   1.105   .     S
C1535  H1537   1.108   .     S
C1535  H1538   1.110   .     S
C1535  H1536   1.109   .     S
O1541  C1545   1.273   .     A
O1541  Zn1553  1.990   .     S
O1542  C1546   1.275   .     A
O1542  Zn1554  1.990   .     S
O1543  Zn1554  1.994   .     S
O1543  C1545   1.278   .     A
O1544  C1546   1.278   .     A
O1544  Zn1553  1.994   .     S
C1545  C1564   1.416   .     S
C1546  C1563   1.416   .     S
O1547  C1551   1.268   .     A
O1547  Zn1553  2.015   .     S
O1548  C1552   1.277   .     A
O1548  Zn1554  2.015   .     S
O1549  Zn1554  2.035   .     S
O1549  C1551   1.294   .     A
O1550  C1552   1.285   .     A
O1550  Zn1553  2.035   .     S
C1551  C1557   1.428   .     S
C1552  C1558   1.425   .     S
Zn1553 N1555   2.002   .     S
Zn1554 N1556   2.002   .     S
N1555  C1569   1.365   .     A
N1555  C1566   1.365   .     A
N1556  C1570   1.365   .     A
N1556  C1565   1.365   .     A
C1558  C1627   1.387   .     S
C1558  S1648   1.827   .     S
C1559  C1564   1.404   .     A
C1559  C1583   1.525   .     S
C1560  C1563   1.414   .     A
C1560  C1590   1.533   .     S
C1560  C1772   1.400   .     S
C1561  C1597   1.529   .     S
C1561  C1563   1.414   .     A
C1561  C1769   1.394   .     S
C1562  C1564   1.406   .     A
C1562  C1604   1.524   .     S
C1565  H1567   1.081   .     S
C1566  H1568   1.079   .     S
C1566  C310    1.411   1_556 S
C1569  H1571   1.080   .     S
C1569  C305    1.411   1_556 S
C1570  H1572   1.081   .     S
S1573  O1574   1.504   .     D
S1573  O1575   1.504   .     D
S1573  C1627   1.812   .     S
S1573  O1646   1.684   .     S
O1576  H1577   0.991   .     S
S1578  O1580   1.502   .     D
S1578  O1579   1.504   .     D
O1581  H1582   0.991   .     S
O1581  S1648   1.684   .     S
C1583  C1584   1.529   .     S
C1583  H1588   1.105   .     S
C1583  H1589   1.104   .     S
C1584  H1587   1.106   .     S
C1584  H1585   1.110   .     S
C1584  H1586   1.104   .     S
C1590  H1595   1.109   .     S
C1590  C1591   1.530   .     S
C1590  H1596   1.101   .     S
C1591  H1594   1.111   .     S
C1591  H1592   1.110   .     S
C1591  H1593   1.106   .     S
C1597  H1602   1.109   .     S
C1597  C1598   1.521   .     S
C1597  H1603   1.106   .     S
C1598  H1601   1.105   .     S
C1598  H1600   1.105   .     S
C1598  H1599   1.110   .     S
C1604  H1610   1.107   .     S
C1604  C1605   1.530   .     S
C1604  H1609   1.105   .     S
C1605  H1607   1.108   .     S
C1605  H1608   1.110   .     S
C1605  H1606   1.109   .     S
O1611  C1615   1.273   .     A
O1611  Zn1623  1.990   .     S
O1612  C1616   1.275   .     A
O1612  Zn1624  1.990   .     S
O1613  Zn1624  1.994   .     S
O1613  C1615   1.278   .     A
O1614  C1616   1.278   .     A
O1614  Zn1623  1.994   .     S
C1615  C1634   1.416   .     S
C1616  C1633   1.416   .     S
O1617  C1621   1.268   .     A
O1617  Zn1623  2.015   .     S
O1618  C1622   1.277   .     A
O1618  Zn1624  2.015   .     S
O1619  Zn1624  2.035   .     S
O1619  C1621   1.294   .     A
O1620  C1622   1.285   .     A
O1620  Zn1623  2.035   .     S
C1621  C1627   1.428   .     S
C1622  C1628   1.425   .     S
Zn1623 N1625   2.002   .     S
Zn1624 N1626   2.002   .     S
N1625  C1639   1.365   .     A
N1625  C1636   1.365   .     A
N1626  C1640   1.365   .     A
N1626  C1635   1.365   .     A
C1628  C1487   1.387   1_655 S
C1628  S1508   1.827   1_655 S
C1629  C1634   1.404   .     A
C1629  C1653   1.525   .     S
C1630  C1633   1.414   .     A
C1630  C1660   1.533   .     S
C1630  C1842   1.400   .     S
C1631  C1667   1.529   .     S
C1631  C1633   1.414   .     A
C1631  C1839   1.394   .     S
C1632  C1634   1.406   .     A
C1632  C1674   1.524   .     S
C1635  H1637   1.081   .     S
C1636  H1638   1.079   .     S
C1636  C380    1.411   1_556 S
C1639  H1641   1.080   .     S
C1639  C375    1.411   1_556 S
C1640  H1642   1.081   .     S
S1643  O1644   1.504   .     D
S1643  O1645   1.504   .     D
S1643  C1487   1.812   1_655 S
S1643  O1506   1.684   1_655 S
O1646  H1647   0.991   .     S
S1648  O1650   1.502   .     D
S1648  O1649   1.504   .     D
O1651  H1652   0.991   .     S
O1651  S1508   1.684   1_655 S
C1653  C1654   1.529   .     S
C1653  H1658   1.105   .     S
C1653  H1659   1.104   .     S
C1654  H1657   1.106   .     S
C1654  H1655   1.110   .     S
C1654  H1656   1.104   .     S
C1660  H1665   1.109   .     S
C1660  C1661   1.530   .     S
C1660  H1666   1.101   .     S
C1661  H1664   1.111   .     S
C1661  H1662   1.110   .     S
C1661  H1663   1.106   .     S
C1667  H1672   1.109   .     S
C1667  C1668   1.521   .     S
C1667  H1673   1.106   .     S
C1668  H1671   1.105   .     S
C1668  H1670   1.105   .     S
C1668  H1669   1.110   .     S
C1674  H1680   1.107   .     S
C1674  C1675   1.530   .     S
C1674  H1679   1.105   .     S
C1675  H1677   1.108   .     S
C1675  H1678   1.110   .     S
C1675  H1676   1.109   .     S
O1681  C1685   1.273   .     A
O1681  Zn1693  1.990   .     S
O1682  C1686   1.275   .     A
O1682  Zn1694  1.990   .     S
O1683  Zn1694  1.994   .     S
O1683  C1685   1.278   .     A
O1684  C1686   1.278   .     A
O1684  Zn1693  1.994   .     S
C1685  C1704   1.416   .     S
C1686  C1703   1.416   .     S
O1687  C1691   1.268   .     A
O1687  Zn1693  2.015   .     S
O1688  C1692   1.277   .     A
O1688  Zn1694  2.015   .     S
O1689  Zn1694  2.035   .     S
O1689  C1691   1.294   .     A
O1690  C1692   1.285   .     A
O1690  Zn1693  2.035   .     S
C1691  C1697   1.428   .     S
C1692  C1698   1.425   .     S
Zn1693 N1695   2.002   .     S
Zn1694 N1696   2.002   .     S
N1695  C1709   1.365   .     A
N1695  C1706   1.365   .     A
N1696  C1710   1.365   .     A
N1696  C1705   1.365   .     A
C1697  C1838   1.387   1_455 S
C1697  S1853   1.812   1_455 S
C1698  C1767   1.387   .     S
C1698  S1788   1.827   .     S
C1699  C1704   1.404   .     A
C1699  C1723   1.525   .     S
C1700  C1703   1.414   .     A
C1700  C1730   1.533   .     S
C1700  C1282   1.400   1_565 S
C1701  C1737   1.529   .     S
C1701  C1703   1.414   .     A
C1701  C1279   1.394   1_565 S
C1702  C1704   1.406   .     A
C1702  C1744   1.524   .     S
C1705  H1707   1.081   .     S
C1706  H1708   1.079   .     S
C1706  C450    1.411   1_556 S
C1709  H1711   1.080   .     S
C1709  C445    1.411   1_556 S
C1710  H1712   1.081   .     S
S1713  O1714   1.504   .     D
S1713  O1715   1.504   .     D
S1713  C1767   1.812   .     S
S1713  O1786   1.684   .     S
O1716  H1717   0.991   .     S
O1716  S1853   1.684   1_455 S
S1718  O1720   1.502   .     D
S1718  O1719   1.504   .     D
S1718  C1838   1.827   1_455 S
S1718  O1861   1.684   1_455 S
O1721  H1722   0.991   .     S
O1721  S1788   1.684   .     S
C1723  C1724   1.529   .     S
C1723  H1728   1.105   .     S
C1723  H1729   1.104   .     S
C1724  H1727   1.106   .     S
C1724  H1725   1.110   .     S
C1724  H1726   1.104   .     S
C1730  H1735   1.109   .     S
C1730  C1731   1.530   .     S
C1730  H1736   1.101   .     S
C1731  H1734   1.111   .     S
C1731  H1732   1.110   .     S
C1731  H1733   1.106   .     S
C1737  H1742   1.109   .     S
C1737  C1738   1.521   .     S
C1737  H1743   1.106   .     S
C1738  H1741   1.105   .     S
C1738  H1740   1.105   .     S
C1738  H1739   1.110   .     S
C1744  H1750   1.107   .     S
C1744  C1745   1.530   .     S
C1744  H1749   1.105   .     S
C1745  H1747   1.108   .     S
C1745  H1748   1.110   .     S
C1745  H1746   1.109   .     S
O1751  C1755   1.273   .     A
O1751  Zn1763  1.990   .     S
O1752  C1756   1.275   .     A
O1752  Zn1764  1.990   .     S
O1753  Zn1764  1.994   .     S
O1753  C1755   1.278   .     A
O1754  C1756   1.278   .     A
O1754  Zn1763  1.994   .     S
C1755  C1774   1.416   .     S
C1756  C1773   1.416   .     S
O1757  C1761   1.268   .     A
O1757  Zn1763  2.015   .     S
O1758  C1762   1.277   .     A
O1758  Zn1764  2.015   .     S
O1759  Zn1764  2.035   .     S
O1759  C1761   1.294   .     A
O1760  C1762   1.285   .     A
O1760  Zn1763  2.035   .     S
C1761  C1767   1.428   .     S
C1762  C1768   1.425   .     S
Zn1763 N1765   2.002   .     S
Zn1764 N1766   2.002   .     S
N1765  C1779   1.365   .     A
N1765  C1776   1.365   .     A
N1766  C1780   1.365   .     A
N1766  C1775   1.365   .     A
C1768  C1837   1.387   .     S
C1768  S1858   1.827   .     S
C1769  C1774   1.404   .     A
C1769  C1793   1.525   .     S
C1770  C1773   1.414   .     A
C1770  C1800   1.533   .     S
C1770  C1352   1.400   1_565 S
C1771  C1807   1.529   .     S
C1771  C1773   1.414   .     A
C1771  C1349   1.394   1_565 S
C1772  C1774   1.406   .     A
C1772  C1814   1.524   .     S
C1775  H1777   1.081   .     S
C1776  H1778   1.079   .     S
C1776  C520    1.411   1_556 S
C1779  H1781   1.080   .     S
C1779  C515    1.411   1_556 S
C1780  H1782   1.081   .     S
S1783  O1784   1.504   .     D
S1783  O1785   1.504   .     D
S1783  C1837   1.812   .     S
S1783  O1856   1.684   .     S
O1786  H1787   0.991   .     S
S1788  O1790   1.502   .     D
S1788  O1789   1.504   .     D
O1791  H1792   0.991   .     S
O1791  S1858   1.684   .     S
C1793  C1794   1.529   .     S
C1793  H1798   1.105   .     S
C1793  H1799   1.104   .     S
C1794  H1797   1.106   .     S
C1794  H1795   1.110   .     S
C1794  H1796   1.104   .     S
C1800  H1805   1.109   .     S
C1800  C1801   1.530   .     S
C1800  H1806   1.101   .     S
C1801  H1804   1.111   .     S
C1801  H1802   1.110   .     S
C1801  H1803   1.106   .     S
C1807  H1812   1.109   .     S
C1807  C1808   1.521   .     S
C1807  H1813   1.106   .     S
C1808  H1811   1.105   .     S
C1808  H1810   1.105   .     S
C1808  H1809   1.110   .     S
C1814  H1820   1.107   .     S
C1814  C1815   1.530   .     S
C1814  H1819   1.105   .     S
C1815  H1817   1.108   .     S
C1815  H1818   1.110   .     S
C1815  H1816   1.109   .     S
O1821  C1825   1.273   .     A
O1821  Zn1833  1.990   .     S
O1822  C1826   1.275   .     A
O1822  Zn1834  1.990   .     S
O1823  Zn1834  1.994   .     S
O1823  C1825   1.278   .     A
O1824  C1826   1.278   .     A
O1824  Zn1833  1.994   .     S
C1825  C1844   1.416   .     S
C1826  C1843   1.416   .     S
O1827  C1831   1.268   .     A
O1827  Zn1833  2.015   .     S
O1828  C1832   1.277   .     A
O1828  Zn1834  2.015   .     S
O1829  Zn1834  2.035   .     S
O1829  C1831   1.294   .     A
O1830  C1832   1.285   .     A
O1830  Zn1833  2.035   .     S
C1831  C1837   1.428   .     S
C1832  C1838   1.425   .     S
Zn1833 N1835   2.002   .     S
Zn1834 N1836   2.002   .     S
N1835  C1849   1.365   .     A
N1835  C1846   1.365   .     A
N1836  C1850   1.365   .     A
N1836  C1845   1.365   .     A
C1838  C1697   1.387   1_655 S
C1838  S1718   1.827   1_655 S
C1839  C1844   1.404   .     A
C1839  C1863   1.525   .     S
C1840  C1843   1.414   .     A
C1840  C1870   1.533   .     S
C1840  C1422   1.400   1_565 S
C1841  C1877   1.529   .     S
C1841  C1843   1.414   .     A
C1841  C1419   1.394   1_565 S
C1842  C1844   1.406   .     A
C1842  C1884   1.524   .     S
C1845  H1847   1.081   .     S
C1846  H1848   1.079   .     S
C1846  C590    1.411   1_556 S
C1849  H1851   1.080   .     S
C1849  C585    1.411   1_556 S
C1850  H1852   1.081   .     S
S1853  O1854   1.504   .     D
S1853  O1855   1.504   .     D
S1853  C1697   1.812   1_655 S
S1853  O1716   1.684   1_655 S
O1856  H1857   0.991   .     S
S1858  O1860   1.502   .     D
S1858  O1859   1.504   .     D
O1861  H1862   0.991   .     S
O1861  S1718   1.684   1_655 S
C1863  C1864   1.529   .     S
C1863  H1868   1.105   .     S
C1863  H1869   1.104   .     S
C1864  H1867   1.106   .     S
C1864  H1865   1.110   .     S
C1864  H1866   1.104   .     S
C1870  H1875   1.109   .     S
C1870  C1871   1.530   .     S
C1870  H1876   1.101   .     S
C1871  H1874   1.111   .     S
C1871  H1872   1.110   .     S
C1871  H1873   1.106   .     S
C1877  H1882   1.109   .     S
C1877  C1878   1.521   .     S
C1877  H1883   1.106   .     S
C1878  H1881   1.105   .     S
C1878  H1880   1.105   .     S
C1878  H1879   1.110   .     S
C1884  H1890   1.107   .     S
C1884  C1885   1.530   .     S
C1884  H1889   1.105   .     S
C1885  H1887   1.108   .     S
C1885  H1888   1.110   .     S
C1885  H1886   1.109   .     S
