data_str_m2_o10_o16_pcu_sym.55
_audit_creation_date              2020-01-03
_audit_creation_method            'Materials Studio'
_symmetry_space_group_name_H-M    'P1'
_symmetry_Int_Tables_number       1
_symmetry_cell_setting            triclinic
loop_
_symmetry_equiv_pos_as_xyz
  x,y,z
_cell_length_a                    22.3989
_cell_length_b                    26.0745
_cell_length_c                    26.7493
_cell_angle_alpha                 94.6002
_cell_angle_beta                  77.4445
_cell_angle_gamma                 103.3411
loop_
_atom_site_label
_atom_site_type_symbol
_atom_site_fract_x
_atom_site_fract_y
_atom_site_fract_z
_atom_site_U_iso_or_equiv
_atom_site_adp_type
_atom_site_occupancy
C1     C     0.18182   0.26672   0.25152   0.00000  Uiso   1.00
C2     C     0.11261   0.16589   0.40348   0.00000  Uiso   1.00
C3     C     0.19026   0.32277   0.25225   0.00000  Uiso   1.00
C4     C     0.13327   0.16602   0.34724   0.00000  Uiso   1.00
C5     C     0.14313   0.01057   0.24760   0.00000  Uiso   1.00
C6     C     0.15153   0.06661   0.24842   0.00000  Uiso   1.00
C7     C     0.20041   0.16990   0.15300   0.00000  Uiso   1.00
C8     C     0.28874   0.23313   0.03016   0.00000  Uiso   1.00
C9     C     0.22098   0.17860   0.09791   0.00000  Uiso   1.00
C10    C     0.05053   0.14148   0.42483   0.00000  Uiso   1.00
C11    C     0.03179   0.13456   0.47732   0.00000  Uiso   1.00
C12    C     0.13929   0.17027   0.48795   0.00000  Uiso   1.00
C13    C     0.07556   0.14832   0.00863   0.00000  Uiso   1.00
C14    C     0.32769   0.11935   0.19811   0.00000  Uiso   1.00
C15    C     0.13718   0.10659   0.07736   0.00000  Uiso   1.00
C16    C     0.15549   0.18545   0.43622   0.00000  Uiso   1.00
C17    C     0.18655   0.18111   0.01786   0.00000  Uiso   1.00
C18    C     0.24398   0.21714   0.49944   0.00000  Uiso   1.00
C19    C     0.25596   0.23740   0.45074   0.00000  Uiso   1.00
C20    C     0.21291   0.22127   0.41927   0.00000  Uiso   1.00
C21    C     0.17961   0.15722   0.06509   0.00000  Uiso   1.00
C22    C     0.27627   0.21544   0.07980   0.00000  Uiso   1.00
Cu23   Cu    0.10710   0.16105   0.24436   0.00000  Uiso   1.00
Cu24   Cu    0.22623   0.17228   0.25565   0.00000  Uiso   1.00
H25    H     0.30887   0.23175   0.10454   0.00000  Uiso   1.00
H26    H     0.23558   0.01341   0.25667   0.00000  Uiso   1.00
H27    H     0.09781   0.31992   0.24319   0.00000  Uiso   1.00
H28    H     0.00291   0.20513   0.29084   0.00000  Uiso   1.00
H29    H     0.29919   0.26552   0.43663   0.00000  Uiso   1.00
H30    H     0.33221   0.26117   0.01656   0.00000  Uiso   1.00
H31    H     0.01645   0.12737   0.40089   0.00000  Uiso   1.00
H32    H     0.05807   0.14380   0.04931   0.00000  Uiso   1.00
H33    H     0.31662   0.11743   0.49376   0.00000  Uiso   1.00
H34    H     0.22400   0.23950   0.38254   0.00000  Uiso   1.00
N35    N     0.31574   0.18074   0.26416   0.00000  Uiso   1.00
N36    N     0.01759   0.15259   0.23584   0.00000  Uiso   1.00
N37    N     0.30913   0.09133   0.16638   0.00000  Uiso   1.00
N38    N     0.10366   0.06611   0.08720   0.00000  Uiso   1.00
O39    O     0.12797   0.23807   0.24633   0.00000  Uiso   1.00
O40    O     0.22858   0.24755   0.25587   0.00000  Uiso   1.00
O41    O     0.09181   0.15960   0.31840   0.00000  Uiso   1.00
O42    O     0.19242   0.16908   0.32793   0.00000  Uiso   1.00
O43    O     0.10476   0.08578   0.24414   0.00000  Uiso   1.00
O44    O     0.20536   0.09526   0.25367   0.00000  Uiso   1.00
O45    O     0.14092   0.16425   0.17207   0.00000  Uiso   1.00
O46    O     0.24152   0.17373   0.18161   0.00000  Uiso   1.00
C47    C     0.51515   0.26672   0.25152   0.00000  Uiso   1.00
C48    C     0.44595   0.16589   0.40348   0.00000  Uiso   1.00
C49    C     0.52359   0.32277   0.25225   0.00000  Uiso   1.00
C50    C     0.46660   0.16602   0.34724   0.00000  Uiso   1.00
C51    C     0.47647   0.01057   0.24760   0.00000  Uiso   1.00
C52    C     0.48487   0.06661   0.24842   0.00000  Uiso   1.00
C53    C     0.53375   0.16990   0.15300   0.00000  Uiso   1.00
C54    C     0.62207   0.23313   0.03016   0.00000  Uiso   1.00
C55    C     0.55431   0.17860   0.09791   0.00000  Uiso   1.00
C56    C     0.38387   0.14148   0.42483   0.00000  Uiso   1.00
C57    C     0.36512   0.13456   0.47732   0.00000  Uiso   1.00
C58    C     0.47262   0.17027   0.48795   0.00000  Uiso   1.00
C59    C     0.40889   0.14832   0.00863   0.00000  Uiso   1.00
C60    C     0.66103   0.11935   0.19811   0.00000  Uiso   1.00
C61    C     0.47051   0.10659   0.07736   0.00000  Uiso   1.00
C62    C     0.48882   0.18545   0.43622   0.00000  Uiso   1.00
C63    C     0.51988   0.18111   0.01786   0.00000  Uiso   1.00
C64    C     0.57732   0.21714   0.49944   0.00000  Uiso   1.00
C65    C     0.58929   0.23740   0.45074   0.00000  Uiso   1.00
C66    C     0.54624   0.22127   0.41927   0.00000  Uiso   1.00
C67    C     0.51295   0.15722   0.06509   0.00000  Uiso   1.00
C68    C     0.60960   0.21544   0.07980   0.00000  Uiso   1.00
Cu69   Cu    0.44043   0.16105   0.24436   0.00000  Uiso   1.00
Cu70   Cu    0.55957   0.17228   0.25565   0.00000  Uiso   1.00
H71    H     0.64221   0.23175   0.10454   0.00000  Uiso   1.00
H72    H     0.56891   0.01341   0.25667   0.00000  Uiso   1.00
H73    H     0.43114   0.31992   0.24319   0.00000  Uiso   1.00
H74    H     0.33625   0.20513   0.29084   0.00000  Uiso   1.00
H75    H     0.63252   0.26552   0.43663   0.00000  Uiso   1.00
H76    H     0.66554   0.26117   0.01656   0.00000  Uiso   1.00
H77    H     0.34978   0.12737   0.40089   0.00000  Uiso   1.00
H78    H     0.39141   0.14380   0.04931   0.00000  Uiso   1.00
H79    H     0.64996   0.11743   0.49376   0.00000  Uiso   1.00
H80    H     0.55733   0.23950   0.38254   0.00000  Uiso   1.00
N81    N     0.64908   0.18074   0.26416   0.00000  Uiso   1.00
N82    N     0.35092   0.15259   0.23584   0.00000  Uiso   1.00
N83    N     0.64246   0.09133   0.16638   0.00000  Uiso   1.00
N84    N     0.43699   0.06611   0.08720   0.00000  Uiso   1.00
O85    O     0.46131   0.23807   0.24633   0.00000  Uiso   1.00
O86    O     0.56191   0.24755   0.25587   0.00000  Uiso   1.00
O87    O     0.42515   0.15960   0.31840   0.00000  Uiso   1.00
O88    O     0.52575   0.16908   0.32793   0.00000  Uiso   1.00
O89    O     0.43809   0.08578   0.24414   0.00000  Uiso   1.00
O90    O     0.53869   0.09526   0.25367   0.00000  Uiso   1.00
O91    O     0.47425   0.16425   0.17207   0.00000  Uiso   1.00
O92    O     0.57485   0.17373   0.18161   0.00000  Uiso   1.00
C93    C     0.84848   0.26672   0.25152   0.00000  Uiso   1.00
C94    C     0.77928   0.16589   0.40348   0.00000  Uiso   1.00
C95    C     0.85692   0.32277   0.25225   0.00000  Uiso   1.00
C96    C     0.79994   0.16602   0.34724   0.00000  Uiso   1.00
C97    C     0.80980   0.01057   0.24760   0.00000  Uiso   1.00
C98    C     0.81820   0.06661   0.24842   0.00000  Uiso   1.00
C99    C     0.86708   0.16990   0.15300   0.00000  Uiso   1.00
C100   C     0.95541   0.23313   0.03016   0.00000  Uiso   1.00
C101   C     0.88764   0.17860   0.09791   0.00000  Uiso   1.00
C102   C     0.71720   0.14148   0.42483   0.00000  Uiso   1.00
C103   C     0.69845   0.13456   0.47732   0.00000  Uiso   1.00
C104   C     0.80595   0.17027   0.48795   0.00000  Uiso   1.00
C105   C     0.74222   0.14832   0.00863   0.00000  Uiso   1.00
C106   C     0.99436   0.11935   0.19811   0.00000  Uiso   1.00
C107   C     0.80384   0.10659   0.07736   0.00000  Uiso   1.00
C108   C     0.82215   0.18545   0.43622   0.00000  Uiso   1.00
C109   C     0.85321   0.18111   0.01786   0.00000  Uiso   1.00
C110   C     0.91065   0.21714   0.49944   0.00000  Uiso   1.00
C111   C     0.92262   0.23740   0.45074   0.00000  Uiso   1.00
C112   C     0.87957   0.22127   0.41927   0.00000  Uiso   1.00
C113   C     0.84628   0.15722   0.06509   0.00000  Uiso   1.00
C114   C     0.94293   0.21544   0.07980   0.00000  Uiso   1.00
Cu115  Cu    0.77377   0.16105   0.24436   0.00000  Uiso   1.00
Cu116  Cu    0.89290   0.17228   0.25565   0.00000  Uiso   1.00
H117   H     0.97554   0.23175   0.10454   0.00000  Uiso   1.00
H118   H     0.90225   0.01341   0.25667   0.00000  Uiso   1.00
H119   H     0.76448   0.31992   0.24319   0.00000  Uiso   1.00
H120   H     0.66958   0.20513   0.29084   0.00000  Uiso   1.00
H121   H     0.96585   0.26552   0.43663   0.00000  Uiso   1.00
H122   H     0.99888   0.26117   0.01656   0.00000  Uiso   1.00
H123   H     0.68312   0.12737   0.40089   0.00000  Uiso   1.00
H124   H     0.72474   0.14380   0.04931   0.00000  Uiso   1.00
H125   H     0.98329   0.11743   0.49376   0.00000  Uiso   1.00
H126   H     0.89067   0.23950   0.38254   0.00000  Uiso   1.00
N127   N     0.98241   0.18074   0.26416   0.00000  Uiso   1.00
N128   N     0.68426   0.15259   0.23584   0.00000  Uiso   1.00
N129   N     0.97579   0.09133   0.16638   0.00000  Uiso   1.00
N130   N     0.77033   0.06611   0.08720   0.00000  Uiso   1.00
O131   O     0.79464   0.23807   0.24633   0.00000  Uiso   1.00
O132   O     0.89524   0.24755   0.25587   0.00000  Uiso   1.00
O133   O     0.75848   0.15960   0.31840   0.00000  Uiso   1.00
O134   O     0.85908   0.16908   0.32793   0.00000  Uiso   1.00
O135   O     0.77142   0.08578   0.24414   0.00000  Uiso   1.00
O136   O     0.87203   0.09526   0.25367   0.00000  Uiso   1.00
O137   O     0.80758   0.16425   0.17207   0.00000  Uiso   1.00
O138   O     0.90819   0.17373   0.18161   0.00000  Uiso   1.00
C139   C     0.18182   0.60006   0.25152   0.00000  Uiso   1.00
C140   C     0.11261   0.49922   0.40348   0.00000  Uiso   1.00
C141   C     0.19026   0.65610   0.25225   0.00000  Uiso   1.00
C142   C     0.13327   0.49935   0.34724   0.00000  Uiso   1.00
C143   C     0.14313   0.34390   0.24760   0.00000  Uiso   1.00
C144   C     0.15153   0.39994   0.24842   0.00000  Uiso   1.00
C145   C     0.20041   0.50323   0.15300   0.00000  Uiso   1.00
C146   C     0.28874   0.56647   0.03016   0.00000  Uiso   1.00
C147   C     0.22098   0.51193   0.09791   0.00000  Uiso   1.00
C148   C     0.05053   0.47482   0.42483   0.00000  Uiso   1.00
C149   C     0.03179   0.46789   0.47732   0.00000  Uiso   1.00
C150   C     0.13929   0.50361   0.48795   0.00000  Uiso   1.00
C151   C     0.07556   0.48165   0.00863   0.00000  Uiso   1.00
C152   C     0.32769   0.45268   0.19811   0.00000  Uiso   1.00
C153   C     0.13718   0.43993   0.07736   0.00000  Uiso   1.00
C154   C     0.15549   0.51878   0.43622   0.00000  Uiso   1.00
C155   C     0.18655   0.51444   0.01786   0.00000  Uiso   1.00
C156   C     0.24398   0.55047   0.49944   0.00000  Uiso   1.00
C157   C     0.25596   0.57073   0.45074   0.00000  Uiso   1.00
C158   C     0.21291   0.55460   0.41927   0.00000  Uiso   1.00
C159   C     0.17961   0.49055   0.06509   0.00000  Uiso   1.00
C160   C     0.27627   0.54877   0.07980   0.00000  Uiso   1.00
Cu161  Cu    0.10710   0.49439   0.24436   0.00000  Uiso   1.00
Cu162  Cu    0.22623   0.50561   0.25565   0.00000  Uiso   1.00
H163   H     0.30887   0.56508   0.10454   0.00000  Uiso   1.00
H164   H     0.23558   0.34674   0.25667   0.00000  Uiso   1.00
H165   H     0.09781   0.65326   0.24319   0.00000  Uiso   1.00
H166   H     0.00291   0.53846   0.29084   0.00000  Uiso   1.00
H167   H     0.29919   0.59885   0.43663   0.00000  Uiso   1.00
H168   H     0.33221   0.59450   0.01656   0.00000  Uiso   1.00
H169   H     0.01645   0.46071   0.40089   0.00000  Uiso   1.00
H170   H     0.05807   0.47713   0.04931   0.00000  Uiso   1.00
H171   H     0.31662   0.45076   0.49376   0.00000  Uiso   1.00
H172   H     0.22400   0.57283   0.38254   0.00000  Uiso   1.00
N173   N     0.31574   0.51407   0.26416   0.00000  Uiso   1.00
N174   N     0.01759   0.48593   0.23584   0.00000  Uiso   1.00
N175   N     0.30913   0.42466   0.16638   0.00000  Uiso   1.00
N176   N     0.10366   0.39944   0.08720   0.00000  Uiso   1.00
O177   O     0.12797   0.57141   0.24633   0.00000  Uiso   1.00
O178   O     0.22858   0.58089   0.25587   0.00000  Uiso   1.00
O179   O     0.09181   0.49293   0.31840   0.00000  Uiso   1.00
O180   O     0.19242   0.50241   0.32793   0.00000  Uiso   1.00
O181   O     0.10476   0.41911   0.24414   0.00000  Uiso   1.00
O182   O     0.20536   0.42859   0.25367   0.00000  Uiso   1.00
O183   O     0.14092   0.49759   0.17207   0.00000  Uiso   1.00
O184   O     0.24152   0.50707   0.18161   0.00000  Uiso   1.00
C185   C     0.51515   0.60006   0.25152   0.00000  Uiso   1.00
C186   C     0.44595   0.49922   0.40348   0.00000  Uiso   1.00
C187   C     0.52359   0.65610   0.25225   0.00000  Uiso   1.00
C188   C     0.46660   0.49935   0.34724   0.00000  Uiso   1.00
C189   C     0.47647   0.34390   0.24760   0.00000  Uiso   1.00
C190   C     0.48487   0.39994   0.24842   0.00000  Uiso   1.00
C191   C     0.53375   0.50323   0.15300   0.00000  Uiso   1.00
C192   C     0.62207   0.56647   0.03016   0.00000  Uiso   1.00
C193   C     0.55431   0.51193   0.09791   0.00000  Uiso   1.00
C194   C     0.38387   0.47482   0.42483   0.00000  Uiso   1.00
C195   C     0.36512   0.46789   0.47732   0.00000  Uiso   1.00
C196   C     0.47262   0.50361   0.48795   0.00000  Uiso   1.00
C197   C     0.40889   0.48165   0.00863   0.00000  Uiso   1.00
C198   C     0.66103   0.45268   0.19811   0.00000  Uiso   1.00
C199   C     0.47051   0.43993   0.07736   0.00000  Uiso   1.00
C200   C     0.48882   0.51878   0.43622   0.00000  Uiso   1.00
C201   C     0.51988   0.51444   0.01786   0.00000  Uiso   1.00
C202   C     0.57732   0.55047   0.49944   0.00000  Uiso   1.00
C203   C     0.58929   0.57073   0.45074   0.00000  Uiso   1.00
C204   C     0.54624   0.55460   0.41927   0.00000  Uiso   1.00
C205   C     0.51295   0.49055   0.06509   0.00000  Uiso   1.00
C206   C     0.60960   0.54877   0.07980   0.00000  Uiso   1.00
Cu207  Cu    0.44043   0.49439   0.24436   0.00000  Uiso   1.00
Cu208  Cu    0.55957   0.50561   0.25565   0.00000  Uiso   1.00
H209   H     0.64221   0.56508   0.10454   0.00000  Uiso   1.00
H210   H     0.56891   0.34674   0.25667   0.00000  Uiso   1.00
H211   H     0.43114   0.65326   0.24319   0.00000  Uiso   1.00
H212   H     0.33625   0.53846   0.29084   0.00000  Uiso   1.00
H213   H     0.63252   0.59885   0.43663   0.00000  Uiso   1.00
H214   H     0.66554   0.59450   0.01656   0.00000  Uiso   1.00
H215   H     0.34978   0.46071   0.40089   0.00000  Uiso   1.00
H216   H     0.39141   0.47713   0.04931   0.00000  Uiso   1.00
H217   H     0.64996   0.45076   0.49376   0.00000  Uiso   1.00
H218   H     0.55733   0.57283   0.38254   0.00000  Uiso   1.00
N219   N     0.64908   0.51407   0.26416   0.00000  Uiso   1.00
N220   N     0.35092   0.48593   0.23584   0.00000  Uiso   1.00
N221   N     0.64246   0.42466   0.16638   0.00000  Uiso   1.00
N222   N     0.43699   0.39944   0.08720   0.00000  Uiso   1.00
O223   O     0.46131   0.57141   0.24633   0.00000  Uiso   1.00
O224   O     0.56191   0.58089   0.25587   0.00000  Uiso   1.00
O225   O     0.42515   0.49293   0.31840   0.00000  Uiso   1.00
O226   O     0.52575   0.50241   0.32793   0.00000  Uiso   1.00
O227   O     0.43809   0.41911   0.24414   0.00000  Uiso   1.00
O228   O     0.53869   0.42859   0.25367   0.00000  Uiso   1.00
O229   O     0.47425   0.49759   0.17207   0.00000  Uiso   1.00
O230   O     0.57485   0.50707   0.18161   0.00000  Uiso   1.00
C231   C     0.84848   0.60006   0.25152   0.00000  Uiso   1.00
C232   C     0.77928   0.49922   0.40348   0.00000  Uiso   1.00
C233   C     0.85692   0.65610   0.25225   0.00000  Uiso   1.00
C234   C     0.79994   0.49935   0.34724   0.00000  Uiso   1.00
C235   C     0.80980   0.34390   0.24760   0.00000  Uiso   1.00
C236   C     0.81820   0.39994   0.24842   0.00000  Uiso   1.00
C237   C     0.86708   0.50323   0.15300   0.00000  Uiso   1.00
C238   C     0.95541   0.56647   0.03016   0.00000  Uiso   1.00
C239   C     0.88764   0.51193   0.09791   0.00000  Uiso   1.00
C240   C     0.71720   0.47482   0.42483   0.00000  Uiso   1.00
C241   C     0.69845   0.46789   0.47732   0.00000  Uiso   1.00
C242   C     0.80595   0.50361   0.48795   0.00000  Uiso   1.00
C243   C     0.74222   0.48165   0.00863   0.00000  Uiso   1.00
C244   C     0.99436   0.45268   0.19811   0.00000  Uiso   1.00
C245   C     0.80384   0.43993   0.07736   0.00000  Uiso   1.00
C246   C     0.82215   0.51878   0.43622   0.00000  Uiso   1.00
C247   C     0.85321   0.51444   0.01786   0.00000  Uiso   1.00
C248   C     0.91065   0.55047   0.49944   0.00000  Uiso   1.00
C249   C     0.92262   0.57073   0.45074   0.00000  Uiso   1.00
C250   C     0.87957   0.55460   0.41927   0.00000  Uiso   1.00
C251   C     0.84628   0.49055   0.06509   0.00000  Uiso   1.00
C252   C     0.94293   0.54877   0.07980   0.00000  Uiso   1.00
Cu253  Cu    0.77377   0.49439   0.24436   0.00000  Uiso   1.00
Cu254  Cu    0.89290   0.50561   0.25565   0.00000  Uiso   1.00
H255   H     0.97554   0.56508   0.10454   0.00000  Uiso   1.00
H256   H     0.90225   0.34674   0.25667   0.00000  Uiso   1.00
H257   H     0.76448   0.65326   0.24319   0.00000  Uiso   1.00
H258   H     0.66958   0.53846   0.29084   0.00000  Uiso   1.00
H259   H     0.96585   0.59885   0.43663   0.00000  Uiso   1.00
H260   H     0.99888   0.59450   0.01656   0.00000  Uiso   1.00
H261   H     0.68312   0.46071   0.40089   0.00000  Uiso   1.00
H262   H     0.72474   0.47713   0.04931   0.00000  Uiso   1.00
H263   H     0.98329   0.45076   0.49376   0.00000  Uiso   1.00
H264   H     0.89067   0.57283   0.38254   0.00000  Uiso   1.00
N265   N     0.98241   0.51407   0.26416   0.00000  Uiso   1.00
N266   N     0.68426   0.48593   0.23584   0.00000  Uiso   1.00
N267   N     0.97579   0.42466   0.16638   0.00000  Uiso   1.00
N268   N     0.77033   0.39944   0.08720   0.00000  Uiso   1.00
O269   O     0.79464   0.57141   0.24633   0.00000  Uiso   1.00
O270   O     0.89524   0.58089   0.25587   0.00000  Uiso   1.00
O271   O     0.75848   0.49293   0.31840   0.00000  Uiso   1.00
O272   O     0.85908   0.50241   0.32793   0.00000  Uiso   1.00
O273   O     0.77142   0.41911   0.24414   0.00000  Uiso   1.00
O274   O     0.87203   0.42859   0.25367   0.00000  Uiso   1.00
O275   O     0.80758   0.49759   0.17207   0.00000  Uiso   1.00
O276   O     0.90819   0.50707   0.18161   0.00000  Uiso   1.00
C277   C     0.18182   0.93339   0.25152   0.00000  Uiso   1.00
C278   C     0.11261   0.83255   0.40348   0.00000  Uiso   1.00
C279   C     0.19026   0.98944   0.25225   0.00000  Uiso   1.00
C280   C     0.13327   0.83269   0.34724   0.00000  Uiso   1.00
C281   C     0.14313   0.67723   0.24760   0.00000  Uiso   1.00
C282   C     0.15153   0.73328   0.24842   0.00000  Uiso   1.00
C283   C     0.20041   0.83656   0.15300   0.00000  Uiso   1.00
C284   C     0.28874   0.89980   0.03016   0.00000  Uiso   1.00
C285   C     0.22098   0.84526   0.09791   0.00000  Uiso   1.00
C286   C     0.05053   0.80815   0.42483   0.00000  Uiso   1.00
C287   C     0.03179   0.80122   0.47732   0.00000  Uiso   1.00
C288   C     0.13929   0.83694   0.48795   0.00000  Uiso   1.00
C289   C     0.07556   0.81498   0.00863   0.00000  Uiso   1.00
C290   C     0.32769   0.78602   0.19811   0.00000  Uiso   1.00
C291   C     0.13718   0.77326   0.07736   0.00000  Uiso   1.00
C292   C     0.15549   0.85212   0.43622   0.00000  Uiso   1.00
C293   C     0.18655   0.84777   0.01786   0.00000  Uiso   1.00
C294   C     0.24398   0.88380   0.49944   0.00000  Uiso   1.00
C295   C     0.25596   0.90407   0.45074   0.00000  Uiso   1.00
C296   C     0.21291   0.88793   0.41927   0.00000  Uiso   1.00
C297   C     0.17961   0.82388   0.06509   0.00000  Uiso   1.00
C298   C     0.27627   0.88211   0.07980   0.00000  Uiso   1.00
Cu299  Cu    0.10710   0.82772   0.24436   0.00000  Uiso   1.00
Cu300  Cu    0.22623   0.83895   0.25565   0.00000  Uiso   1.00
H301   H     0.30887   0.89841   0.10454   0.00000  Uiso   1.00
H302   H     0.23558   0.68007   0.25667   0.00000  Uiso   1.00
H303   H     0.09781   0.98659   0.24319   0.00000  Uiso   1.00
H304   H     0.00291   0.87180   0.29084   0.00000  Uiso   1.00
H305   H     0.29919   0.93219   0.43663   0.00000  Uiso   1.00
H306   H     0.33221   0.92783   0.01656   0.00000  Uiso   1.00
H307   H     0.01645   0.79404   0.40089   0.00000  Uiso   1.00
H308   H     0.05807   0.81046   0.04931   0.00000  Uiso   1.00
H309   H     0.31662   0.78410   0.49376   0.00000  Uiso   1.00
H310   H     0.22400   0.90617   0.38254   0.00000  Uiso   1.00
N311   N     0.31574   0.84741   0.26416   0.00000  Uiso   1.00
N312   N     0.01759   0.81926   0.23584   0.00000  Uiso   1.00
N313   N     0.30913   0.75799   0.16638   0.00000  Uiso   1.00
N314   N     0.10366   0.73277   0.08720   0.00000  Uiso   1.00
O315   O     0.12797   0.90474   0.24633   0.00000  Uiso   1.00
O316   O     0.22858   0.91422   0.25587   0.00000  Uiso   1.00
O317   O     0.09181   0.82627   0.31840   0.00000  Uiso   1.00
O318   O     0.19242   0.83575   0.32793   0.00000  Uiso   1.00
O319   O     0.10476   0.75245   0.24414   0.00000  Uiso   1.00
O320   O     0.20536   0.76193   0.25367   0.00000  Uiso   1.00
O321   O     0.14092   0.83092   0.17207   0.00000  Uiso   1.00
O322   O     0.24152   0.84040   0.18161   0.00000  Uiso   1.00
C323   C     0.51515   0.93339   0.25152   0.00000  Uiso   1.00
C324   C     0.44595   0.83255   0.40348   0.00000  Uiso   1.00
C325   C     0.52359   0.98944   0.25225   0.00000  Uiso   1.00
C326   C     0.46660   0.83269   0.34724   0.00000  Uiso   1.00
C327   C     0.47647   0.67723   0.24760   0.00000  Uiso   1.00
C328   C     0.48487   0.73328   0.24842   0.00000  Uiso   1.00
C329   C     0.53375   0.83656   0.15300   0.00000  Uiso   1.00
C330   C     0.62207   0.89980   0.03016   0.00000  Uiso   1.00
C331   C     0.55431   0.84526   0.09791   0.00000  Uiso   1.00
C332   C     0.38387   0.80815   0.42483   0.00000  Uiso   1.00
C333   C     0.36512   0.80122   0.47732   0.00000  Uiso   1.00
C334   C     0.47262   0.83694   0.48795   0.00000  Uiso   1.00
C335   C     0.40889   0.81498   0.00863   0.00000  Uiso   1.00
C336   C     0.66103   0.78602   0.19811   0.00000  Uiso   1.00
C337   C     0.47051   0.77326   0.07736   0.00000  Uiso   1.00
C338   C     0.48882   0.85212   0.43622   0.00000  Uiso   1.00
C339   C     0.51988   0.84777   0.01786   0.00000  Uiso   1.00
C340   C     0.57732   0.88380   0.49944   0.00000  Uiso   1.00
C341   C     0.58929   0.90407   0.45074   0.00000  Uiso   1.00
C342   C     0.54624   0.88793   0.41927   0.00000  Uiso   1.00
C343   C     0.51295   0.82388   0.06509   0.00000  Uiso   1.00
C344   C     0.60960   0.88211   0.07980   0.00000  Uiso   1.00
Cu345  Cu    0.44043   0.82772   0.24436   0.00000  Uiso   1.00
Cu346  Cu    0.55957   0.83895   0.25565   0.00000  Uiso   1.00
H347   H     0.64221   0.89841   0.10454   0.00000  Uiso   1.00
H348   H     0.56891   0.68007   0.25667   0.00000  Uiso   1.00
H349   H     0.43114   0.98659   0.24319   0.00000  Uiso   1.00
H350   H     0.33625   0.87180   0.29084   0.00000  Uiso   1.00
H351   H     0.63252   0.93219   0.43663   0.00000  Uiso   1.00
H352   H     0.66554   0.92783   0.01656   0.00000  Uiso   1.00
H353   H     0.34978   0.79404   0.40089   0.00000  Uiso   1.00
H354   H     0.39141   0.81046   0.04931   0.00000  Uiso   1.00
H355   H     0.64996   0.78410   0.49376   0.00000  Uiso   1.00
H356   H     0.55733   0.90617   0.38254   0.00000  Uiso   1.00
N357   N     0.64908   0.84741   0.26416   0.00000  Uiso   1.00
N358   N     0.35092   0.81926   0.23584   0.00000  Uiso   1.00
N359   N     0.64246   0.75799   0.16638   0.00000  Uiso   1.00
N360   N     0.43699   0.73277   0.08720   0.00000  Uiso   1.00
O361   O     0.46131   0.90474   0.24633   0.00000  Uiso   1.00
O362   O     0.56191   0.91422   0.25587   0.00000  Uiso   1.00
O363   O     0.42515   0.82627   0.31840   0.00000  Uiso   1.00
O364   O     0.52575   0.83575   0.32793   0.00000  Uiso   1.00
O365   O     0.43809   0.75245   0.24414   0.00000  Uiso   1.00
O366   O     0.53869   0.76193   0.25367   0.00000  Uiso   1.00
O367   O     0.47425   0.83092   0.17207   0.00000  Uiso   1.00
O368   O     0.57485   0.84040   0.18161   0.00000  Uiso   1.00
C369   C     0.84848   0.93339   0.25152   0.00000  Uiso   1.00
C370   C     0.77928   0.83255   0.40348   0.00000  Uiso   1.00
C371   C     0.85692   0.98944   0.25225   0.00000  Uiso   1.00
C372   C     0.79994   0.83269   0.34724   0.00000  Uiso   1.00
C373   C     0.80980   0.67723   0.24760   0.00000  Uiso   1.00
C374   C     0.81820   0.73328   0.24842   0.00000  Uiso   1.00
C375   C     0.86708   0.83656   0.15300   0.00000  Uiso   1.00
C376   C     0.95541   0.89980   0.03016   0.00000  Uiso   1.00
C377   C     0.88764   0.84526   0.09791   0.00000  Uiso   1.00
C378   C     0.71720   0.80815   0.42483   0.00000  Uiso   1.00
C379   C     0.69845   0.80122   0.47732   0.00000  Uiso   1.00
C380   C     0.80595   0.83694   0.48795   0.00000  Uiso   1.00
C381   C     0.74222   0.81498   0.00863   0.00000  Uiso   1.00
C382   C     0.99436   0.78602   0.19811   0.00000  Uiso   1.00
C383   C     0.80384   0.77326   0.07736   0.00000  Uiso   1.00
C384   C     0.82215   0.85212   0.43622   0.00000  Uiso   1.00
C385   C     0.85321   0.84777   0.01786   0.00000  Uiso   1.00
C386   C     0.91065   0.88380   0.49944   0.00000  Uiso   1.00
C387   C     0.92262   0.90407   0.45074   0.00000  Uiso   1.00
C388   C     0.87957   0.88793   0.41927   0.00000  Uiso   1.00
C389   C     0.84628   0.82388   0.06509   0.00000  Uiso   1.00
C390   C     0.94293   0.88211   0.07980   0.00000  Uiso   1.00
Cu391  Cu    0.77377   0.82772   0.24436   0.00000  Uiso   1.00
Cu392  Cu    0.89290   0.83895   0.25565   0.00000  Uiso   1.00
H393   H     0.97554   0.89841   0.10454   0.00000  Uiso   1.00
H394   H     0.90225   0.68007   0.25667   0.00000  Uiso   1.00
H395   H     0.76448   0.98659   0.24319   0.00000  Uiso   1.00
H396   H     0.66958   0.87180   0.29084   0.00000  Uiso   1.00
H397   H     0.96585   0.93219   0.43663   0.00000  Uiso   1.00
H398   H     0.99888   0.92783   0.01656   0.00000  Uiso   1.00
H399   H     0.68312   0.79404   0.40089   0.00000  Uiso   1.00
H400   H     0.72474   0.81046   0.04931   0.00000  Uiso   1.00
H401   H     0.98329   0.78410   0.49376   0.00000  Uiso   1.00
H402   H     0.89067   0.90617   0.38254   0.00000  Uiso   1.00
N403   N     0.98241   0.84741   0.26416   0.00000  Uiso   1.00
N404   N     0.68426   0.81926   0.23584   0.00000  Uiso   1.00
N405   N     0.97579   0.75799   0.16638   0.00000  Uiso   1.00
N406   N     0.77033   0.73277   0.08720   0.00000  Uiso   1.00
O407   O     0.79464   0.90474   0.24633   0.00000  Uiso   1.00
O408   O     0.89524   0.91422   0.25587   0.00000  Uiso   1.00
O409   O     0.75848   0.82627   0.31840   0.00000  Uiso   1.00
O410   O     0.85908   0.83575   0.32793   0.00000  Uiso   1.00
O411   O     0.77142   0.75245   0.24414   0.00000  Uiso   1.00
O412   O     0.87203   0.76193   0.25367   0.00000  Uiso   1.00
O413   O     0.80758   0.83092   0.17207   0.00000  Uiso   1.00
O414   O     0.90819   0.84040   0.18161   0.00000  Uiso   1.00
C415   C     0.18182   0.26672   0.75152   0.00000  Uiso   1.00
C416   C     0.11261   0.16589   0.90348   0.00000  Uiso   1.00
C417   C     0.19026   0.32277   0.75225   0.00000  Uiso   1.00
C418   C     0.13327   0.16602   0.84724   0.00000  Uiso   1.00
C419   C     0.14313   0.01057   0.74760   0.00000  Uiso   1.00
C420   C     0.15153   0.06661   0.74842   0.00000  Uiso   1.00
C421   C     0.20041   0.16990   0.65300   0.00000  Uiso   1.00
C422   C     0.28874   0.23313   0.53016   0.00000  Uiso   1.00
C423   C     0.22098   0.17860   0.59791   0.00000  Uiso   1.00
C424   C     0.05053   0.14148   0.92483   0.00000  Uiso   1.00
C425   C     0.03179   0.13456   0.97732   0.00000  Uiso   1.00
C426   C     0.13929   0.17027   0.98795   0.00000  Uiso   1.00
C427   C     0.07556   0.14832   0.50863   0.00000  Uiso   1.00
C428   C     0.32769   0.11935   0.69811   0.00000  Uiso   1.00
C429   C     0.13718   0.10659   0.57736   0.00000  Uiso   1.00
C430   C     0.15549   0.18545   0.93622   0.00000  Uiso   1.00
C431   C     0.18655   0.18111   0.51786   0.00000  Uiso   1.00
C432   C     0.24398   0.21714   0.99944   0.00000  Uiso   1.00
C433   C     0.25596   0.23740   0.95074   0.00000  Uiso   1.00
C434   C     0.21291   0.22127   0.91927   0.00000  Uiso   1.00
C435   C     0.17961   0.15722   0.56509   0.00000  Uiso   1.00
C436   C     0.27627   0.21544   0.57980   0.00000  Uiso   1.00
Cu437  Cu    0.10710   0.16105   0.74436   0.00000  Uiso   1.00
Cu438  Cu    0.22623   0.17228   0.75565   0.00000  Uiso   1.00
H439   H     0.30887   0.23175   0.60454   0.00000  Uiso   1.00
H440   H     0.23558   0.01341   0.75667   0.00000  Uiso   1.00
H441   H     0.09781   0.31992   0.74319   0.00000  Uiso   1.00
H442   H     0.00291   0.20513   0.79084   0.00000  Uiso   1.00
H443   H     0.29919   0.26552   0.93663   0.00000  Uiso   1.00
H444   H     0.33221   0.26117   0.51656   0.00000  Uiso   1.00
H445   H     0.01645   0.12737   0.90089   0.00000  Uiso   1.00
H446   H     0.05807   0.14380   0.54931   0.00000  Uiso   1.00
H447   H     0.31662   0.11743   0.99376   0.00000  Uiso   1.00
H448   H     0.22400   0.23950   0.88254   0.00000  Uiso   1.00
N449   N     0.31574   0.18074   0.76416   0.00000  Uiso   1.00
N450   N     0.01759   0.15259   0.73584   0.00000  Uiso   1.00
N451   N     0.30913   0.09133   0.66638   0.00000  Uiso   1.00
N452   N     0.10366   0.06611   0.58720   0.00000  Uiso   1.00
O453   O     0.12797   0.23807   0.74633   0.00000  Uiso   1.00
O454   O     0.22858   0.24755   0.75587   0.00000  Uiso   1.00
O455   O     0.09181   0.15960   0.81840   0.00000  Uiso   1.00
O456   O     0.19242   0.16908   0.82793   0.00000  Uiso   1.00
O457   O     0.10476   0.08578   0.74414   0.00000  Uiso   1.00
O458   O     0.20536   0.09526   0.75367   0.00000  Uiso   1.00
O459   O     0.14092   0.16425   0.67207   0.00000  Uiso   1.00
O460   O     0.24152   0.17373   0.68161   0.00000  Uiso   1.00
C461   C     0.51515   0.26672   0.75152   0.00000  Uiso   1.00
C462   C     0.44595   0.16589   0.90348   0.00000  Uiso   1.00
C463   C     0.52359   0.32277   0.75225   0.00000  Uiso   1.00
C464   C     0.46660   0.16602   0.84724   0.00000  Uiso   1.00
C465   C     0.47647   0.01057   0.74760   0.00000  Uiso   1.00
C466   C     0.48487   0.06661   0.74842   0.00000  Uiso   1.00
C467   C     0.53375   0.16990   0.65300   0.00000  Uiso   1.00
C468   C     0.62207   0.23313   0.53016   0.00000  Uiso   1.00
C469   C     0.55431   0.17860   0.59791   0.00000  Uiso   1.00
C470   C     0.38387   0.14148   0.92483   0.00000  Uiso   1.00
C471   C     0.36512   0.13456   0.97732   0.00000  Uiso   1.00
C472   C     0.47262   0.17027   0.98795   0.00000  Uiso   1.00
C473   C     0.40889   0.14832   0.50863   0.00000  Uiso   1.00
C474   C     0.66103   0.11935   0.69811   0.00000  Uiso   1.00
C475   C     0.47051   0.10659   0.57736   0.00000  Uiso   1.00
C476   C     0.48882   0.18545   0.93622   0.00000  Uiso   1.00
C477   C     0.51988   0.18111   0.51786   0.00000  Uiso   1.00
C478   C     0.57732   0.21714   0.99944   0.00000  Uiso   1.00
C479   C     0.58929   0.23740   0.95074   0.00000  Uiso   1.00
C480   C     0.54624   0.22127   0.91927   0.00000  Uiso   1.00
C481   C     0.51295   0.15722   0.56509   0.00000  Uiso   1.00
C482   C     0.60960   0.21544   0.57980   0.00000  Uiso   1.00
Cu483  Cu    0.44043   0.16105   0.74436   0.00000  Uiso   1.00
Cu484  Cu    0.55957   0.17228   0.75565   0.00000  Uiso   1.00
H485   H     0.64221   0.23175   0.60454   0.00000  Uiso   1.00
H486   H     0.56891   0.01341   0.75667   0.00000  Uiso   1.00
H487   H     0.43114   0.31992   0.74319   0.00000  Uiso   1.00
H488   H     0.33625   0.20513   0.79084   0.00000  Uiso   1.00
H489   H     0.63252   0.26552   0.93663   0.00000  Uiso   1.00
H490   H     0.66554   0.26117   0.51656   0.00000  Uiso   1.00
H491   H     0.34978   0.12737   0.90089   0.00000  Uiso   1.00
H492   H     0.39141   0.14380   0.54931   0.00000  Uiso   1.00
H493   H     0.64996   0.11743   0.99376   0.00000  Uiso   1.00
H494   H     0.55733   0.23950   0.88254   0.00000  Uiso   1.00
N495   N     0.64908   0.18074   0.76416   0.00000  Uiso   1.00
N496   N     0.35092   0.15259   0.73584   0.00000  Uiso   1.00
N497   N     0.64246   0.09133   0.66638   0.00000  Uiso   1.00
N498   N     0.43699   0.06611   0.58720   0.00000  Uiso   1.00
O499   O     0.46131   0.23807   0.74633   0.00000  Uiso   1.00
O500   O     0.56191   0.24755   0.75587   0.00000  Uiso   1.00
O501   O     0.42515   0.15960   0.81840   0.00000  Uiso   1.00
O502   O     0.52575   0.16908   0.82793   0.00000  Uiso   1.00
O503   O     0.43809   0.08578   0.74414   0.00000  Uiso   1.00
O504   O     0.53869   0.09526   0.75367   0.00000  Uiso   1.00
O505   O     0.47425   0.16425   0.67207   0.00000  Uiso   1.00
O506   O     0.57485   0.17373   0.68161   0.00000  Uiso   1.00
C507   C     0.84848   0.26672   0.75152   0.00000  Uiso   1.00
C508   C     0.77928   0.16589   0.90348   0.00000  Uiso   1.00
C509   C     0.85692   0.32277   0.75225   0.00000  Uiso   1.00
C510   C     0.79994   0.16602   0.84724   0.00000  Uiso   1.00
C511   C     0.80980   0.01057   0.74760   0.00000  Uiso   1.00
C512   C     0.81820   0.06661   0.74842   0.00000  Uiso   1.00
C513   C     0.86708   0.16990   0.65300   0.00000  Uiso   1.00
C514   C     0.95541   0.23313   0.53016   0.00000  Uiso   1.00
C515   C     0.88764   0.17860   0.59791   0.00000  Uiso   1.00
C516   C     0.71720   0.14148   0.92483   0.00000  Uiso   1.00
C517   C     0.69845   0.13456   0.97732   0.00000  Uiso   1.00
C518   C     0.80595   0.17027   0.98795   0.00000  Uiso   1.00
C519   C     0.74222   0.14832   0.50863   0.00000  Uiso   1.00
C520   C     0.99436   0.11935   0.69811   0.00000  Uiso   1.00
C521   C     0.80384   0.10659   0.57736   0.00000  Uiso   1.00
C522   C     0.82215   0.18545   0.93622   0.00000  Uiso   1.00
C523   C     0.85321   0.18111   0.51786   0.00000  Uiso   1.00
C524   C     0.91065   0.21714   0.99944   0.00000  Uiso   1.00
C525   C     0.92262   0.23740   0.95074   0.00000  Uiso   1.00
C526   C     0.87957   0.22127   0.91927   0.00000  Uiso   1.00
C527   C     0.84628   0.15722   0.56509   0.00000  Uiso   1.00
C528   C     0.94293   0.21544   0.57980   0.00000  Uiso   1.00
Cu529  Cu    0.77377   0.16105   0.74436   0.00000  Uiso   1.00
Cu530  Cu    0.89290   0.17228   0.75565   0.00000  Uiso   1.00
H531   H     0.97554   0.23175   0.60454   0.00000  Uiso   1.00
H532   H     0.90225   0.01341   0.75667   0.00000  Uiso   1.00
H533   H     0.76448   0.31992   0.74319   0.00000  Uiso   1.00
H534   H     0.66958   0.20513   0.79084   0.00000  Uiso   1.00
H535   H     0.96585   0.26552   0.93663   0.00000  Uiso   1.00
H536   H     0.99888   0.26117   0.51656   0.00000  Uiso   1.00
H537   H     0.68312   0.12737   0.90089   0.00000  Uiso   1.00
H538   H     0.72474   0.14380   0.54931   0.00000  Uiso   1.00
H539   H     0.98329   0.11743   0.99376   0.00000  Uiso   1.00
H540   H     0.89067   0.23950   0.88254   0.00000  Uiso   1.00
N541   N     0.98241   0.18074   0.76416   0.00000  Uiso   1.00
N542   N     0.68426   0.15259   0.73584   0.00000  Uiso   1.00
N543   N     0.97579   0.09133   0.66638   0.00000  Uiso   1.00
N544   N     0.77033   0.06611   0.58720   0.00000  Uiso   1.00
O545   O     0.79464   0.23807   0.74633   0.00000  Uiso   1.00
O546   O     0.89524   0.24755   0.75587   0.00000  Uiso   1.00
O547   O     0.75848   0.15960   0.81840   0.00000  Uiso   1.00
O548   O     0.85908   0.16908   0.82793   0.00000  Uiso   1.00
O549   O     0.77142   0.08578   0.74414   0.00000  Uiso   1.00
O550   O     0.87203   0.09526   0.75367   0.00000  Uiso   1.00
O551   O     0.80758   0.16425   0.67207   0.00000  Uiso   1.00
O552   O     0.90819   0.17373   0.68161   0.00000  Uiso   1.00
C553   C     0.18182   0.60006   0.75152   0.00000  Uiso   1.00
C554   C     0.11261   0.49922   0.90348   0.00000  Uiso   1.00
C555   C     0.19026   0.65610   0.75225   0.00000  Uiso   1.00
C556   C     0.13327   0.49935   0.84724   0.00000  Uiso   1.00
C557   C     0.14313   0.34390   0.74760   0.00000  Uiso   1.00
C558   C     0.15153   0.39994   0.74842   0.00000  Uiso   1.00
C559   C     0.20041   0.50323   0.65300   0.00000  Uiso   1.00
C560   C     0.28874   0.56647   0.53016   0.00000  Uiso   1.00
C561   C     0.22098   0.51193   0.59791   0.00000  Uiso   1.00
C562   C     0.05053   0.47482   0.92483   0.00000  Uiso   1.00
C563   C     0.03179   0.46789   0.97732   0.00000  Uiso   1.00
C564   C     0.13929   0.50361   0.98795   0.00000  Uiso   1.00
C565   C     0.07556   0.48165   0.50863   0.00000  Uiso   1.00
C566   C     0.32769   0.45268   0.69811   0.00000  Uiso   1.00
C567   C     0.13718   0.43993   0.57736   0.00000  Uiso   1.00
C568   C     0.15549   0.51878   0.93622   0.00000  Uiso   1.00
C569   C     0.18655   0.51444   0.51786   0.00000  Uiso   1.00
C570   C     0.24398   0.55047   0.99944   0.00000  Uiso   1.00
C571   C     0.25596   0.57073   0.95074   0.00000  Uiso   1.00
C572   C     0.21291   0.55460   0.91927   0.00000  Uiso   1.00
C573   C     0.17961   0.49055   0.56509   0.00000  Uiso   1.00
C574   C     0.27627   0.54877   0.57980   0.00000  Uiso   1.00
Cu575  Cu    0.10710   0.49439   0.74436   0.00000  Uiso   1.00
Cu576  Cu    0.22623   0.50561   0.75565   0.00000  Uiso   1.00
H577   H     0.30887   0.56508   0.60454   0.00000  Uiso   1.00
H578   H     0.23558   0.34674   0.75667   0.00000  Uiso   1.00
H579   H     0.09781   0.65326   0.74319   0.00000  Uiso   1.00
H580   H     0.00291   0.53846   0.79084   0.00000  Uiso   1.00
H581   H     0.29919   0.59885   0.93663   0.00000  Uiso   1.00
H582   H     0.33221   0.59450   0.51656   0.00000  Uiso   1.00
H583   H     0.01645   0.46071   0.90089   0.00000  Uiso   1.00
H584   H     0.05807   0.47713   0.54931   0.00000  Uiso   1.00
H585   H     0.31662   0.45076   0.99376   0.00000  Uiso   1.00
H586   H     0.22400   0.57283   0.88254   0.00000  Uiso   1.00
N587   N     0.31574   0.51407   0.76416   0.00000  Uiso   1.00
N588   N     0.01759   0.48593   0.73584   0.00000  Uiso   1.00
N589   N     0.30913   0.42466   0.66638   0.00000  Uiso   1.00
N590   N     0.10366   0.39944   0.58720   0.00000  Uiso   1.00
O591   O     0.12797   0.57141   0.74633   0.00000  Uiso   1.00
O592   O     0.22858   0.58089   0.75587   0.00000  Uiso   1.00
O593   O     0.09181   0.49293   0.81840   0.00000  Uiso   1.00
O594   O     0.19242   0.50241   0.82793   0.00000  Uiso   1.00
O595   O     0.10476   0.41911   0.74414   0.00000  Uiso   1.00
O596   O     0.20536   0.42859   0.75367   0.00000  Uiso   1.00
O597   O     0.14092   0.49759   0.67207   0.00000  Uiso   1.00
O598   O     0.24152   0.50707   0.68161   0.00000  Uiso   1.00
C599   C     0.51515   0.60006   0.75152   0.00000  Uiso   1.00
C600   C     0.44595   0.49922   0.90348   0.00000  Uiso   1.00
C601   C     0.52359   0.65610   0.75225   0.00000  Uiso   1.00
C602   C     0.46660   0.49935   0.84724   0.00000  Uiso   1.00
C603   C     0.47647   0.34390   0.74760   0.00000  Uiso   1.00
C604   C     0.48487   0.39994   0.74842   0.00000  Uiso   1.00
C605   C     0.53375   0.50323   0.65300   0.00000  Uiso   1.00
C606   C     0.62207   0.56647   0.53016   0.00000  Uiso   1.00
C607   C     0.55431   0.51193   0.59791   0.00000  Uiso   1.00
C608   C     0.38387   0.47482   0.92483   0.00000  Uiso   1.00
C609   C     0.36512   0.46789   0.97732   0.00000  Uiso   1.00
C610   C     0.47262   0.50361   0.98795   0.00000  Uiso   1.00
C611   C     0.40889   0.48165   0.50863   0.00000  Uiso   1.00
C612   C     0.66103   0.45268   0.69811   0.00000  Uiso   1.00
C613   C     0.47051   0.43993   0.57736   0.00000  Uiso   1.00
C614   C     0.48882   0.51878   0.93622   0.00000  Uiso   1.00
C615   C     0.51988   0.51444   0.51786   0.00000  Uiso   1.00
C616   C     0.57732   0.55047   0.99944   0.00000  Uiso   1.00
C617   C     0.58929   0.57073   0.95074   0.00000  Uiso   1.00
C618   C     0.54624   0.55460   0.91927   0.00000  Uiso   1.00
C619   C     0.51295   0.49055   0.56509   0.00000  Uiso   1.00
C620   C     0.60960   0.54877   0.57980   0.00000  Uiso   1.00
Cu621  Cu    0.44043   0.49439   0.74436   0.00000  Uiso   1.00
Cu622  Cu    0.55957   0.50561   0.75565   0.00000  Uiso   1.00
H623   H     0.64221   0.56508   0.60454   0.00000  Uiso   1.00
H624   H     0.56891   0.34674   0.75667   0.00000  Uiso   1.00
H625   H     0.43114   0.65326   0.74319   0.00000  Uiso   1.00
H626   H     0.33625   0.53846   0.79084   0.00000  Uiso   1.00
H627   H     0.63252   0.59885   0.93663   0.00000  Uiso   1.00
H628   H     0.66554   0.59450   0.51656   0.00000  Uiso   1.00
H629   H     0.34978   0.46071   0.90089   0.00000  Uiso   1.00
H630   H     0.39141   0.47713   0.54931   0.00000  Uiso   1.00
H631   H     0.64996   0.45076   0.99376   0.00000  Uiso   1.00
H632   H     0.55733   0.57283   0.88254   0.00000  Uiso   1.00
N633   N     0.64908   0.51407   0.76416   0.00000  Uiso   1.00
N634   N     0.35092   0.48593   0.73584   0.00000  Uiso   1.00
N635   N     0.64246   0.42466   0.66638   0.00000  Uiso   1.00
N636   N     0.43699   0.39944   0.58720   0.00000  Uiso   1.00
O637   O     0.46131   0.57141   0.74633   0.00000  Uiso   1.00
O638   O     0.56191   0.58089   0.75587   0.00000  Uiso   1.00
O639   O     0.42515   0.49293   0.81840   0.00000  Uiso   1.00
O640   O     0.52575   0.50241   0.82793   0.00000  Uiso   1.00
O641   O     0.43809   0.41911   0.74414   0.00000  Uiso   1.00
O642   O     0.53869   0.42859   0.75367   0.00000  Uiso   1.00
O643   O     0.47425   0.49759   0.67207   0.00000  Uiso   1.00
O644   O     0.57485   0.50707   0.68161   0.00000  Uiso   1.00
C645   C     0.84848   0.60006   0.75152   0.00000  Uiso   1.00
C646   C     0.77928   0.49922   0.90348   0.00000  Uiso   1.00
C647   C     0.85692   0.65610   0.75225   0.00000  Uiso   1.00
C648   C     0.79994   0.49935   0.84724   0.00000  Uiso   1.00
C649   C     0.80980   0.34390   0.74760   0.00000  Uiso   1.00
C650   C     0.81820   0.39994   0.74842   0.00000  Uiso   1.00
C651   C     0.86708   0.50323   0.65300   0.00000  Uiso   1.00
C652   C     0.95541   0.56647   0.53016   0.00000  Uiso   1.00
C653   C     0.88764   0.51193   0.59791   0.00000  Uiso   1.00
C654   C     0.71720   0.47482   0.92483   0.00000  Uiso   1.00
C655   C     0.69845   0.46789   0.97732   0.00000  Uiso   1.00
C656   C     0.80595   0.50361   0.98795   0.00000  Uiso   1.00
C657   C     0.74222   0.48165   0.50863   0.00000  Uiso   1.00
C658   C     0.99436   0.45268   0.69811   0.00000  Uiso   1.00
C659   C     0.80384   0.43993   0.57736   0.00000  Uiso   1.00
C660   C     0.82215   0.51878   0.93622   0.00000  Uiso   1.00
C661   C     0.85321   0.51444   0.51786   0.00000  Uiso   1.00
C662   C     0.91065   0.55047   0.99944   0.00000  Uiso   1.00
C663   C     0.92262   0.57073   0.95074   0.00000  Uiso   1.00
C664   C     0.87957   0.55460   0.91927   0.00000  Uiso   1.00
C665   C     0.84628   0.49055   0.56509   0.00000  Uiso   1.00
C666   C     0.94293   0.54877   0.57980   0.00000  Uiso   1.00
Cu667  Cu    0.77377   0.49439   0.74436   0.00000  Uiso   1.00
Cu668  Cu    0.89290   0.50561   0.75565   0.00000  Uiso   1.00
H669   H     0.97554   0.56508   0.60454   0.00000  Uiso   1.00
H670   H     0.90225   0.34674   0.75667   0.00000  Uiso   1.00
H671   H     0.76448   0.65326   0.74319   0.00000  Uiso   1.00
H672   H     0.66958   0.53846   0.79084   0.00000  Uiso   1.00
H673   H     0.96585   0.59885   0.93663   0.00000  Uiso   1.00
H674   H     0.99888   0.59450   0.51656   0.00000  Uiso   1.00
H675   H     0.68312   0.46071   0.90089   0.00000  Uiso   1.00
H676   H     0.72474   0.47713   0.54931   0.00000  Uiso   1.00
H677   H     0.98329   0.45076   0.99376   0.00000  Uiso   1.00
H678   H     0.89067   0.57283   0.88254   0.00000  Uiso   1.00
N679   N     0.98241   0.51407   0.76416   0.00000  Uiso   1.00
N680   N     0.68426   0.48593   0.73584   0.00000  Uiso   1.00
N681   N     0.97579   0.42466   0.66638   0.00000  Uiso   1.00
N682   N     0.77033   0.39944   0.58720   0.00000  Uiso   1.00
O683   O     0.79464   0.57141   0.74633   0.00000  Uiso   1.00
O684   O     0.89524   0.58089   0.75587   0.00000  Uiso   1.00
O685   O     0.75848   0.49293   0.81840   0.00000  Uiso   1.00
O686   O     0.85908   0.50241   0.82793   0.00000  Uiso   1.00
O687   O     0.77142   0.41911   0.74414   0.00000  Uiso   1.00
O688   O     0.87203   0.42859   0.75367   0.00000  Uiso   1.00
O689   O     0.80758   0.49759   0.67207   0.00000  Uiso   1.00
O690   O     0.90819   0.50707   0.68161   0.00000  Uiso   1.00
C691   C     0.18182   0.93339   0.75152   0.00000  Uiso   1.00
C692   C     0.11261   0.83255   0.90348   0.00000  Uiso   1.00
C693   C     0.19026   0.98944   0.75225   0.00000  Uiso   1.00
C694   C     0.13327   0.83269   0.84724   0.00000  Uiso   1.00
C695   C     0.14313   0.67723   0.74760   0.00000  Uiso   1.00
C696   C     0.15153   0.73328   0.74842   0.00000  Uiso   1.00
C697   C     0.20041   0.83656   0.65300   0.00000  Uiso   1.00
C698   C     0.28874   0.89980   0.53016   0.00000  Uiso   1.00
C699   C     0.22098   0.84526   0.59791   0.00000  Uiso   1.00
C700   C     0.05053   0.80815   0.92483   0.00000  Uiso   1.00
C701   C     0.03179   0.80122   0.97732   0.00000  Uiso   1.00
C702   C     0.13929   0.83694   0.98795   0.00000  Uiso   1.00
C703   C     0.07556   0.81498   0.50863   0.00000  Uiso   1.00
C704   C     0.32769   0.78602   0.69811   0.00000  Uiso   1.00
C705   C     0.13718   0.77326   0.57736   0.00000  Uiso   1.00
C706   C     0.15549   0.85212   0.93622   0.00000  Uiso   1.00
C707   C     0.18655   0.84777   0.51786   0.00000  Uiso   1.00
C708   C     0.24398   0.88380   0.99944   0.00000  Uiso   1.00
C709   C     0.25596   0.90407   0.95074   0.00000  Uiso   1.00
C710   C     0.21291   0.88793   0.91927   0.00000  Uiso   1.00
C711   C     0.17961   0.82388   0.56509   0.00000  Uiso   1.00
C712   C     0.27627   0.88211   0.57980   0.00000  Uiso   1.00
Cu713  Cu    0.10710   0.82772   0.74436   0.00000  Uiso   1.00
Cu714  Cu    0.22623   0.83895   0.75565   0.00000  Uiso   1.00
H715   H     0.30887   0.89841   0.60454   0.00000  Uiso   1.00
H716   H     0.23558   0.68007   0.75667   0.00000  Uiso   1.00
H717   H     0.09781   0.98659   0.74319   0.00000  Uiso   1.00
H718   H     0.00291   0.87180   0.79084   0.00000  Uiso   1.00
H719   H     0.29919   0.93219   0.93663   0.00000  Uiso   1.00
H720   H     0.33221   0.92783   0.51656   0.00000  Uiso   1.00
H721   H     0.01645   0.79404   0.90089   0.00000  Uiso   1.00
H722   H     0.05807   0.81046   0.54931   0.00000  Uiso   1.00
H723   H     0.31662   0.78410   0.99376   0.00000  Uiso   1.00
H724   H     0.22400   0.90617   0.88254   0.00000  Uiso   1.00
N725   N     0.31574   0.84741   0.76416   0.00000  Uiso   1.00
N726   N     0.01759   0.81926   0.73584   0.00000  Uiso   1.00
N727   N     0.30913   0.75799   0.66638   0.00000  Uiso   1.00
N728   N     0.10366   0.73277   0.58720   0.00000  Uiso   1.00
O729   O     0.12797   0.90474   0.74633   0.00000  Uiso   1.00
O730   O     0.22858   0.91422   0.75587   0.00000  Uiso   1.00
O731   O     0.09181   0.82627   0.81840   0.00000  Uiso   1.00
O732   O     0.19242   0.83575   0.82793   0.00000  Uiso   1.00
O733   O     0.10476   0.75245   0.74414   0.00000  Uiso   1.00
O734   O     0.20536   0.76193   0.75367   0.00000  Uiso   1.00
O735   O     0.14092   0.83092   0.67207   0.00000  Uiso   1.00
O736   O     0.24152   0.84040   0.68161   0.00000  Uiso   1.00
C737   C     0.51515   0.93339   0.75152   0.00000  Uiso   1.00
C738   C     0.44595   0.83255   0.90348   0.00000  Uiso   1.00
C739   C     0.52359   0.98944   0.75225   0.00000  Uiso   1.00
C740   C     0.46660   0.83269   0.84724   0.00000  Uiso   1.00
C741   C     0.47647   0.67723   0.74760   0.00000  Uiso   1.00
C742   C     0.48487   0.73328   0.74842   0.00000  Uiso   1.00
C743   C     0.53375   0.83656   0.65300   0.00000  Uiso   1.00
C744   C     0.62207   0.89980   0.53016   0.00000  Uiso   1.00
C745   C     0.55431   0.84526   0.59791   0.00000  Uiso   1.00
C746   C     0.38387   0.80815   0.92483   0.00000  Uiso   1.00
C747   C     0.36512   0.80122   0.97732   0.00000  Uiso   1.00
C748   C     0.47262   0.83694   0.98795   0.00000  Uiso   1.00
C749   C     0.40889   0.81498   0.50863   0.00000  Uiso   1.00
C750   C     0.66103   0.78602   0.69811   0.00000  Uiso   1.00
C751   C     0.47051   0.77326   0.57736   0.00000  Uiso   1.00
C752   C     0.48882   0.85212   0.93622   0.00000  Uiso   1.00
C753   C     0.51988   0.84777   0.51786   0.00000  Uiso   1.00
C754   C     0.57732   0.88380   0.99944   0.00000  Uiso   1.00
C755   C     0.58929   0.90407   0.95074   0.00000  Uiso   1.00
C756   C     0.54624   0.88793   0.91927   0.00000  Uiso   1.00
C757   C     0.51295   0.82388   0.56509   0.00000  Uiso   1.00
C758   C     0.60960   0.88211   0.57980   0.00000  Uiso   1.00
Cu759  Cu    0.44043   0.82772   0.74436   0.00000  Uiso   1.00
Cu760  Cu    0.55957   0.83895   0.75565   0.00000  Uiso   1.00
H761   H     0.64221   0.89841   0.60454   0.00000  Uiso   1.00
H762   H     0.56891   0.68007   0.75667   0.00000  Uiso   1.00
H763   H     0.43114   0.98659   0.74319   0.00000  Uiso   1.00
H764   H     0.33625   0.87180   0.79084   0.00000  Uiso   1.00
H765   H     0.63252   0.93219   0.93663   0.00000  Uiso   1.00
H766   H     0.66554   0.92783   0.51656   0.00000  Uiso   1.00
H767   H     0.34978   0.79404   0.90089   0.00000  Uiso   1.00
H768   H     0.39141   0.81046   0.54931   0.00000  Uiso   1.00
H769   H     0.64996   0.78410   0.99376   0.00000  Uiso   1.00
H770   H     0.55733   0.90617   0.88254   0.00000  Uiso   1.00
N771   N     0.64908   0.84741   0.76416   0.00000  Uiso   1.00
N772   N     0.35092   0.81926   0.73584   0.00000  Uiso   1.00
N773   N     0.64246   0.75799   0.66638   0.00000  Uiso   1.00
N774   N     0.43699   0.73277   0.58720   0.00000  Uiso   1.00
O775   O     0.46131   0.90474   0.74633   0.00000  Uiso   1.00
O776   O     0.56191   0.91422   0.75587   0.00000  Uiso   1.00
O777   O     0.42515   0.82627   0.81840   0.00000  Uiso   1.00
O778   O     0.52575   0.83575   0.82793   0.00000  Uiso   1.00
O779   O     0.43809   0.75245   0.74414   0.00000  Uiso   1.00
O780   O     0.53869   0.76193   0.75367   0.00000  Uiso   1.00
O781   O     0.47425   0.83092   0.67207   0.00000  Uiso   1.00
O782   O     0.57485   0.84040   0.68161   0.00000  Uiso   1.00
C783   C     0.84848   0.93339   0.75152   0.00000  Uiso   1.00
C784   C     0.77928   0.83255   0.90348   0.00000  Uiso   1.00
C785   C     0.85692   0.98944   0.75225   0.00000  Uiso   1.00
C786   C     0.79994   0.83269   0.84724   0.00000  Uiso   1.00
C787   C     0.80980   0.67723   0.74760   0.00000  Uiso   1.00
C788   C     0.81820   0.73328   0.74842   0.00000  Uiso   1.00
C789   C     0.86708   0.83656   0.65300   0.00000  Uiso   1.00
C790   C     0.95541   0.89980   0.53016   0.00000  Uiso   1.00
C791   C     0.88764   0.84526   0.59791   0.00000  Uiso   1.00
C792   C     0.71720   0.80815   0.92483   0.00000  Uiso   1.00
C793   C     0.69845   0.80122   0.97732   0.00000  Uiso   1.00
C794   C     0.80595   0.83694   0.98795   0.00000  Uiso   1.00
C795   C     0.74222   0.81498   0.50863   0.00000  Uiso   1.00
C796   C     0.99436   0.78602   0.69811   0.00000  Uiso   1.00
C797   C     0.80384   0.77326   0.57736   0.00000  Uiso   1.00
C798   C     0.82215   0.85212   0.93622   0.00000  Uiso   1.00
C799   C     0.85321   0.84777   0.51786   0.00000  Uiso   1.00
C800   C     0.91065   0.88380   0.99944   0.00000  Uiso   1.00
C801   C     0.92262   0.90407   0.95074   0.00000  Uiso   1.00
C802   C     0.87957   0.88793   0.91927   0.00000  Uiso   1.00
C803   C     0.84628   0.82388   0.56509   0.00000  Uiso   1.00
C804   C     0.94293   0.88211   0.57980   0.00000  Uiso   1.00
Cu805  Cu    0.77377   0.82772   0.74436   0.00000  Uiso   1.00
Cu806  Cu    0.89290   0.83895   0.75565   0.00000  Uiso   1.00
H807   H     0.97554   0.89841   0.60454   0.00000  Uiso   1.00
H808   H     0.90225   0.68007   0.75667   0.00000  Uiso   1.00
H809   H     0.76448   0.98659   0.74319   0.00000  Uiso   1.00
H810   H     0.66958   0.87180   0.79084   0.00000  Uiso   1.00
H811   H     0.96585   0.93219   0.93663   0.00000  Uiso   1.00
H812   H     0.99888   0.92783   0.51656   0.00000  Uiso   1.00
H813   H     0.68312   0.79404   0.90089   0.00000  Uiso   1.00
H814   H     0.72474   0.81046   0.54931   0.00000  Uiso   1.00
H815   H     0.98329   0.78410   0.99376   0.00000  Uiso   1.00
H816   H     0.89067   0.90617   0.88254   0.00000  Uiso   1.00
N817   N     0.98241   0.84741   0.76416   0.00000  Uiso   1.00
N818   N     0.68426   0.81926   0.73584   0.00000  Uiso   1.00
N819   N     0.97579   0.75799   0.66638   0.00000  Uiso   1.00
N820   N     0.77033   0.73277   0.58720   0.00000  Uiso   1.00
O821   O     0.79464   0.90474   0.74633   0.00000  Uiso   1.00
O822   O     0.89524   0.91422   0.75587   0.00000  Uiso   1.00
O823   O     0.75848   0.82627   0.81840   0.00000  Uiso   1.00
O824   O     0.85908   0.83575   0.82793   0.00000  Uiso   1.00
O825   O     0.77142   0.75245   0.74414   0.00000  Uiso   1.00
O826   O     0.87203   0.76193   0.75367   0.00000  Uiso   1.00
O827   O     0.80758   0.83092   0.67207   0.00000  Uiso   1.00
O828   O     0.90819   0.84040   0.68161   0.00000  Uiso   1.00
loop_
_geom_bond_atom_site_label_1
_geom_bond_atom_site_label_2
_geom_bond_distance
_geom_bond_site_symmetry_2
_ccdc_geom_bond_type
C1     O39     1.293   .     A
C1     O40     1.290   .     A
C1     C3      1.429   .     S
C2     C4      1.475   .     S
C2     C10     1.403   .     A
C2     C16     1.420   .     A
C3     C143    1.330   .     S
C3     H164    1.088   .     S
C4     O42     1.299   .     A
C4     O41     1.306   .     A
C5     C6      1.429   .     S
C5     C279    1.330   1_545 S
C5     H303    1.088   1_545 S
C6     O44     1.293   .     A
C6     O43     1.290   .     A
C7     O45     1.298   .     A
C7     O46     1.302   .     A
C7     C9      1.465   .     S
C8     C22     1.390   .     A
C8     H30     1.084   .     S
C8     C432    1.402   1_554 S
C9     C21     1.406   .     A
C9     C22     1.399   .     A
C10    C11     1.389   .     A
C10    H31     1.083   .     S
C11    C427    1.392   .     S
C11    H125    1.083   1_455 S
C12    C16     1.416   .     A
C12    C427    1.415   .     S
C12    C431    1.427   .     S
C13    H32     1.080   .     S
C13    C425    1.392   1_554 S
C13    C426    1.415   1_554 S
C14    N37     1.158   .     T
C14    N82     1.386   .     S
C15    N38     1.158   .     T
C15    C21     1.452   .     S
C16    C20     1.411   .     A
C17    C21     1.416   .     A
C17    C426    1.427   1_554 S
C17    C432    1.422   1_554 S
C18    C19     1.393   .     A
C18    C431    1.422   .     S
C18    C422    1.402   .     S
C19    C20     1.387   .     A
C19    H29     1.084   .     S
C20    H34     1.081   .     S
C22    H25     1.083   .     S
Cu23   Cu24    2.697   .     S
Cu23   O45     1.918   .     S
Cu23   O41     1.937   .     S
Cu23   O39     1.953   .     S
Cu23   N36     2.026   .     S
Cu23   O43     1.951   .     S
Cu24   O42     1.918   .     S
Cu24   O46     1.937   .     S
Cu24   O40     1.951   .     S
Cu24   O44     1.953   .     S
Cu24   N35     2.026   .     S
H26    C279    1.088   1_545 S
H27    C143    1.088   .     S
H28    N127    1.029   1_455 S
H33    C57     1.083   .     S
N35    H74     1.029   .     S
N35    N82     1.285   .     S
N36    N127    1.285   1_455 S
N36    C106    1.386   1_455 S
C47    O85     1.293   .     A
C47    O86     1.290   .     A
C47    C49     1.429   .     S
C48    C50     1.475   .     S
C48    C56     1.403   .     A
C48    C62     1.420   .     A
C49    C189    1.330   .     S
C49    H210    1.088   .     S
C50    O88     1.299   .     A
C50    O87     1.306   .     A
C51    C52     1.429   .     S
C51    C325    1.330   1_545 S
C51    H349    1.088   1_545 S
C52    O90     1.293   .     A
C52    O89     1.290   .     A
C53    O91     1.298   .     A
C53    O92     1.302   .     A
C53    C55     1.465   .     S
C54    C68     1.390   .     A
C54    H76     1.084   .     S
C54    C478    1.402   1_554 S
C55    C67     1.406   .     A
C55    C68     1.399   .     A
C56    C57     1.389   .     A
C56    H77     1.083   .     S
C57    C473    1.392   .     S
C58    C62     1.416   .     A
C58    C473    1.415   .     S
C58    C477    1.427   .     S
C59    H78     1.080   .     S
C59    C471    1.392   1_554 S
C59    C472    1.415   1_554 S
C60    N83     1.158   .     T
C60    N128    1.386   .     S
C61    N84     1.158   .     T
C61    C67     1.452   .     S
C62    C66     1.411   .     A
C63    C67     1.416   .     A
C63    C472    1.427   1_554 S
C63    C478    1.422   1_554 S
C64    C65     1.393   .     A
C64    C477    1.422   .     S
C64    C468    1.402   .     S
C65    C66     1.387   .     A
C65    H75     1.084   .     S
C66    H80     1.081   .     S
C68    H71     1.083   .     S
Cu69   Cu70    2.697   .     S
Cu69   O91     1.918   .     S
Cu69   O87     1.937   .     S
Cu69   O85     1.953   .     S
Cu69   N82     2.026   .     S
Cu69   O89     1.951   .     S
Cu70   O88     1.918   .     S
Cu70   O92     1.937   .     S
Cu70   O86     1.951   .     S
Cu70   O90     1.953   .     S
Cu70   N81     2.026   .     S
H72    C325    1.088   1_545 S
H73    C189    1.088   .     S
H79    C103    1.083   .     S
N81    H120    1.029   .     S
N81    N128    1.285   .     S
C93    O131    1.293   .     A
C93    O132    1.290   .     A
C93    C95     1.429   .     S
C94    C96     1.475   .     S
C94    C102    1.403   .     A
C94    C108    1.420   .     A
C95    C235    1.330   .     S
C95    H256    1.088   .     S
C96    O134    1.299   .     A
C96    O133    1.306   .     A
C97    C98     1.429   .     S
C97    C371    1.330   1_545 S
C97    H395    1.088   1_545 S
C98    O136    1.293   .     A
C98    O135    1.290   .     A
C99    O137    1.298   .     A
C99    O138    1.302   .     A
C99    C101    1.465   .     S
C100   C114    1.390   .     A
C100   H122    1.084   .     S
C100   C524    1.402   1_554 S
C101   C113    1.406   .     A
C101   C114    1.399   .     A
C102   C103    1.389   .     A
C102   H123    1.083   .     S
C103   C519    1.392   .     S
C104   C108    1.416   .     A
C104   C519    1.415   .     S
C104   C523    1.427   .     S
C105   H124    1.080   .     S
C105   C517    1.392   1_554 S
C105   C518    1.415   1_554 S
C106   N129    1.158   .     T
C106   N36     1.386   1_655 S
C107   N130    1.158   .     T
C107   C113    1.452   .     S
C108   C112    1.411   .     A
C109   C113    1.416   .     A
C109   C518    1.427   1_554 S
C109   C524    1.422   1_554 S
C110   C111    1.393   .     A
C110   C523    1.422   .     S
C110   C514    1.402   .     S
C111   C112    1.387   .     A
C111   H121    1.084   .     S
C112   H126    1.081   .     S
C114   H117    1.083   .     S
Cu115  Cu116   2.697   .     S
Cu115  O137    1.918   .     S
Cu115  O133    1.937   .     S
Cu115  O131    1.953   .     S
Cu115  N128    2.026   .     S
Cu115  O135    1.951   .     S
Cu116  O134    1.918   .     S
Cu116  O138    1.937   .     S
Cu116  O132    1.951   .     S
Cu116  O136    1.953   .     S
Cu116  N127    2.026   .     S
H118   C371    1.088   1_545 S
H119   C235    1.088   .     S
H125   C11     1.083   1_655 S
N127   H28     1.029   1_655 S
N127   N36     1.285   1_655 S
C139   O177    1.293   .     A
C139   O178    1.290   .     A
C139   C141    1.429   .     S
C140   C142    1.475   .     S
C140   C148    1.403   .     A
C140   C154    1.420   .     A
C141   C281    1.330   .     S
C141   H302    1.088   .     S
C142   O180    1.299   .     A
C142   O179    1.306   .     A
C143   C144    1.429   .     S
C144   O182    1.293   .     A
C144   O181    1.290   .     A
C145   O183    1.298   .     A
C145   O184    1.302   .     A
C145   C147    1.465   .     S
C146   C160    1.390   .     A
C146   H168    1.084   .     S
C146   C570    1.402   1_554 S
C147   C159    1.406   .     A
C147   C160    1.399   .     A
C148   C149    1.389   .     A
C148   H169    1.083   .     S
C149   C565    1.392   .     S
C149   H263    1.083   1_455 S
C150   C154    1.416   .     A
C150   C565    1.415   .     S
C150   C569    1.427   .     S
C151   H170    1.080   .     S
C151   C563    1.392   1_554 S
C151   C564    1.415   1_554 S
C152   N175    1.158   .     T
C152   N220    1.386   .     S
C153   N176    1.158   .     T
C153   C159    1.452   .     S
C154   C158    1.411   .     A
C155   C159    1.416   .     A
C155   C564    1.427   1_554 S
C155   C570    1.422   1_554 S
C156   C157    1.393   .     A
C156   C569    1.422   .     S
C156   C560    1.402   .     S
C157   C158    1.387   .     A
C157   H167    1.084   .     S
C158   H172    1.081   .     S
C160   H163    1.083   .     S
Cu161  Cu162   2.697   .     S
Cu161  O183    1.918   .     S
Cu161  O179    1.937   .     S
Cu161  O177    1.953   .     S
Cu161  N174    2.026   .     S
Cu161  O181    1.951   .     S
Cu162  O180    1.918   .     S
Cu162  O184    1.937   .     S
Cu162  O178    1.951   .     S
Cu162  O182    1.953   .     S
Cu162  N173    2.026   .     S
H165   C281    1.088   .     S
H166   N265    1.029   1_455 S
H171   C195    1.083   .     S
N173   H212    1.029   .     S
N173   N220    1.285   .     S
N174   N265    1.285   1_455 S
N174   C244    1.386   1_455 S
C185   O223    1.293   .     A
C185   O224    1.290   .     A
C185   C187    1.429   .     S
C186   C188    1.475   .     S
C186   C194    1.403   .     A
C186   C200    1.420   .     A
C187   C327    1.330   .     S
C187   H348    1.088   .     S
C188   O226    1.299   .     A
C188   O225    1.306   .     A
C189   C190    1.429   .     S
C190   O228    1.293   .     A
C190   O227    1.290   .     A
C191   O229    1.298   .     A
C191   O230    1.302   .     A
C191   C193    1.465   .     S
C192   C206    1.390   .     A
C192   H214    1.084   .     S
C192   C616    1.402   1_554 S
C193   C205    1.406   .     A
C193   C206    1.399   .     A
C194   C195    1.389   .     A
C194   H215    1.083   .     S
C195   C611    1.392   .     S
C196   C200    1.416   .     A
C196   C611    1.415   .     S
C196   C615    1.427   .     S
C197   H216    1.080   .     S
C197   C609    1.392   1_554 S
C197   C610    1.415   1_554 S
C198   N221    1.158   .     T
C198   N266    1.386   .     S
C199   N222    1.158   .     T
C199   C205    1.452   .     S
C200   C204    1.411   .     A
C201   C205    1.416   .     A
C201   C610    1.427   1_554 S
C201   C616    1.422   1_554 S
C202   C203    1.393   .     A
C202   C615    1.422   .     S
C202   C606    1.402   .     S
C203   C204    1.387   .     A
C203   H213    1.084   .     S
C204   H218    1.081   .     S
C206   H209    1.083   .     S
Cu207  Cu208   2.697   .     S
Cu207  O229    1.918   .     S
Cu207  O225    1.937   .     S
Cu207  O223    1.953   .     S
Cu207  N220    2.026   .     S
Cu207  O227    1.951   .     S
Cu208  O226    1.918   .     S
Cu208  O230    1.937   .     S
Cu208  O224    1.951   .     S
Cu208  O228    1.953   .     S
Cu208  N219    2.026   .     S
H211   C327    1.088   .     S
H217   C241    1.083   .     S
N219   H258    1.029   .     S
N219   N266    1.285   .     S
C231   O269    1.293   .     A
C231   O270    1.290   .     A
C231   C233    1.429   .     S
C232   C234    1.475   .     S
C232   C240    1.403   .     A
C232   C246    1.420   .     A
C233   C373    1.330   .     S
C233   H394    1.088   .     S
C234   O272    1.299   .     A
C234   O271    1.306   .     A
C235   C236    1.429   .     S
C236   O274    1.293   .     A
C236   O273    1.290   .     A
C237   O275    1.298   .     A
C237   O276    1.302   .     A
C237   C239    1.465   .     S
C238   C252    1.390   .     A
C238   H260    1.084   .     S
C238   C662    1.402   1_554 S
C239   C251    1.406   .     A
C239   C252    1.399   .     A
C240   C241    1.389   .     A
C240   H261    1.083   .     S
C241   C657    1.392   .     S
C242   C246    1.416   .     A
C242   C657    1.415   .     S
C242   C661    1.427   .     S
C243   H262    1.080   .     S
C243   C655    1.392   1_554 S
C243   C656    1.415   1_554 S
C244   N267    1.158   .     T
C244   N174    1.386   1_655 S
C245   N268    1.158   .     T
C245   C251    1.452   .     S
C246   C250    1.411   .     A
C247   C251    1.416   .     A
C247   C656    1.427   1_554 S
C247   C662    1.422   1_554 S
C248   C249    1.393   .     A
C248   C661    1.422   .     S
C248   C652    1.402   .     S
C249   C250    1.387   .     A
C249   H259    1.084   .     S
C250   H264    1.081   .     S
C252   H255    1.083   .     S
Cu253  Cu254   2.697   .     S
Cu253  O275    1.918   .     S
Cu253  O271    1.937   .     S
Cu253  O269    1.953   .     S
Cu253  N266    2.026   .     S
Cu253  O273    1.951   .     S
Cu254  O272    1.918   .     S
Cu254  O276    1.937   .     S
Cu254  O270    1.951   .     S
Cu254  O274    1.953   .     S
Cu254  N265    2.026   .     S
H257   C373    1.088   .     S
H263   C149    1.083   1_655 S
N265   H166    1.029   1_655 S
N265   N174    1.285   1_655 S
C277   O315    1.293   .     A
C277   O316    1.290   .     A
C277   C279    1.429   .     S
C278   C280    1.475   .     S
C278   C286    1.403   .     A
C278   C292    1.420   .     A
C279   C5      1.330   1_565 S
C279   H26     1.088   1_565 S
C280   O318    1.299   .     A
C280   O317    1.306   .     A
C281   C282    1.429   .     S
C282   O320    1.293   .     A
C282   O319    1.290   .     A
C283   O321    1.298   .     A
C283   O322    1.302   .     A
C283   C285    1.465   .     S
C284   C298    1.390   .     A
C284   H306    1.084   .     S
C284   C708    1.402   1_554 S
C285   C297    1.406   .     A
C285   C298    1.399   .     A
C286   C287    1.389   .     A
C286   H307    1.083   .     S
C287   C703    1.392   .     S
C287   H401    1.083   1_455 S
C288   C292    1.416   .     A
C288   C703    1.415   .     S
C288   C707    1.427   .     S
C289   H308    1.080   .     S
C289   C701    1.392   1_554 S
C289   C702    1.415   1_554 S
C290   N313    1.158   .     T
C290   N358    1.386   .     S
C291   N314    1.158   .     T
C291   C297    1.452   .     S
C292   C296    1.411   .     A
C293   C297    1.416   .     A
C293   C702    1.427   1_554 S
C293   C708    1.422   1_554 S
C294   C295    1.393   .     A
C294   C707    1.422   .     S
C294   C698    1.402   .     S
C295   C296    1.387   .     A
C295   H305    1.084   .     S
C296   H310    1.081   .     S
C298   H301    1.083   .     S
Cu299  Cu300   2.697   .     S
Cu299  O321    1.918   .     S
Cu299  O317    1.937   .     S
Cu299  O315    1.953   .     S
Cu299  N312    2.026   .     S
Cu299  O319    1.951   .     S
Cu300  O318    1.918   .     S
Cu300  O322    1.937   .     S
Cu300  O316    1.951   .     S
Cu300  O320    1.953   .     S
Cu300  N311    2.026   .     S
H303   C5      1.088   1_565 S
H304   N403    1.029   1_455 S
H309   C333    1.083   .     S
N311   H350    1.029   .     S
N311   N358    1.285   .     S
N312   N403    1.285   1_455 S
N312   C382    1.386   1_455 S
C323   O361    1.293   .     A
C323   O362    1.290   .     A
C323   C325    1.429   .     S
C324   C326    1.475   .     S
C324   C332    1.403   .     A
C324   C338    1.420   .     A
C325   C51     1.330   1_565 S
C325   H72     1.088   1_565 S
C326   O364    1.299   .     A
C326   O363    1.306   .     A
C327   C328    1.429   .     S
C328   O366    1.293   .     A
C328   O365    1.290   .     A
C329   O367    1.298   .     A
C329   O368    1.302   .     A
C329   C331    1.465   .     S
C330   C344    1.390   .     A
C330   H352    1.084   .     S
C330   C754    1.402   1_554 S
C331   C343    1.406   .     A
C331   C344    1.399   .     A
C332   C333    1.389   .     A
C332   H353    1.083   .     S
C333   C749    1.392   .     S
C334   C338    1.416   .     A
C334   C749    1.415   .     S
C334   C753    1.427   .     S
C335   H354    1.080   .     S
C335   C747    1.392   1_554 S
C335   C748    1.415   1_554 S
C336   N359    1.158   .     T
C336   N404    1.386   .     S
C337   N360    1.158   .     T
C337   C343    1.452   .     S
C338   C342    1.411   .     A
C339   C343    1.416   .     A
C339   C748    1.427   1_554 S
C339   C754    1.422   1_554 S
C340   C341    1.393   .     A
C340   C753    1.422   .     S
C340   C744    1.402   .     S
C341   C342    1.387   .     A
C341   H351    1.084   .     S
C342   H356    1.081   .     S
C344   H347    1.083   .     S
Cu345  Cu346   2.697   .     S
Cu345  O367    1.918   .     S
Cu345  O363    1.937   .     S
Cu345  O361    1.953   .     S
Cu345  N358    2.026   .     S
Cu345  O365    1.951   .     S
Cu346  O364    1.918   .     S
Cu346  O368    1.937   .     S
Cu346  O362    1.951   .     S
Cu346  O366    1.953   .     S
Cu346  N357    2.026   .     S
H349   C51     1.088   1_565 S
H355   C379    1.083   .     S
N357   H396    1.029   .     S
N357   N404    1.285   .     S
C369   O407    1.293   .     A
C369   O408    1.290   .     A
C369   C371    1.429   .     S
C370   C372    1.475   .     S
C370   C378    1.403   .     A
C370   C384    1.420   .     A
C371   C97     1.330   1_565 S
C371   H118    1.088   1_565 S
C372   O410    1.299   .     A
C372   O409    1.306   .     A
C373   C374    1.429   .     S
C374   O412    1.293   .     A
C374   O411    1.290   .     A
C375   O413    1.298   .     A
C375   O414    1.302   .     A
C375   C377    1.465   .     S
C376   C390    1.390   .     A
C376   H398    1.084   .     S
C376   C800    1.402   1_554 S
C377   C389    1.406   .     A
C377   C390    1.399   .     A
C378   C379    1.389   .     A
C378   H399    1.083   .     S
C379   C795    1.392   .     S
C380   C384    1.416   .     A
C380   C795    1.415   .     S
C380   C799    1.427   .     S
C381   H400    1.080   .     S
C381   C793    1.392   1_554 S
C381   C794    1.415   1_554 S
C382   N405    1.158   .     T
C382   N312    1.386   1_655 S
C383   N406    1.158   .     T
C383   C389    1.452   .     S
C384   C388    1.411   .     A
C385   C389    1.416   .     A
C385   C794    1.427   1_554 S
C385   C800    1.422   1_554 S
C386   C387    1.393   .     A
C386   C799    1.422   .     S
C386   C790    1.402   .     S
C387   C388    1.387   .     A
C387   H397    1.084   .     S
C388   H402    1.081   .     S
C390   H393    1.083   .     S
Cu391  Cu392   2.697   .     S
Cu391  O413    1.918   .     S
Cu391  O409    1.937   .     S
Cu391  O407    1.953   .     S
Cu391  N404    2.026   .     S
Cu391  O411    1.951   .     S
Cu392  O410    1.918   .     S
Cu392  O414    1.937   .     S
Cu392  O408    1.951   .     S
Cu392  O412    1.953   .     S
Cu392  N403    2.026   .     S
H395   C97     1.088   1_565 S
H401   C287    1.083   1_655 S
N403   H304    1.029   1_655 S
N403   N312    1.285   1_655 S
C415   O453    1.293   .     A
C415   O454    1.290   .     A
C415   C417    1.429   .     S
C416   C418    1.475   .     S
C416   C424    1.403   .     A
C416   C430    1.420   .     A
C417   C557    1.330   .     S
C417   H578    1.088   .     S
C418   O456    1.299   .     A
C418   O455    1.306   .     A
C419   C420    1.429   .     S
C419   C693    1.330   1_545 S
C419   H717    1.088   1_545 S
C420   O458    1.293   .     A
C420   O457    1.290   .     A
C421   O459    1.298   .     A
C421   O460    1.302   .     A
C421   C423    1.465   .     S
C422   C436    1.390   .     A
C422   H444    1.084   .     S
C423   C435    1.406   .     A
C423   C436    1.399   .     A
C424   C425    1.389   .     A
C424   H445    1.083   .     S
C425   C13     1.392   1_556 S
C425   H539    1.083   1_455 S
C426   C430    1.416   .     A
C426   C13     1.415   1_556 S
C426   C17     1.427   1_556 S
C427   H446    1.080   .     S
C428   N451    1.158   .     T
C428   N496    1.386   .     S
C429   N452    1.158   .     T
C429   C435    1.452   .     S
C430   C434    1.411   .     A
C431   C435    1.416   .     A
C432   C433    1.393   .     A
C432   C17     1.422   1_556 S
C432   C8      1.402   1_556 S
C433   C434    1.387   .     A
C433   H443    1.084   .     S
C434   H448    1.081   .     S
C436   H439    1.083   .     S
Cu437  Cu438   2.697   .     S
Cu437  O459    1.918   .     S
Cu437  O455    1.937   .     S
Cu437  O453    1.953   .     S
Cu437  N450    2.026   .     S
Cu437  O457    1.951   .     S
Cu438  O456    1.918   .     S
Cu438  O460    1.937   .     S
Cu438  O454    1.951   .     S
Cu438  O458    1.953   .     S
Cu438  N449    2.026   .     S
H440   C693    1.088   1_545 S
H441   C557    1.088   .     S
H442   N541    1.029   1_455 S
H447   C471    1.083   .     S
N449   H488    1.029   .     S
N449   N496    1.285   .     S
N450   N541    1.285   1_455 S
N450   C520    1.386   1_455 S
C461   O499    1.293   .     A
C461   O500    1.290   .     A
C461   C463    1.429   .     S
C462   C464    1.475   .     S
C462   C470    1.403   .     A
C462   C476    1.420   .     A
C463   C603    1.330   .     S
C463   H624    1.088   .     S
C464   O502    1.299   .     A
C464   O501    1.306   .     A
C465   C466    1.429   .     S
C465   C739    1.330   1_545 S
C465   H763    1.088   1_545 S
C466   O504    1.293   .     A
C466   O503    1.290   .     A
C467   O505    1.298   .     A
C467   O506    1.302   .     A
C467   C469    1.465   .     S
C468   C482    1.390   .     A
C468   H490    1.084   .     S
C469   C481    1.406   .     A
C469   C482    1.399   .     A
C470   C471    1.389   .     A
C470   H491    1.083   .     S
C471   C59     1.392   1_556 S
C472   C476    1.416   .     A
C472   C59     1.415   1_556 S
C472   C63     1.427   1_556 S
C473   H492    1.080   .     S
C474   N497    1.158   .     T
C474   N542    1.386   .     S
C475   N498    1.158   .     T
C475   C481    1.452   .     S
C476   C480    1.411   .     A
C477   C481    1.416   .     A
C478   C479    1.393   .     A
C478   C63     1.422   1_556 S
C478   C54     1.402   1_556 S
C479   C480    1.387   .     A
C479   H489    1.084   .     S
C480   H494    1.081   .     S
C482   H485    1.083   .     S
Cu483  Cu484   2.697   .     S
Cu483  O505    1.918   .     S
Cu483  O501    1.937   .     S
Cu483  O499    1.953   .     S
Cu483  N496    2.026   .     S
Cu483  O503    1.951   .     S
Cu484  O502    1.918   .     S
Cu484  O506    1.937   .     S
Cu484  O500    1.951   .     S
Cu484  O504    1.953   .     S
Cu484  N495    2.026   .     S
H486   C739    1.088   1_545 S
H487   C603    1.088   .     S
H493   C517    1.083   .     S
N495   H534    1.029   .     S
N495   N542    1.285   .     S
C507   O545    1.293   .     A
C507   O546    1.290   .     A
C507   C509    1.429   .     S
C508   C510    1.475   .     S
C508   C516    1.403   .     A
C508   C522    1.420   .     A
C509   C649    1.330   .     S
C509   H670    1.088   .     S
C510   O548    1.299   .     A
C510   O547    1.306   .     A
C511   C512    1.429   .     S
C511   C785    1.330   1_545 S
C511   H809    1.088   1_545 S
C512   O550    1.293   .     A
C512   O549    1.290   .     A
C513   O551    1.298   .     A
C513   O552    1.302   .     A
C513   C515    1.465   .     S
C514   C528    1.390   .     A
C514   H536    1.084   .     S
C515   C527    1.406   .     A
C515   C528    1.399   .     A
C516   C517    1.389   .     A
C516   H537    1.083   .     S
C517   C105    1.392   1_556 S
C518   C522    1.416   .     A
C518   C105    1.415   1_556 S
C518   C109    1.427   1_556 S
C519   H538    1.080   .     S
C520   N543    1.158   .     T
C520   N450    1.386   1_655 S
C521   N544    1.158   .     T
C521   C527    1.452   .     S
C522   C526    1.411   .     A
C523   C527    1.416   .     A
C524   C525    1.393   .     A
C524   C109    1.422   1_556 S
C524   C100    1.402   1_556 S
C525   C526    1.387   .     A
C525   H535    1.084   .     S
C526   H540    1.081   .     S
C528   H531    1.083   .     S
Cu529  Cu530   2.697   .     S
Cu529  O551    1.918   .     S
Cu529  O547    1.937   .     S
Cu529  O545    1.953   .     S
Cu529  N542    2.026   .     S
Cu529  O549    1.951   .     S
Cu530  O548    1.918   .     S
Cu530  O552    1.937   .     S
Cu530  O546    1.951   .     S
Cu530  O550    1.953   .     S
Cu530  N541    2.026   .     S
H532   C785    1.088   1_545 S
H533   C649    1.088   .     S
H539   C425    1.083   1_655 S
N541   H442    1.029   1_655 S
N541   N450    1.285   1_655 S
C553   O591    1.293   .     A
C553   O592    1.290   .     A
C553   C555    1.429   .     S
C554   C556    1.475   .     S
C554   C562    1.403   .     A
C554   C568    1.420   .     A
C555   C695    1.330   .     S
C555   H716    1.088   .     S
C556   O594    1.299   .     A
C556   O593    1.306   .     A
C557   C558    1.429   .     S
C558   O596    1.293   .     A
C558   O595    1.290   .     A
C559   O597    1.298   .     A
C559   O598    1.302   .     A
C559   C561    1.465   .     S
C560   C574    1.390   .     A
C560   H582    1.084   .     S
C561   C573    1.406   .     A
C561   C574    1.399   .     A
C562   C563    1.389   .     A
C562   H583    1.083   .     S
C563   C151    1.392   1_556 S
C563   H677    1.083   1_455 S
C564   C568    1.416   .     A
C564   C151    1.415   1_556 S
C564   C155    1.427   1_556 S
C565   H584    1.080   .     S
C566   N589    1.158   .     T
C566   N634    1.386   .     S
C567   N590    1.158   .     T
C567   C573    1.452   .     S
C568   C572    1.411   .     A
C569   C573    1.416   .     A
C570   C571    1.393   .     A
C570   C155    1.422   1_556 S
C570   C146    1.402   1_556 S
C571   C572    1.387   .     A
C571   H581    1.084   .     S
C572   H586    1.081   .     S
C574   H577    1.083   .     S
Cu575  Cu576   2.697   .     S
Cu575  O597    1.918   .     S
Cu575  O593    1.937   .     S
Cu575  O591    1.953   .     S
Cu575  N588    2.026   .     S
Cu575  O595    1.951   .     S
Cu576  O594    1.918   .     S
Cu576  O598    1.937   .     S
Cu576  O592    1.951   .     S
Cu576  O596    1.953   .     S
Cu576  N587    2.026   .     S
H579   C695    1.088   .     S
H580   N679    1.029   1_455 S
H585   C609    1.083   .     S
N587   H626    1.029   .     S
N587   N634    1.285   .     S
N588   N679    1.285   1_455 S
N588   C658    1.386   1_455 S
C599   O637    1.293   .     A
C599   O638    1.290   .     A
C599   C601    1.429   .     S
C600   C602    1.475   .     S
C600   C608    1.403   .     A
C600   C614    1.420   .     A
C601   C741    1.330   .     S
C601   H762    1.088   .     S
C602   O640    1.299   .     A
C602   O639    1.306   .     A
C603   C604    1.429   .     S
C604   O642    1.293   .     A
C604   O641    1.290   .     A
C605   O643    1.298   .     A
C605   O644    1.302   .     A
C605   C607    1.465   .     S
C606   C620    1.390   .     A
C606   H628    1.084   .     S
C607   C619    1.406   .     A
C607   C620    1.399   .     A
C608   C609    1.389   .     A
C608   H629    1.083   .     S
C609   C197    1.392   1_556 S
C610   C614    1.416   .     A
C610   C197    1.415   1_556 S
C610   C201    1.427   1_556 S
C611   H630    1.080   .     S
C612   N635    1.158   .     T
C612   N680    1.386   .     S
C613   N636    1.158   .     T
C613   C619    1.452   .     S
C614   C618    1.411   .     A
C615   C619    1.416   .     A
C616   C617    1.393   .     A
C616   C201    1.422   1_556 S
C616   C192    1.402   1_556 S
C617   C618    1.387   .     A
C617   H627    1.084   .     S
C618   H632    1.081   .     S
C620   H623    1.083   .     S
Cu621  Cu622   2.697   .     S
Cu621  O643    1.918   .     S
Cu621  O639    1.937   .     S
Cu621  O637    1.953   .     S
Cu621  N634    2.026   .     S
Cu621  O641    1.951   .     S
Cu622  O640    1.918   .     S
Cu622  O644    1.937   .     S
Cu622  O638    1.951   .     S
Cu622  O642    1.953   .     S
Cu622  N633    2.026   .     S
H625   C741    1.088   .     S
H631   C655    1.083   .     S
N633   H672    1.029   .     S
N633   N680    1.285   .     S
C645   O683    1.293   .     A
C645   O684    1.290   .     A
C645   C647    1.429   .     S
C646   C648    1.475   .     S
C646   C654    1.403   .     A
C646   C660    1.420   .     A
C647   C787    1.330   .     S
C647   H808    1.088   .     S
C648   O686    1.299   .     A
C648   O685    1.306   .     A
C649   C650    1.429   .     S
C650   O688    1.293   .     A
C650   O687    1.290   .     A
C651   O689    1.298   .     A
C651   O690    1.302   .     A
C651   C653    1.465   .     S
C652   C666    1.390   .     A
C652   H674    1.084   .     S
C653   C665    1.406   .     A
C653   C666    1.399   .     A
C654   C655    1.389   .     A
C654   H675    1.083   .     S
C655   C243    1.392   1_556 S
C656   C660    1.416   .     A
C656   C243    1.415   1_556 S
C656   C247    1.427   1_556 S
C657   H676    1.080   .     S
C658   N681    1.158   .     T
C658   N588    1.386   1_655 S
C659   N682    1.158   .     T
C659   C665    1.452   .     S
C660   C664    1.411   .     A
C661   C665    1.416   .     A
C662   C663    1.393   .     A
C662   C247    1.422   1_556 S
C662   C238    1.402   1_556 S
C663   C664    1.387   .     A
C663   H673    1.084   .     S
C664   H678    1.081   .     S
C666   H669    1.083   .     S
Cu667  Cu668   2.697   .     S
Cu667  O689    1.918   .     S
Cu667  O685    1.937   .     S
Cu667  O683    1.953   .     S
Cu667  N680    2.026   .     S
Cu667  O687    1.951   .     S
Cu668  O686    1.918   .     S
Cu668  O690    1.937   .     S
Cu668  O684    1.951   .     S
Cu668  O688    1.953   .     S
Cu668  N679    2.026   .     S
H671   C787    1.088   .     S
H677   C563    1.083   1_655 S
N679   H580    1.029   1_655 S
N679   N588    1.285   1_655 S
C691   O729    1.293   .     A
C691   O730    1.290   .     A
C691   C693    1.429   .     S
C692   C694    1.475   .     S
C692   C700    1.403   .     A
C692   C706    1.420   .     A
C693   C419    1.330   1_565 S
C693   H440    1.088   1_565 S
C694   O732    1.299   .     A
C694   O731    1.306   .     A
C695   C696    1.429   .     S
C696   O734    1.293   .     A
C696   O733    1.290   .     A
C697   O735    1.298   .     A
C697   O736    1.302   .     A
C697   C699    1.465   .     S
C698   C712    1.390   .     A
C698   H720    1.084   .     S
C699   C711    1.406   .     A
C699   C712    1.399   .     A
C700   C701    1.389   .     A
C700   H721    1.083   .     S
C701   C289    1.392   1_556 S
C701   H815    1.083   1_455 S
C702   C706    1.416   .     A
C702   C289    1.415   1_556 S
C702   C293    1.427   1_556 S
C703   H722    1.080   .     S
C704   N727    1.158   .     T
C704   N772    1.386   .     S
C705   N728    1.158   .     T
C705   C711    1.452   .     S
C706   C710    1.411   .     A
C707   C711    1.416   .     A
C708   C709    1.393   .     A
C708   C293    1.422   1_556 S
C708   C284    1.402   1_556 S
C709   C710    1.387   .     A
C709   H719    1.084   .     S
C710   H724    1.081   .     S
C712   H715    1.083   .     S
Cu713  Cu714   2.697   .     S
Cu713  O735    1.918   .     S
Cu713  O731    1.937   .     S
Cu713  O729    1.953   .     S
Cu713  N726    2.026   .     S
Cu713  O733    1.951   .     S
Cu714  O732    1.918   .     S
Cu714  O736    1.937   .     S
Cu714  O730    1.951   .     S
Cu714  O734    1.953   .     S
Cu714  N725    2.026   .     S
H717   C419    1.088   1_565 S
H718   N817    1.029   1_455 S
H723   C747    1.083   .     S
N725   H764    1.029   .     S
N725   N772    1.285   .     S
N726   N817    1.285   1_455 S
N726   C796    1.386   1_455 S
C737   O775    1.293   .     A
C737   O776    1.290   .     A
C737   C739    1.429   .     S
C738   C740    1.475   .     S
C738   C746    1.403   .     A
C738   C752    1.420   .     A
C739   C465    1.330   1_565 S
C739   H486    1.088   1_565 S
C740   O778    1.299   .     A
C740   O777    1.306   .     A
C741   C742    1.429   .     S
C742   O780    1.293   .     A
C742   O779    1.290   .     A
C743   O781    1.298   .     A
C743   O782    1.302   .     A
C743   C745    1.465   .     S
C744   C758    1.390   .     A
C744   H766    1.084   .     S
C745   C757    1.406   .     A
C745   C758    1.399   .     A
C746   C747    1.389   .     A
C746   H767    1.083   .     S
C747   C335    1.392   1_556 S
C748   C752    1.416   .     A
C748   C335    1.415   1_556 S
C748   C339    1.427   1_556 S
C749   H768    1.080   .     S
C750   N773    1.158   .     T
C750   N818    1.386   .     S
C751   N774    1.158   .     T
C751   C757    1.452   .     S
C752   C756    1.411   .     A
C753   C757    1.416   .     A
C754   C755    1.393   .     A
C754   C339    1.422   1_556 S
C754   C330    1.402   1_556 S
C755   C756    1.387   .     A
C755   H765    1.084   .     S
C756   H770    1.081   .     S
C758   H761    1.083   .     S
Cu759  Cu760   2.697   .     S
Cu759  O781    1.918   .     S
Cu759  O777    1.937   .     S
Cu759  O775    1.953   .     S
Cu759  N772    2.026   .     S
Cu759  O779    1.951   .     S
Cu760  O778    1.918   .     S
Cu760  O782    1.937   .     S
Cu760  O776    1.951   .     S
Cu760  O780    1.953   .     S
Cu760  N771    2.026   .     S
H763   C465    1.088   1_565 S
H769   C793    1.083   .     S
N771   H810    1.029   .     S
N771   N818    1.285   .     S
C783   O821    1.293   .     A
C783   O822    1.290   .     A
C783   C785    1.429   .     S
C784   C786    1.475   .     S
C784   C792    1.403   .     A
C784   C798    1.420   .     A
C785   C511    1.330   1_565 S
C785   H532    1.088   1_565 S
C786   O824    1.299   .     A
C786   O823    1.306   .     A
C787   C788    1.429   .     S
C788   O826    1.293   .     A
C788   O825    1.290   .     A
C789   O827    1.298   .     A
C789   O828    1.302   .     A
C789   C791    1.465   .     S
C790   C804    1.390   .     A
C790   H812    1.084   .     S
C791   C803    1.406   .     A
C791   C804    1.399   .     A
C792   C793    1.389   .     A
C792   H813    1.083   .     S
C793   C381    1.392   1_556 S
C794   C798    1.416   .     A
C794   C381    1.415   1_556 S
C794   C385    1.427   1_556 S
C795   H814    1.080   .     S
C796   N819    1.158   .     T
C796   N726    1.386   1_655 S
C797   N820    1.158   .     T
C797   C803    1.452   .     S
C798   C802    1.411   .     A
C799   C803    1.416   .     A
C800   C801    1.393   .     A
C800   C385    1.422   1_556 S
C800   C376    1.402   1_556 S
C801   C802    1.387   .     A
C801   H811    1.084   .     S
C802   H816    1.081   .     S
C804   H807    1.083   .     S
Cu805  Cu806   2.697   .     S
Cu805  O827    1.918   .     S
Cu805  O823    1.937   .     S
Cu805  O821    1.953   .     S
Cu805  N818    2.026   .     S
Cu805  O825    1.951   .     S
Cu806  O824    1.918   .     S
Cu806  O828    1.937   .     S
Cu806  O822    1.951   .     S
Cu806  O826    1.953   .     S
Cu806  N817    2.026   .     S
H809   C511    1.088   1_565 S
H815   C701    1.083   1_655 S
N817   H718    1.029   1_655 S
N817   N726    1.285   1_655 S
