data_str_m1_o10_o18_pcu_sym.136
_audit_creation_date              2020-01-03
_audit_creation_method            'Materials Studio'
_symmetry_space_group_name_H-M    'P1'
_symmetry_Int_Tables_number       1
_symmetry_cell_setting            triclinic
loop_
_symmetry_equiv_pos_as_xyz
  x,y,z
_cell_length_a                    32.5318
_cell_length_b                    32.6353
_cell_length_c                    35.4251
_cell_angle_alpha                 98.3771
_cell_angle_beta                  72.8432
_cell_angle_gamma                 98.6704
loop_
_atom_site_label
_atom_site_type_symbol
_atom_site_fract_x
_atom_site_fract_y
_atom_site_fract_z
_atom_site_U_iso_or_equiv
_atom_site_adp_type
_atom_site_occupancy
C1     C     0.05240   0.15967   0.25906   0.00000  Uiso   1.00
C2     C     0.22090   0.14769   0.45429   0.00000  Uiso   1.00
C3     C     0.23511   0.12220   0.47559   0.00000  Uiso   1.00
C4     C     0.28114   0.17387   0.24128   0.00000  Uiso   1.00
C5     C     0.22729   0.13126   0.01720   0.00000  Uiso   1.00
C6     C     0.19389   0.15594   0.03819   0.00000  Uiso   1.00
C7     C     0.25313   0.11816   0.03826   0.00000  Uiso   1.00
C8     C     0.23729   0.11854   0.08008   0.00000  Uiso   1.00
C9     C     0.17543   0.15294   0.07944   0.00000  Uiso   1.00
C10    C     0.32735   0.17763   0.23799   0.00000  Uiso   1.00
C11    C     0.00716   0.15765   0.26201   0.00000  Uiso   1.00
C12    C     0.12375   0.23756   0.41780   0.00000  Uiso   1.00
C13    C     0.18063   0.32248   0.23994   0.00000  Uiso   1.00
C14    C     0.14965   0.01216   0.26288   0.00000  Uiso   1.00
C15    C     0.15640   0.05616   0.25838   0.00000  Uiso   1.00
C16    C     0.17668   0.27773   0.24148   0.00000  Uiso   1.00
C17    C     0.18775   0.14580   0.14374   0.00000  Uiso   1.00
C18    C     0.14567   0.18801   0.35635   0.00000  Uiso   1.00
C19    C     0.14170   0.20106   0.39879   0.00000  Uiso   1.00
C20    C     0.19878   0.13657   0.10037   0.00000  Uiso   1.00
C21    C     0.12491   0.25196   0.45656   0.00000  Uiso   1.00
C22    C     0.02629   0.24163   0.22093   0.00000  Uiso   1.00
C23    C     0.16022   0.17901   0.41930   0.00000  Uiso   1.00
C24    C     0.08801   0.02085   0.31628   0.00000  Uiso   1.00
C25    C     0.16613   0.19529   0.45650   0.00000  Uiso   1.00
C26    C     0.14578   0.23109   0.47660   0.00000  Uiso   1.00
C27    C     0.18933   0.17498   0.47524   0.00000  Uiso   1.00
C28    C     0.18029   0.18247   0.01699   0.00000  Uiso   1.00
C29    C     0.16293   0.21959   0.03596   0.00000  Uiso   1.00
C30    C     0.14668   0.24453   0.01613   0.00000  Uiso   1.00
H31    H     0.31785   0.13983   0.28457   0.00000  Uiso   1.00
H32    H     0.32848   0.25403   0.22463   0.00000  Uiso   1.00
H33    H     0.05144   0.25814   0.19781   0.00000  Uiso   1.00
H34    H     0.07469   0.04415   0.30455   0.00000  Uiso   1.00
H35    H     0.10917   0.03653   0.33499   0.00000  Uiso   1.00
H36    H     0.06024   0.00267   0.33565   0.00000  Uiso   1.00
H37    H     0.11830   0.19797   0.15961   0.00000  Uiso   1.00
H38    H     0.24195   0.06455   0.16199   0.00000  Uiso   1.00
H39    H     0.30429   0.04453   0.41338   0.00000  Uiso   1.00
H40    H     0.25501   0.12758   0.34569   0.00000  Uiso   1.00
H41    H     0.20978   0.00378   0.22024   0.00000  Uiso   1.00
H42    H     0.10954   0.27961   0.47030   0.00000  Uiso   1.00
H43    H     0.10907   0.25521   0.40262   0.00000  Uiso   1.00
H44    H     0.17022   0.14896   0.40589   0.00000  Uiso   1.00
H45    H     0.16312   0.22981   0.06630   0.00000  Uiso   1.00
H46    H     0.12479   0.32702   0.09910   0.00000  Uiso   1.00
H47    H     0.03605   0.13476   0.03046   0.00000  Uiso   1.00
H48    H     0.03605   0.24878   0.24899   0.00000  Uiso   1.00
O49    O     0.16667   0.16667   0.25000   0.00000  Uiso   1.00
O50    O     0.15693   0.12393   0.16625   0.00000  Uiso   1.00
O51    O     0.12687   0.20646   0.33749   0.00000  Uiso   1.00
O52    O     0.21088   0.17493   0.15877   0.00000  Uiso   1.00
O53    O     0.17198   0.16135   0.33749   0.00000  Uiso   1.00
O54    O     0.14704   0.32707   0.01895   0.00000  Uiso   1.00
O55    O     0.07798   0.28661   0.04863   0.00000  Uiso   1.00
O56    O     0.13627   0.30022   0.08712   0.00000  Uiso   1.00
O57    O     0.31859   0.07132   0.00186   0.00000  Uiso   1.00
O58    O     0.32403   0.13969   0.47873   0.00000  Uiso   1.00
O59    O     0.00557   0.13753   0.04579   0.00000  Uiso   1.00
O60    O     0.17849   0.08101   0.27821   0.00000  Uiso   1.00
O61    O     0.02388   0.19855   0.20827   0.00000  Uiso   1.00
O62    O     0.11014   0.32651   0.28505   0.00000  Uiso   1.00
O63    O     0.09545   0.16189   0.07374   0.00000  Uiso   1.00
O64    O     0.09789   0.12493   0.12746   0.00000  Uiso   1.00
O65    O     0.11712   0.20536   0.13383   0.00000  Uiso   1.00
O66    O     0.29023   0.06192   0.08181   0.00000  Uiso   1.00
O67    O     0.29150   0.12724   0.12579   0.00000  Uiso   1.00
O68    O     0.22571   0.07092   0.14431   0.00000  Uiso   1.00
O69    O     0.23973   0.04197   0.48312   0.00000  Uiso   1.00
O70    O     0.22007   0.05580   0.42521   0.00000  Uiso   1.00
O71    O     0.14581   0.26136   0.26767   0.00000  Uiso   1.00
O72    O     0.30034   0.07357   0.42532   0.00000  Uiso   1.00
O73    O     0.25213   0.19764   0.39475   0.00000  Uiso   1.00
O74    O     0.30068   0.15168   0.40274   0.00000  Uiso   1.00
O75    O     0.23884   0.11840   0.37201   0.00000  Uiso   1.00
O76    O     0.07452   0.13251   0.23607   0.00000  Uiso   1.00
O77    O     0.26785   0.19179   0.21806   0.00000  Uiso   1.00
O78    O     0.06990   0.18960   0.27820   0.00000  Uiso   1.00
O79    O     0.25440   0.15277   0.26768   0.00000  Uiso   1.00
O80    O     0.13800   0.06903   0.23607   0.00000  Uiso   1.00
O81    O     0.20437   0.25527   0.21806   0.00000  Uiso   1.00
S82    S     0.12609   0.29098   0.04256   0.00000  Uiso   1.00
S83    S     0.30963   0.11584   0.01452   0.00000  Uiso   1.00
S84    S     0.11985   0.16049   0.10345   0.00000  Uiso   1.00
S85    S     0.26322   0.09436   0.10767   0.00000  Uiso   1.00
S86    S     0.24818   0.07174   0.45233   0.00000  Uiso   1.00
S87    S     0.25441   0.15514   0.40515   0.00000  Uiso   1.00
Zn88   Zn    0.19244   0.14090   0.28278   0.00000  Uiso   1.00
Zn89   Zn    0.13459   0.12378   0.22258   0.00000  Uiso   1.00
Zn90   Zn    0.21166   0.19664   0.21188   0.00000  Uiso   1.00
Zn91   Zn    0.12798   0.20535   0.28277   0.00000  Uiso   1.00
C92    C     0.38573   0.15967   0.25906   0.00000  Uiso   1.00
C93    C     0.55423   0.14769   0.45429   0.00000  Uiso   1.00
C94    C     0.56844   0.12220   0.47559   0.00000  Uiso   1.00
C95    C     0.61448   0.17387   0.24128   0.00000  Uiso   1.00
C96    C     0.56063   0.13126   0.01720   0.00000  Uiso   1.00
C97    C     0.52723   0.15594   0.03819   0.00000  Uiso   1.00
C98    C     0.58646   0.11816   0.03826   0.00000  Uiso   1.00
C99    C     0.57062   0.11854   0.08008   0.00000  Uiso   1.00
C100   C     0.50877   0.15294   0.07944   0.00000  Uiso   1.00
C101   C     0.66068   0.17763   0.23799   0.00000  Uiso   1.00
C102   C     0.34049   0.15765   0.26201   0.00000  Uiso   1.00
C103   C     0.45708   0.23756   0.41780   0.00000  Uiso   1.00
C104   C     0.51397   0.32248   0.23994   0.00000  Uiso   1.00
C105   C     0.48298   0.01216   0.26288   0.00000  Uiso   1.00
C106   C     0.48973   0.05616   0.25838   0.00000  Uiso   1.00
C107   C     0.51001   0.27773   0.24148   0.00000  Uiso   1.00
C108   C     0.52109   0.14580   0.14374   0.00000  Uiso   1.00
C109   C     0.47900   0.18801   0.35635   0.00000  Uiso   1.00
C110   C     0.47504   0.20106   0.39879   0.00000  Uiso   1.00
C111   C     0.53212   0.13657   0.10037   0.00000  Uiso   1.00
C112   C     0.45825   0.25196   0.45656   0.00000  Uiso   1.00
C113   C     0.35962   0.24163   0.22093   0.00000  Uiso   1.00
C114   C     0.49355   0.17901   0.41930   0.00000  Uiso   1.00
C115   C     0.42134   0.02085   0.31628   0.00000  Uiso   1.00
C116   C     0.49947   0.19529   0.45650   0.00000  Uiso   1.00
C117   C     0.47911   0.23109   0.47660   0.00000  Uiso   1.00
C118   C     0.52266   0.17498   0.47524   0.00000  Uiso   1.00
C119   C     0.51363   0.18247   0.01699   0.00000  Uiso   1.00
C120   C     0.49626   0.21959   0.03596   0.00000  Uiso   1.00
C121   C     0.48001   0.24453   0.01613   0.00000  Uiso   1.00
H122   H     0.65118   0.13983   0.28457   0.00000  Uiso   1.00
H123   H     0.66181   0.25403   0.22463   0.00000  Uiso   1.00
H124   H     0.38478   0.25814   0.19781   0.00000  Uiso   1.00
H125   H     0.40802   0.04415   0.30455   0.00000  Uiso   1.00
H126   H     0.44250   0.03653   0.33499   0.00000  Uiso   1.00
H127   H     0.39357   0.00267   0.33565   0.00000  Uiso   1.00
H128   H     0.45164   0.19797   0.15961   0.00000  Uiso   1.00
H129   H     0.57529   0.06455   0.16199   0.00000  Uiso   1.00
H130   H     0.63763   0.04453   0.41338   0.00000  Uiso   1.00
H131   H     0.58834   0.12758   0.34569   0.00000  Uiso   1.00
H132   H     0.54312   0.00378   0.22024   0.00000  Uiso   1.00
H133   H     0.44287   0.27961   0.47030   0.00000  Uiso   1.00
H134   H     0.44241   0.25521   0.40262   0.00000  Uiso   1.00
H135   H     0.50356   0.14896   0.40589   0.00000  Uiso   1.00
H136   H     0.49645   0.22981   0.06630   0.00000  Uiso   1.00
H137   H     0.45813   0.32702   0.09910   0.00000  Uiso   1.00
H138   H     0.36938   0.13476   0.03046   0.00000  Uiso   1.00
H139   H     0.36938   0.24878   0.24899   0.00000  Uiso   1.00
O140   O     0.50000   0.16667   0.25000   0.00000  Uiso   1.00
O141   O     0.49027   0.12393   0.16625   0.00000  Uiso   1.00
O142   O     0.46020   0.20646   0.33749   0.00000  Uiso   1.00
O143   O     0.54421   0.17493   0.15877   0.00000  Uiso   1.00
O144   O     0.50532   0.16135   0.33749   0.00000  Uiso   1.00
O145   O     0.48038   0.32707   0.01895   0.00000  Uiso   1.00
O146   O     0.41131   0.28661   0.04863   0.00000  Uiso   1.00
O147   O     0.46960   0.30022   0.08712   0.00000  Uiso   1.00
O148   O     0.65192   0.07132   0.00186   0.00000  Uiso   1.00
O149   O     0.65736   0.13969   0.47873   0.00000  Uiso   1.00
O150   O     0.33891   0.13753   0.04579   0.00000  Uiso   1.00
O151   O     0.51182   0.08101   0.27821   0.00000  Uiso   1.00
O152   O     0.35721   0.19855   0.20827   0.00000  Uiso   1.00
O153   O     0.44348   0.32651   0.28505   0.00000  Uiso   1.00
O154   O     0.42878   0.16189   0.07374   0.00000  Uiso   1.00
O155   O     0.43122   0.12493   0.12746   0.00000  Uiso   1.00
O156   O     0.45045   0.20536   0.13383   0.00000  Uiso   1.00
O157   O     0.62356   0.06192   0.08181   0.00000  Uiso   1.00
O158   O     0.62484   0.12724   0.12579   0.00000  Uiso   1.00
O159   O     0.55904   0.07092   0.14431   0.00000  Uiso   1.00
O160   O     0.57307   0.04197   0.48312   0.00000  Uiso   1.00
O161   O     0.55340   0.05580   0.42521   0.00000  Uiso   1.00
O162   O     0.47914   0.26136   0.26767   0.00000  Uiso   1.00
O163   O     0.63367   0.07357   0.42532   0.00000  Uiso   1.00
O164   O     0.58546   0.19764   0.39475   0.00000  Uiso   1.00
O165   O     0.63401   0.15168   0.40274   0.00000  Uiso   1.00
O166   O     0.57217   0.11840   0.37201   0.00000  Uiso   1.00
O167   O     0.40785   0.13251   0.23607   0.00000  Uiso   1.00
O168   O     0.60119   0.19179   0.21806   0.00000  Uiso   1.00
O169   O     0.40323   0.18960   0.27820   0.00000  Uiso   1.00
O170   O     0.58773   0.15277   0.26768   0.00000  Uiso   1.00
O171   O     0.47133   0.06903   0.23607   0.00000  Uiso   1.00
O172   O     0.53771   0.25527   0.21806   0.00000  Uiso   1.00
S173   S     0.45942   0.29098   0.04256   0.00000  Uiso   1.00
S174   S     0.64296   0.11584   0.01452   0.00000  Uiso   1.00
S175   S     0.45319   0.16049   0.10345   0.00000  Uiso   1.00
S176   S     0.59655   0.09436   0.10767   0.00000  Uiso   1.00
S177   S     0.58151   0.07174   0.45233   0.00000  Uiso   1.00
S178   S     0.58775   0.15514   0.40515   0.00000  Uiso   1.00
Zn179  Zn    0.52577   0.14090   0.28278   0.00000  Uiso   1.00
Zn180  Zn    0.46792   0.12378   0.22258   0.00000  Uiso   1.00
Zn181  Zn    0.54500   0.19664   0.21188   0.00000  Uiso   1.00
Zn182  Zn    0.46131   0.20535   0.28277   0.00000  Uiso   1.00
C183   C     0.71906   0.15967   0.25906   0.00000  Uiso   1.00
C184   C     0.88757   0.14769   0.45429   0.00000  Uiso   1.00
C185   C     0.90178   0.12220   0.47559   0.00000  Uiso   1.00
C186   C     0.94781   0.17387   0.24128   0.00000  Uiso   1.00
C187   C     0.89396   0.13126   0.01720   0.00000  Uiso   1.00
C188   C     0.86056   0.15594   0.03819   0.00000  Uiso   1.00
C189   C     0.91980   0.11816   0.03826   0.00000  Uiso   1.00
C190   C     0.90395   0.11854   0.08008   0.00000  Uiso   1.00
C191   C     0.84210   0.15294   0.07944   0.00000  Uiso   1.00
C192   C     0.99402   0.17763   0.23799   0.00000  Uiso   1.00
C193   C     0.67382   0.15765   0.26201   0.00000  Uiso   1.00
C194   C     0.79042   0.23756   0.41780   0.00000  Uiso   1.00
C195   C     0.84730   0.32248   0.23994   0.00000  Uiso   1.00
C196   C     0.81632   0.01216   0.26288   0.00000  Uiso   1.00
C197   C     0.82307   0.05616   0.25838   0.00000  Uiso   1.00
C198   C     0.84335   0.27773   0.24148   0.00000  Uiso   1.00
C199   C     0.85442   0.14580   0.14374   0.00000  Uiso   1.00
C200   C     0.81234   0.18801   0.35635   0.00000  Uiso   1.00
C201   C     0.80837   0.20106   0.39879   0.00000  Uiso   1.00
C202   C     0.86545   0.13657   0.10037   0.00000  Uiso   1.00
C203   C     0.79158   0.25196   0.45656   0.00000  Uiso   1.00
C204   C     0.69295   0.24163   0.22093   0.00000  Uiso   1.00
C205   C     0.82689   0.17901   0.41930   0.00000  Uiso   1.00
C206   C     0.75467   0.02085   0.31628   0.00000  Uiso   1.00
C207   C     0.83280   0.19529   0.45650   0.00000  Uiso   1.00
C208   C     0.81245   0.23109   0.47660   0.00000  Uiso   1.00
C209   C     0.85599   0.17498   0.47524   0.00000  Uiso   1.00
C210   C     0.84696   0.18247   0.01699   0.00000  Uiso   1.00
C211   C     0.82959   0.21959   0.03596   0.00000  Uiso   1.00
C212   C     0.81334   0.24453   0.01613   0.00000  Uiso   1.00
H213   H     0.98451   0.13983   0.28457   0.00000  Uiso   1.00
H214   H     0.99515   0.25403   0.22463   0.00000  Uiso   1.00
H215   H     0.71811   0.25814   0.19781   0.00000  Uiso   1.00
H216   H     0.74136   0.04415   0.30455   0.00000  Uiso   1.00
H217   H     0.77584   0.03653   0.33499   0.00000  Uiso   1.00
H218   H     0.72691   0.00267   0.33565   0.00000  Uiso   1.00
H219   H     0.78497   0.19797   0.15961   0.00000  Uiso   1.00
H220   H     0.90862   0.06455   0.16199   0.00000  Uiso   1.00
H221   H     0.97096   0.04453   0.41338   0.00000  Uiso   1.00
H222   H     0.92168   0.12758   0.34569   0.00000  Uiso   1.00
H223   H     0.87645   0.00378   0.22024   0.00000  Uiso   1.00
H224   H     0.77620   0.27961   0.47030   0.00000  Uiso   1.00
H225   H     0.77574   0.25521   0.40262   0.00000  Uiso   1.00
H226   H     0.83689   0.14896   0.40589   0.00000  Uiso   1.00
H227   H     0.82978   0.22981   0.06630   0.00000  Uiso   1.00
H228   H     0.79146   0.32702   0.09910   0.00000  Uiso   1.00
H229   H     0.70272   0.13476   0.03046   0.00000  Uiso   1.00
H230   H     0.70272   0.24878   0.24899   0.00000  Uiso   1.00
O231   O     0.83333   0.16667   0.25000   0.00000  Uiso   1.00
O232   O     0.82360   0.12393   0.16625   0.00000  Uiso   1.00
O233   O     0.79354   0.20646   0.33749   0.00000  Uiso   1.00
O234   O     0.87755   0.17493   0.15877   0.00000  Uiso   1.00
O235   O     0.83865   0.16135   0.33749   0.00000  Uiso   1.00
O236   O     0.81371   0.32707   0.01895   0.00000  Uiso   1.00
O237   O     0.74464   0.28661   0.04863   0.00000  Uiso   1.00
O238   O     0.80293   0.30022   0.08712   0.00000  Uiso   1.00
O239   O     0.98526   0.07132   0.00186   0.00000  Uiso   1.00
O240   O     0.99070   0.13969   0.47873   0.00000  Uiso   1.00
O241   O     0.67224   0.13753   0.04579   0.00000  Uiso   1.00
O242   O     0.84515   0.08101   0.27821   0.00000  Uiso   1.00
O243   O     0.69055   0.19855   0.20827   0.00000  Uiso   1.00
O244   O     0.77681   0.32651   0.28505   0.00000  Uiso   1.00
O245   O     0.76211   0.16189   0.07374   0.00000  Uiso   1.00
O246   O     0.76456   0.12493   0.12746   0.00000  Uiso   1.00
O247   O     0.78378   0.20536   0.13383   0.00000  Uiso   1.00
O248   O     0.95690   0.06192   0.08181   0.00000  Uiso   1.00
O249   O     0.95817   0.12724   0.12579   0.00000  Uiso   1.00
O250   O     0.89238   0.07092   0.14431   0.00000  Uiso   1.00
O251   O     0.90640   0.04197   0.48312   0.00000  Uiso   1.00
O252   O     0.88673   0.05580   0.42521   0.00000  Uiso   1.00
O253   O     0.81247   0.26136   0.26767   0.00000  Uiso   1.00
O254   O     0.96700   0.07357   0.42532   0.00000  Uiso   1.00
O255   O     0.91879   0.19764   0.39475   0.00000  Uiso   1.00
O256   O     0.96734   0.15168   0.40274   0.00000  Uiso   1.00
O257   O     0.90551   0.11840   0.37201   0.00000  Uiso   1.00
O258   O     0.74119   0.13251   0.23607   0.00000  Uiso   1.00
O259   O     0.93452   0.19179   0.21806   0.00000  Uiso   1.00
O260   O     0.73656   0.18960   0.27820   0.00000  Uiso   1.00
O261   O     0.92106   0.15277   0.26768   0.00000  Uiso   1.00
O262   O     0.80467   0.06903   0.23607   0.00000  Uiso   1.00
O263   O     0.87104   0.25527   0.21806   0.00000  Uiso   1.00
S264   S     0.79275   0.29098   0.04256   0.00000  Uiso   1.00
S265   S     0.97630   0.11584   0.01452   0.00000  Uiso   1.00
S266   S     0.78652   0.16049   0.10345   0.00000  Uiso   1.00
S267   S     0.92988   0.09436   0.10767   0.00000  Uiso   1.00
S268   S     0.91484   0.07174   0.45233   0.00000  Uiso   1.00
S269   S     0.92108   0.15514   0.40515   0.00000  Uiso   1.00
Zn270  Zn    0.85910   0.14090   0.28278   0.00000  Uiso   1.00
Zn271  Zn    0.80125   0.12378   0.22258   0.00000  Uiso   1.00
Zn272  Zn    0.87833   0.19664   0.21188   0.00000  Uiso   1.00
Zn273  Zn    0.79465   0.20535   0.28277   0.00000  Uiso   1.00
C274   C     0.05240   0.49300   0.25906   0.00000  Uiso   1.00
C275   C     0.22090   0.48102   0.45429   0.00000  Uiso   1.00
C276   C     0.23511   0.45553   0.47559   0.00000  Uiso   1.00
C277   C     0.28114   0.50721   0.24128   0.00000  Uiso   1.00
C278   C     0.22729   0.46459   0.01720   0.00000  Uiso   1.00
C279   C     0.19389   0.48928   0.03819   0.00000  Uiso   1.00
C280   C     0.25313   0.45149   0.03826   0.00000  Uiso   1.00
C281   C     0.23729   0.45188   0.08008   0.00000  Uiso   1.00
C282   C     0.17543   0.48628   0.07944   0.00000  Uiso   1.00
C283   C     0.32735   0.51097   0.23799   0.00000  Uiso   1.00
C284   C     0.00716   0.49099   0.26201   0.00000  Uiso   1.00
C285   C     0.12375   0.57089   0.41780   0.00000  Uiso   1.00
C286   C     0.18063   0.65582   0.23994   0.00000  Uiso   1.00
C287   C     0.14965   0.34549   0.26288   0.00000  Uiso   1.00
C288   C     0.15640   0.38949   0.25838   0.00000  Uiso   1.00
C289   C     0.17668   0.61106   0.24148   0.00000  Uiso   1.00
C290   C     0.18775   0.47913   0.14374   0.00000  Uiso   1.00
C291   C     0.14567   0.52134   0.35635   0.00000  Uiso   1.00
C292   C     0.14170   0.53440   0.39879   0.00000  Uiso   1.00
C293   C     0.19878   0.46991   0.10037   0.00000  Uiso   1.00
C294   C     0.12491   0.58529   0.45656   0.00000  Uiso   1.00
C295   C     0.02629   0.57496   0.22093   0.00000  Uiso   1.00
C296   C     0.16022   0.51234   0.41930   0.00000  Uiso   1.00
C297   C     0.08801   0.35419   0.31628   0.00000  Uiso   1.00
C298   C     0.16613   0.52862   0.45650   0.00000  Uiso   1.00
C299   C     0.14578   0.56442   0.47660   0.00000  Uiso   1.00
C300   C     0.18933   0.50831   0.47524   0.00000  Uiso   1.00
C301   C     0.18029   0.51581   0.01699   0.00000  Uiso   1.00
C302   C     0.16293   0.55292   0.03596   0.00000  Uiso   1.00
C303   C     0.14668   0.57787   0.01613   0.00000  Uiso   1.00
H304   H     0.31785   0.47316   0.28457   0.00000  Uiso   1.00
H305   H     0.32848   0.58736   0.22463   0.00000  Uiso   1.00
H306   H     0.05144   0.59147   0.19781   0.00000  Uiso   1.00
H307   H     0.07469   0.37748   0.30455   0.00000  Uiso   1.00
H308   H     0.10917   0.36986   0.33499   0.00000  Uiso   1.00
H309   H     0.06024   0.33600   0.33565   0.00000  Uiso   1.00
H310   H     0.11830   0.53131   0.15961   0.00000  Uiso   1.00
H311   H     0.24195   0.39788   0.16199   0.00000  Uiso   1.00
H312   H     0.30429   0.37787   0.41338   0.00000  Uiso   1.00
H313   H     0.25501   0.46091   0.34569   0.00000  Uiso   1.00
H314   H     0.20978   0.33712   0.22024   0.00000  Uiso   1.00
H315   H     0.10954   0.61294   0.47030   0.00000  Uiso   1.00
H316   H     0.10907   0.58854   0.40262   0.00000  Uiso   1.00
H317   H     0.17022   0.48229   0.40589   0.00000  Uiso   1.00
H318   H     0.16312   0.56314   0.06630   0.00000  Uiso   1.00
H319   H     0.12479   0.66036   0.09910   0.00000  Uiso   1.00
H320   H     0.03605   0.46810   0.03046   0.00000  Uiso   1.00
H321   H     0.03605   0.58211   0.24899   0.00000  Uiso   1.00
O322   O     0.16667   0.50000   0.25000   0.00000  Uiso   1.00
O323   O     0.15693   0.45726   0.16625   0.00000  Uiso   1.00
O324   O     0.12687   0.53979   0.33749   0.00000  Uiso   1.00
O325   O     0.21088   0.50826   0.15877   0.00000  Uiso   1.00
O326   O     0.17198   0.49468   0.33749   0.00000  Uiso   1.00
O327   O     0.14704   0.66040   0.01895   0.00000  Uiso   1.00
O328   O     0.07798   0.61994   0.04863   0.00000  Uiso   1.00
O329   O     0.13627   0.63356   0.08712   0.00000  Uiso   1.00
O330   O     0.31859   0.40465   0.00186   0.00000  Uiso   1.00
O331   O     0.32403   0.47302   0.47873   0.00000  Uiso   1.00
O332   O     0.00557   0.47086   0.04579   0.00000  Uiso   1.00
O333   O     0.17849   0.41434   0.27821   0.00000  Uiso   1.00
O334   O     0.02388   0.53188   0.20827   0.00000  Uiso   1.00
O335   O     0.11014   0.65985   0.28505   0.00000  Uiso   1.00
O336   O     0.09545   0.49522   0.07374   0.00000  Uiso   1.00
O337   O     0.09789   0.45826   0.12746   0.00000  Uiso   1.00
O338   O     0.11712   0.53869   0.13383   0.00000  Uiso   1.00
O339   O     0.29023   0.39525   0.08181   0.00000  Uiso   1.00
O340   O     0.29150   0.46058   0.12579   0.00000  Uiso   1.00
O341   O     0.22571   0.40425   0.14431   0.00000  Uiso   1.00
O342   O     0.23973   0.37530   0.48312   0.00000  Uiso   1.00
O343   O     0.22007   0.38914   0.42521   0.00000  Uiso   1.00
O344   O     0.14581   0.59469   0.26767   0.00000  Uiso   1.00
O345   O     0.30034   0.40690   0.42532   0.00000  Uiso   1.00
O346   O     0.25213   0.53097   0.39475   0.00000  Uiso   1.00
O347   O     0.30068   0.48501   0.40274   0.00000  Uiso   1.00
O348   O     0.23884   0.45174   0.37201   0.00000  Uiso   1.00
O349   O     0.07452   0.46584   0.23607   0.00000  Uiso   1.00
O350   O     0.26785   0.52512   0.21806   0.00000  Uiso   1.00
O351   O     0.06990   0.52293   0.27820   0.00000  Uiso   1.00
O352   O     0.25440   0.48610   0.26768   0.00000  Uiso   1.00
O353   O     0.13800   0.40236   0.23607   0.00000  Uiso   1.00
O354   O     0.20437   0.58860   0.21806   0.00000  Uiso   1.00
S355   S     0.12609   0.62431   0.04256   0.00000  Uiso   1.00
S356   S     0.30963   0.44917   0.01452   0.00000  Uiso   1.00
S357   S     0.11985   0.49383   0.10345   0.00000  Uiso   1.00
S358   S     0.26322   0.42770   0.10767   0.00000  Uiso   1.00
S359   S     0.24818   0.40507   0.45233   0.00000  Uiso   1.00
S360   S     0.25441   0.48847   0.40515   0.00000  Uiso   1.00
Zn361  Zn    0.19244   0.47423   0.28278   0.00000  Uiso   1.00
Zn362  Zn    0.13459   0.45711   0.22258   0.00000  Uiso   1.00
Zn363  Zn    0.21166   0.52997   0.21188   0.00000  Uiso   1.00
Zn364  Zn    0.12798   0.53868   0.28277   0.00000  Uiso   1.00
C365   C     0.38573   0.49300   0.25906   0.00000  Uiso   1.00
C366   C     0.55423   0.48102   0.45429   0.00000  Uiso   1.00
C367   C     0.56844   0.45553   0.47559   0.00000  Uiso   1.00
C368   C     0.61448   0.50721   0.24128   0.00000  Uiso   1.00
C369   C     0.56063   0.46459   0.01720   0.00000  Uiso   1.00
C370   C     0.52723   0.48928   0.03819   0.00000  Uiso   1.00
C371   C     0.58646   0.45149   0.03826   0.00000  Uiso   1.00
C372   C     0.57062   0.45188   0.08008   0.00000  Uiso   1.00
C373   C     0.50877   0.48628   0.07944   0.00000  Uiso   1.00
C374   C     0.66068   0.51097   0.23799   0.00000  Uiso   1.00
C375   C     0.34049   0.49099   0.26201   0.00000  Uiso   1.00
C376   C     0.45708   0.57089   0.41780   0.00000  Uiso   1.00
C377   C     0.51397   0.65582   0.23994   0.00000  Uiso   1.00
C378   C     0.48298   0.34549   0.26288   0.00000  Uiso   1.00
C379   C     0.48973   0.38949   0.25838   0.00000  Uiso   1.00
C380   C     0.51001   0.61106   0.24148   0.00000  Uiso   1.00
C381   C     0.52109   0.47913   0.14374   0.00000  Uiso   1.00
C382   C     0.47900   0.52134   0.35635   0.00000  Uiso   1.00
C383   C     0.47504   0.53440   0.39879   0.00000  Uiso   1.00
C384   C     0.53212   0.46991   0.10037   0.00000  Uiso   1.00
C385   C     0.45825   0.58529   0.45656   0.00000  Uiso   1.00
C386   C     0.35962   0.57496   0.22093   0.00000  Uiso   1.00
C387   C     0.49355   0.51234   0.41930   0.00000  Uiso   1.00
C388   C     0.42134   0.35419   0.31628   0.00000  Uiso   1.00
C389   C     0.49947   0.52862   0.45650   0.00000  Uiso   1.00
C390   C     0.47911   0.56442   0.47660   0.00000  Uiso   1.00
C391   C     0.52266   0.50831   0.47524   0.00000  Uiso   1.00
C392   C     0.51363   0.51581   0.01699   0.00000  Uiso   1.00
C393   C     0.49626   0.55292   0.03596   0.00000  Uiso   1.00
C394   C     0.48001   0.57787   0.01613   0.00000  Uiso   1.00
H395   H     0.65118   0.47316   0.28457   0.00000  Uiso   1.00
H396   H     0.66181   0.58736   0.22463   0.00000  Uiso   1.00
H397   H     0.38478   0.59147   0.19781   0.00000  Uiso   1.00
H398   H     0.40802   0.37748   0.30455   0.00000  Uiso   1.00
H399   H     0.44250   0.36986   0.33499   0.00000  Uiso   1.00
H400   H     0.39357   0.33600   0.33565   0.00000  Uiso   1.00
H401   H     0.45164   0.53131   0.15961   0.00000  Uiso   1.00
H402   H     0.57529   0.39788   0.16199   0.00000  Uiso   1.00
H403   H     0.63763   0.37787   0.41338   0.00000  Uiso   1.00
H404   H     0.58834   0.46091   0.34569   0.00000  Uiso   1.00
H405   H     0.54312   0.33712   0.22024   0.00000  Uiso   1.00
H406   H     0.44287   0.61294   0.47030   0.00000  Uiso   1.00
H407   H     0.44241   0.58854   0.40262   0.00000  Uiso   1.00
H408   H     0.50356   0.48229   0.40589   0.00000  Uiso   1.00
H409   H     0.49645   0.56314   0.06630   0.00000  Uiso   1.00
H410   H     0.45813   0.66036   0.09910   0.00000  Uiso   1.00
H411   H     0.36938   0.46810   0.03046   0.00000  Uiso   1.00
H412   H     0.36938   0.58211   0.24899   0.00000  Uiso   1.00
O413   O     0.50000   0.50000   0.25000   0.00000  Uiso   1.00
O414   O     0.49027   0.45726   0.16625   0.00000  Uiso   1.00
O415   O     0.46020   0.53979   0.33749   0.00000  Uiso   1.00
O416   O     0.54421   0.50826   0.15877   0.00000  Uiso   1.00
O417   O     0.50532   0.49468   0.33749   0.00000  Uiso   1.00
O418   O     0.48038   0.66040   0.01895   0.00000  Uiso   1.00
O419   O     0.41131   0.61994   0.04863   0.00000  Uiso   1.00
O420   O     0.46960   0.63356   0.08712   0.00000  Uiso   1.00
O421   O     0.65192   0.40465   0.00186   0.00000  Uiso   1.00
O422   O     0.65736   0.47302   0.47873   0.00000  Uiso   1.00
O423   O     0.33891   0.47086   0.04579   0.00000  Uiso   1.00
O424   O     0.51182   0.41434   0.27821   0.00000  Uiso   1.00
O425   O     0.35721   0.53188   0.20827   0.00000  Uiso   1.00
O426   O     0.44348   0.65985   0.28505   0.00000  Uiso   1.00
O427   O     0.42878   0.49522   0.07374   0.00000  Uiso   1.00
O428   O     0.43122   0.45826   0.12746   0.00000  Uiso   1.00
O429   O     0.45045   0.53869   0.13383   0.00000  Uiso   1.00
O430   O     0.62356   0.39525   0.08181   0.00000  Uiso   1.00
O431   O     0.62484   0.46058   0.12579   0.00000  Uiso   1.00
O432   O     0.55904   0.40425   0.14431   0.00000  Uiso   1.00
O433   O     0.57307   0.37530   0.48312   0.00000  Uiso   1.00
O434   O     0.55340   0.38914   0.42521   0.00000  Uiso   1.00
O435   O     0.47914   0.59469   0.26767   0.00000  Uiso   1.00
O436   O     0.63367   0.40690   0.42532   0.00000  Uiso   1.00
O437   O     0.58546   0.53097   0.39475   0.00000  Uiso   1.00
O438   O     0.63401   0.48501   0.40274   0.00000  Uiso   1.00
O439   O     0.57217   0.45174   0.37201   0.00000  Uiso   1.00
O440   O     0.40785   0.46584   0.23607   0.00000  Uiso   1.00
O441   O     0.60119   0.52512   0.21806   0.00000  Uiso   1.00
O442   O     0.40323   0.52293   0.27820   0.00000  Uiso   1.00
O443   O     0.58773   0.48610   0.26768   0.00000  Uiso   1.00
O444   O     0.47133   0.40236   0.23607   0.00000  Uiso   1.00
O445   O     0.53771   0.58860   0.21806   0.00000  Uiso   1.00
S446   S     0.45942   0.62431   0.04256   0.00000  Uiso   1.00
S447   S     0.64296   0.44917   0.01452   0.00000  Uiso   1.00
S448   S     0.45319   0.49383   0.10345   0.00000  Uiso   1.00
S449   S     0.59655   0.42770   0.10767   0.00000  Uiso   1.00
S450   S     0.58151   0.40507   0.45233   0.00000  Uiso   1.00
S451   S     0.58775   0.48847   0.40515   0.00000  Uiso   1.00
Zn452  Zn    0.52577   0.47423   0.28278   0.00000  Uiso   1.00
Zn453  Zn    0.46792   0.45711   0.22258   0.00000  Uiso   1.00
Zn454  Zn    0.54500   0.52997   0.21188   0.00000  Uiso   1.00
Zn455  Zn    0.46131   0.53868   0.28277   0.00000  Uiso   1.00
C456   C     0.71906   0.49300   0.25906   0.00000  Uiso   1.00
C457   C     0.88757   0.48102   0.45429   0.00000  Uiso   1.00
C458   C     0.90178   0.45553   0.47559   0.00000  Uiso   1.00
C459   C     0.94781   0.50721   0.24128   0.00000  Uiso   1.00
C460   C     0.89396   0.46459   0.01720   0.00000  Uiso   1.00
C461   C     0.86056   0.48928   0.03819   0.00000  Uiso   1.00
C462   C     0.91980   0.45149   0.03826   0.00000  Uiso   1.00
C463   C     0.90395   0.45188   0.08008   0.00000  Uiso   1.00
C464   C     0.84210   0.48628   0.07944   0.00000  Uiso   1.00
C465   C     0.99402   0.51097   0.23799   0.00000  Uiso   1.00
C466   C     0.67382   0.49099   0.26201   0.00000  Uiso   1.00
C467   C     0.79042   0.57089   0.41780   0.00000  Uiso   1.00
C468   C     0.84730   0.65582   0.23994   0.00000  Uiso   1.00
C469   C     0.81632   0.34549   0.26288   0.00000  Uiso   1.00
C470   C     0.82307   0.38949   0.25838   0.00000  Uiso   1.00
C471   C     0.84335   0.61106   0.24148   0.00000  Uiso   1.00
C472   C     0.85442   0.47913   0.14374   0.00000  Uiso   1.00
C473   C     0.81234   0.52134   0.35635   0.00000  Uiso   1.00
C474   C     0.80837   0.53440   0.39879   0.00000  Uiso   1.00
C475   C     0.86545   0.46991   0.10037   0.00000  Uiso   1.00
C476   C     0.79158   0.58529   0.45656   0.00000  Uiso   1.00
C477   C     0.69295   0.57496   0.22093   0.00000  Uiso   1.00
C478   C     0.82689   0.51234   0.41930   0.00000  Uiso   1.00
C479   C     0.75467   0.35419   0.31628   0.00000  Uiso   1.00
C480   C     0.83280   0.52862   0.45650   0.00000  Uiso   1.00
C481   C     0.81245   0.56442   0.47660   0.00000  Uiso   1.00
C482   C     0.85599   0.50831   0.47524   0.00000  Uiso   1.00
C483   C     0.84696   0.51581   0.01699   0.00000  Uiso   1.00
C484   C     0.82959   0.55292   0.03596   0.00000  Uiso   1.00
C485   C     0.81334   0.57787   0.01613   0.00000  Uiso   1.00
H486   H     0.98451   0.47316   0.28457   0.00000  Uiso   1.00
H487   H     0.99515   0.58736   0.22463   0.00000  Uiso   1.00
H488   H     0.71811   0.59147   0.19781   0.00000  Uiso   1.00
H489   H     0.74136   0.37748   0.30455   0.00000  Uiso   1.00
H490   H     0.77584   0.36986   0.33499   0.00000  Uiso   1.00
H491   H     0.72691   0.33600   0.33565   0.00000  Uiso   1.00
H492   H     0.78497   0.53131   0.15961   0.00000  Uiso   1.00
H493   H     0.90862   0.39788   0.16199   0.00000  Uiso   1.00
H494   H     0.97096   0.37787   0.41338   0.00000  Uiso   1.00
H495   H     0.92168   0.46091   0.34569   0.00000  Uiso   1.00
H496   H     0.87645   0.33712   0.22024   0.00000  Uiso   1.00
H497   H     0.77620   0.61294   0.47030   0.00000  Uiso   1.00
H498   H     0.77574   0.58854   0.40262   0.00000  Uiso   1.00
H499   H     0.83689   0.48229   0.40589   0.00000  Uiso   1.00
H500   H     0.82978   0.56314   0.06630   0.00000  Uiso   1.00
H501   H     0.79146   0.66036   0.09910   0.00000  Uiso   1.00
H502   H     0.70272   0.46810   0.03046   0.00000  Uiso   1.00
H503   H     0.70272   0.58211   0.24899   0.00000  Uiso   1.00
O504   O     0.83333   0.50000   0.25000   0.00000  Uiso   1.00
O505   O     0.82360   0.45726   0.16625   0.00000  Uiso   1.00
O506   O     0.79354   0.53979   0.33749   0.00000  Uiso   1.00
O507   O     0.87755   0.50826   0.15877   0.00000  Uiso   1.00
O508   O     0.83865   0.49468   0.33749   0.00000  Uiso   1.00
O509   O     0.81371   0.66040   0.01895   0.00000  Uiso   1.00
O510   O     0.74464   0.61994   0.04863   0.00000  Uiso   1.00
O511   O     0.80293   0.63356   0.08712   0.00000  Uiso   1.00
O512   O     0.98526   0.40465   0.00186   0.00000  Uiso   1.00
O513   O     0.99070   0.47302   0.47873   0.00000  Uiso   1.00
O514   O     0.67224   0.47086   0.04579   0.00000  Uiso   1.00
O515   O     0.84515   0.41434   0.27821   0.00000  Uiso   1.00
O516   O     0.69055   0.53188   0.20827   0.00000  Uiso   1.00
O517   O     0.77681   0.65985   0.28505   0.00000  Uiso   1.00
O518   O     0.76211   0.49522   0.07374   0.00000  Uiso   1.00
O519   O     0.76456   0.45826   0.12746   0.00000  Uiso   1.00
O520   O     0.78378   0.53869   0.13383   0.00000  Uiso   1.00
O521   O     0.95690   0.39525   0.08181   0.00000  Uiso   1.00
O522   O     0.95817   0.46058   0.12579   0.00000  Uiso   1.00
O523   O     0.89238   0.40425   0.14431   0.00000  Uiso   1.00
O524   O     0.90640   0.37530   0.48312   0.00000  Uiso   1.00
O525   O     0.88673   0.38914   0.42521   0.00000  Uiso   1.00
O526   O     0.81247   0.59469   0.26767   0.00000  Uiso   1.00
O527   O     0.96700   0.40690   0.42532   0.00000  Uiso   1.00
O528   O     0.91879   0.53097   0.39475   0.00000  Uiso   1.00
O529   O     0.96734   0.48501   0.40274   0.00000  Uiso   1.00
O530   O     0.90551   0.45174   0.37201   0.00000  Uiso   1.00
O531   O     0.74119   0.46584   0.23607   0.00000  Uiso   1.00
O532   O     0.93452   0.52512   0.21806   0.00000  Uiso   1.00
O533   O     0.73656   0.52293   0.27820   0.00000  Uiso   1.00
O534   O     0.92106   0.48610   0.26768   0.00000  Uiso   1.00
O535   O     0.80467   0.40236   0.23607   0.00000  Uiso   1.00
O536   O     0.87104   0.58860   0.21806   0.00000  Uiso   1.00
S537   S     0.79275   0.62431   0.04256   0.00000  Uiso   1.00
S538   S     0.97630   0.44917   0.01452   0.00000  Uiso   1.00
S539   S     0.78652   0.49383   0.10345   0.00000  Uiso   1.00
S540   S     0.92988   0.42770   0.10767   0.00000  Uiso   1.00
S541   S     0.91484   0.40507   0.45233   0.00000  Uiso   1.00
S542   S     0.92108   0.48847   0.40515   0.00000  Uiso   1.00
Zn543  Zn    0.85910   0.47423   0.28278   0.00000  Uiso   1.00
Zn544  Zn    0.80125   0.45711   0.22258   0.00000  Uiso   1.00
Zn545  Zn    0.87833   0.52997   0.21188   0.00000  Uiso   1.00
Zn546  Zn    0.79465   0.53868   0.28277   0.00000  Uiso   1.00
C547   C     0.05240   0.82634   0.25906   0.00000  Uiso   1.00
C548   C     0.22090   0.81435   0.45429   0.00000  Uiso   1.00
C549   C     0.23511   0.78886   0.47559   0.00000  Uiso   1.00
C550   C     0.28114   0.84054   0.24128   0.00000  Uiso   1.00
C551   C     0.22729   0.79793   0.01720   0.00000  Uiso   1.00
C552   C     0.19389   0.82261   0.03819   0.00000  Uiso   1.00
C553   C     0.25313   0.78482   0.03826   0.00000  Uiso   1.00
C554   C     0.23729   0.78521   0.08008   0.00000  Uiso   1.00
C555   C     0.17543   0.81961   0.07944   0.00000  Uiso   1.00
C556   C     0.32735   0.84430   0.23799   0.00000  Uiso   1.00
C557   C     0.00716   0.82432   0.26201   0.00000  Uiso   1.00
C558   C     0.12375   0.90423   0.41780   0.00000  Uiso   1.00
C559   C     0.18063   0.98915   0.23994   0.00000  Uiso   1.00
C560   C     0.14965   0.67883   0.26288   0.00000  Uiso   1.00
C561   C     0.15640   0.72282   0.25838   0.00000  Uiso   1.00
C562   C     0.17668   0.94440   0.24148   0.00000  Uiso   1.00
C563   C     0.18775   0.81247   0.14374   0.00000  Uiso   1.00
C564   C     0.14567   0.85468   0.35635   0.00000  Uiso   1.00
C565   C     0.14170   0.86773   0.39879   0.00000  Uiso   1.00
C566   C     0.19878   0.80324   0.10037   0.00000  Uiso   1.00
C567   C     0.12491   0.91863   0.45656   0.00000  Uiso   1.00
C568   C     0.02629   0.90830   0.22093   0.00000  Uiso   1.00
C569   C     0.16022   0.84567   0.41930   0.00000  Uiso   1.00
C570   C     0.08801   0.68752   0.31628   0.00000  Uiso   1.00
C571   C     0.16613   0.86196   0.45650   0.00000  Uiso   1.00
C572   C     0.14578   0.89776   0.47660   0.00000  Uiso   1.00
C573   C     0.18933   0.84164   0.47524   0.00000  Uiso   1.00
C574   C     0.18029   0.84914   0.01699   0.00000  Uiso   1.00
C575   C     0.16293   0.88625   0.03596   0.00000  Uiso   1.00
C576   C     0.14668   0.91120   0.01613   0.00000  Uiso   1.00
H577   H     0.31785   0.80650   0.28457   0.00000  Uiso   1.00
H578   H     0.32848   0.92069   0.22463   0.00000  Uiso   1.00
H579   H     0.05144   0.92481   0.19781   0.00000  Uiso   1.00
H580   H     0.07469   0.71082   0.30455   0.00000  Uiso   1.00
H581   H     0.10917   0.70319   0.33499   0.00000  Uiso   1.00
H582   H     0.06024   0.66934   0.33565   0.00000  Uiso   1.00
H583   H     0.11830   0.86464   0.15961   0.00000  Uiso   1.00
H584   H     0.24195   0.73121   0.16199   0.00000  Uiso   1.00
H585   H     0.30429   0.71120   0.41338   0.00000  Uiso   1.00
H586   H     0.25501   0.79424   0.34569   0.00000  Uiso   1.00
H587   H     0.20978   0.67045   0.22024   0.00000  Uiso   1.00
H588   H     0.10954   0.94628   0.47030   0.00000  Uiso   1.00
H589   H     0.10907   0.92187   0.40262   0.00000  Uiso   1.00
H590   H     0.17022   0.81562   0.40589   0.00000  Uiso   1.00
H591   H     0.16312   0.89648   0.06630   0.00000  Uiso   1.00
H592   H     0.12479   0.99369   0.09910   0.00000  Uiso   1.00
H593   H     0.03605   0.80143   0.03046   0.00000  Uiso   1.00
H594   H     0.03605   0.91544   0.24899   0.00000  Uiso   1.00
O595   O     0.16667   0.83333   0.25000   0.00000  Uiso   1.00
O596   O     0.15693   0.79060   0.16625   0.00000  Uiso   1.00
O597   O     0.12687   0.87313   0.33749   0.00000  Uiso   1.00
O598   O     0.21088   0.84159   0.15877   0.00000  Uiso   1.00
O599   O     0.17198   0.82802   0.33749   0.00000  Uiso   1.00
O600   O     0.14704   0.99373   0.01895   0.00000  Uiso   1.00
O601   O     0.07798   0.95327   0.04863   0.00000  Uiso   1.00
O602   O     0.13627   0.96689   0.08712   0.00000  Uiso   1.00
O603   O     0.31859   0.73798   0.00186   0.00000  Uiso   1.00
O604   O     0.32403   0.80636   0.47873   0.00000  Uiso   1.00
O605   O     0.00557   0.80419   0.04579   0.00000  Uiso   1.00
O606   O     0.17849   0.74768   0.27821   0.00000  Uiso   1.00
O607   O     0.02388   0.86521   0.20827   0.00000  Uiso   1.00
O608   O     0.11014   0.99318   0.28505   0.00000  Uiso   1.00
O609   O     0.09545   0.82855   0.07374   0.00000  Uiso   1.00
O610   O     0.09789   0.79160   0.12746   0.00000  Uiso   1.00
O611   O     0.11712   0.87202   0.13383   0.00000  Uiso   1.00
O612   O     0.29023   0.72859   0.08181   0.00000  Uiso   1.00
O613   O     0.29150   0.79391   0.12579   0.00000  Uiso   1.00
O614   O     0.22571   0.73758   0.14431   0.00000  Uiso   1.00
O615   O     0.23973   0.70864   0.48312   0.00000  Uiso   1.00
O616   O     0.22007   0.72247   0.42521   0.00000  Uiso   1.00
O617   O     0.14581   0.92803   0.26767   0.00000  Uiso   1.00
O618   O     0.30034   0.74023   0.42532   0.00000  Uiso   1.00
O619   O     0.25213   0.86431   0.39475   0.00000  Uiso   1.00
O620   O     0.30068   0.81835   0.40274   0.00000  Uiso   1.00
O621   O     0.23884   0.78507   0.37201   0.00000  Uiso   1.00
O622   O     0.07452   0.79917   0.23607   0.00000  Uiso   1.00
O623   O     0.26785   0.85845   0.21806   0.00000  Uiso   1.00
O624   O     0.06990   0.85627   0.27820   0.00000  Uiso   1.00
O625   O     0.25440   0.81944   0.26768   0.00000  Uiso   1.00
O626   O     0.13800   0.73570   0.23607   0.00000  Uiso   1.00
O627   O     0.20437   0.92193   0.21806   0.00000  Uiso   1.00
S628   S     0.12609   0.95765   0.04256   0.00000  Uiso   1.00
S629   S     0.30963   0.78251   0.01452   0.00000  Uiso   1.00
S630   S     0.11985   0.82716   0.10345   0.00000  Uiso   1.00
S631   S     0.26322   0.76103   0.10767   0.00000  Uiso   1.00
S632   S     0.24818   0.73841   0.45233   0.00000  Uiso   1.00
S633   S     0.25441   0.82180   0.40515   0.00000  Uiso   1.00
Zn634  Zn    0.19244   0.80756   0.28278   0.00000  Uiso   1.00
Zn635  Zn    0.13459   0.79044   0.22258   0.00000  Uiso   1.00
Zn636  Zn    0.21166   0.86331   0.21188   0.00000  Uiso   1.00
Zn637  Zn    0.12798   0.87202   0.28277   0.00000  Uiso   1.00
C638   C     0.38573   0.82634   0.25906   0.00000  Uiso   1.00
C639   C     0.55423   0.81435   0.45429   0.00000  Uiso   1.00
C640   C     0.56844   0.78886   0.47559   0.00000  Uiso   1.00
C641   C     0.61448   0.84054   0.24128   0.00000  Uiso   1.00
C642   C     0.56063   0.79793   0.01720   0.00000  Uiso   1.00
C643   C     0.52723   0.82261   0.03819   0.00000  Uiso   1.00
C644   C     0.58646   0.78482   0.03826   0.00000  Uiso   1.00
C645   C     0.57062   0.78521   0.08008   0.00000  Uiso   1.00
C646   C     0.50877   0.81961   0.07944   0.00000  Uiso   1.00
C647   C     0.66068   0.84430   0.23799   0.00000  Uiso   1.00
C648   C     0.34049   0.82432   0.26201   0.00000  Uiso   1.00
C649   C     0.45708   0.90423   0.41780   0.00000  Uiso   1.00
C650   C     0.51397   0.98915   0.23994   0.00000  Uiso   1.00
C651   C     0.48298   0.67883   0.26288   0.00000  Uiso   1.00
C652   C     0.48973   0.72282   0.25838   0.00000  Uiso   1.00
C653   C     0.51001   0.94440   0.24148   0.00000  Uiso   1.00
C654   C     0.52109   0.81247   0.14374   0.00000  Uiso   1.00
C655   C     0.47900   0.85468   0.35635   0.00000  Uiso   1.00
C656   C     0.47504   0.86773   0.39879   0.00000  Uiso   1.00
C657   C     0.53212   0.80324   0.10037   0.00000  Uiso   1.00
C658   C     0.45825   0.91863   0.45656   0.00000  Uiso   1.00
C659   C     0.35962   0.90830   0.22093   0.00000  Uiso   1.00
C660   C     0.49355   0.84567   0.41930   0.00000  Uiso   1.00
C661   C     0.42134   0.68752   0.31628   0.00000  Uiso   1.00
C662   C     0.49947   0.86196   0.45650   0.00000  Uiso   1.00
C663   C     0.47911   0.89776   0.47660   0.00000  Uiso   1.00
C664   C     0.52266   0.84164   0.47524   0.00000  Uiso   1.00
C665   C     0.51363   0.84914   0.01699   0.00000  Uiso   1.00
C666   C     0.49626   0.88625   0.03596   0.00000  Uiso   1.00
C667   C     0.48001   0.91120   0.01613   0.00000  Uiso   1.00
H668   H     0.65118   0.80650   0.28457   0.00000  Uiso   1.00
H669   H     0.66181   0.92069   0.22463   0.00000  Uiso   1.00
H670   H     0.38478   0.92481   0.19781   0.00000  Uiso   1.00
H671   H     0.40802   0.71082   0.30455   0.00000  Uiso   1.00
H672   H     0.44250   0.70319   0.33499   0.00000  Uiso   1.00
H673   H     0.39357   0.66934   0.33565   0.00000  Uiso   1.00
H674   H     0.45164   0.86464   0.15961   0.00000  Uiso   1.00
H675   H     0.57529   0.73121   0.16199   0.00000  Uiso   1.00
H676   H     0.63763   0.71120   0.41338   0.00000  Uiso   1.00
H677   H     0.58834   0.79424   0.34569   0.00000  Uiso   1.00
H678   H     0.54312   0.67045   0.22024   0.00000  Uiso   1.00
H679   H     0.44287   0.94628   0.47030   0.00000  Uiso   1.00
H680   H     0.44241   0.92187   0.40262   0.00000  Uiso   1.00
H681   H     0.50356   0.81562   0.40589   0.00000  Uiso   1.00
H682   H     0.49645   0.89648   0.06630   0.00000  Uiso   1.00
H683   H     0.45813   0.99369   0.09910   0.00000  Uiso   1.00
H684   H     0.36938   0.80143   0.03046   0.00000  Uiso   1.00
H685   H     0.36938   0.91544   0.24899   0.00000  Uiso   1.00
O686   O     0.50000   0.83333   0.25000   0.00000  Uiso   1.00
O687   O     0.49027   0.79060   0.16625   0.00000  Uiso   1.00
O688   O     0.46020   0.87313   0.33749   0.00000  Uiso   1.00
O689   O     0.54421   0.84159   0.15877   0.00000  Uiso   1.00
O690   O     0.50532   0.82802   0.33749   0.00000  Uiso   1.00
O691   O     0.48038   0.99373   0.01895   0.00000  Uiso   1.00
O692   O     0.41131   0.95327   0.04863   0.00000  Uiso   1.00
O693   O     0.46960   0.96689   0.08712   0.00000  Uiso   1.00
O694   O     0.65192   0.73798   0.00186   0.00000  Uiso   1.00
O695   O     0.65736   0.80636   0.47873   0.00000  Uiso   1.00
O696   O     0.33891   0.80419   0.04579   0.00000  Uiso   1.00
O697   O     0.51182   0.74768   0.27821   0.00000  Uiso   1.00
O698   O     0.35721   0.86521   0.20827   0.00000  Uiso   1.00
O699   O     0.44348   0.99318   0.28505   0.00000  Uiso   1.00
O700   O     0.42878   0.82855   0.07374   0.00000  Uiso   1.00
O701   O     0.43122   0.79160   0.12746   0.00000  Uiso   1.00
O702   O     0.45045   0.87202   0.13383   0.00000  Uiso   1.00
O703   O     0.62356   0.72859   0.08181   0.00000  Uiso   1.00
O704   O     0.62484   0.79391   0.12579   0.00000  Uiso   1.00
O705   O     0.55904   0.73758   0.14431   0.00000  Uiso   1.00
O706   O     0.57307   0.70864   0.48312   0.00000  Uiso   1.00
O707   O     0.55340   0.72247   0.42521   0.00000  Uiso   1.00
O708   O     0.47914   0.92803   0.26767   0.00000  Uiso   1.00
O709   O     0.63367   0.74023   0.42532   0.00000  Uiso   1.00
O710   O     0.58546   0.86431   0.39475   0.00000  Uiso   1.00
O711   O     0.63401   0.81835   0.40274   0.00000  Uiso   1.00
O712   O     0.57217   0.78507   0.37201   0.00000  Uiso   1.00
O713   O     0.40785   0.79917   0.23607   0.00000  Uiso   1.00
O714   O     0.60119   0.85845   0.21806   0.00000  Uiso   1.00
O715   O     0.40323   0.85627   0.27820   0.00000  Uiso   1.00
O716   O     0.58773   0.81944   0.26768   0.00000  Uiso   1.00
O717   O     0.47133   0.73570   0.23607   0.00000  Uiso   1.00
O718   O     0.53771   0.92193   0.21806   0.00000  Uiso   1.00
S719   S     0.45942   0.95765   0.04256   0.00000  Uiso   1.00
S720   S     0.64296   0.78251   0.01452   0.00000  Uiso   1.00
S721   S     0.45319   0.82716   0.10345   0.00000  Uiso   1.00
S722   S     0.59655   0.76103   0.10767   0.00000  Uiso   1.00
S723   S     0.58151   0.73841   0.45233   0.00000  Uiso   1.00
S724   S     0.58775   0.82180   0.40515   0.00000  Uiso   1.00
Zn725  Zn    0.52577   0.80756   0.28278   0.00000  Uiso   1.00
Zn726  Zn    0.46792   0.79044   0.22258   0.00000  Uiso   1.00
Zn727  Zn    0.54500   0.86331   0.21188   0.00000  Uiso   1.00
Zn728  Zn    0.46131   0.87202   0.28277   0.00000  Uiso   1.00
C729   C     0.71906   0.82634   0.25906   0.00000  Uiso   1.00
C730   C     0.88757   0.81435   0.45429   0.00000  Uiso   1.00
C731   C     0.90178   0.78886   0.47559   0.00000  Uiso   1.00
C732   C     0.94781   0.84054   0.24128   0.00000  Uiso   1.00
C733   C     0.89396   0.79793   0.01720   0.00000  Uiso   1.00
C734   C     0.86056   0.82261   0.03819   0.00000  Uiso   1.00
C735   C     0.91980   0.78482   0.03826   0.00000  Uiso   1.00
C736   C     0.90395   0.78521   0.08008   0.00000  Uiso   1.00
C737   C     0.84210   0.81961   0.07944   0.00000  Uiso   1.00
C738   C     0.99402   0.84430   0.23799   0.00000  Uiso   1.00
C739   C     0.67382   0.82432   0.26201   0.00000  Uiso   1.00
C740   C     0.79042   0.90423   0.41780   0.00000  Uiso   1.00
C741   C     0.84730   0.98915   0.23994   0.00000  Uiso   1.00
C742   C     0.81632   0.67883   0.26288   0.00000  Uiso   1.00
C743   C     0.82307   0.72282   0.25838   0.00000  Uiso   1.00
C744   C     0.84335   0.94440   0.24148   0.00000  Uiso   1.00
C745   C     0.85442   0.81247   0.14374   0.00000  Uiso   1.00
C746   C     0.81234   0.85468   0.35635   0.00000  Uiso   1.00
C747   C     0.80837   0.86773   0.39879   0.00000  Uiso   1.00
C748   C     0.86545   0.80324   0.10037   0.00000  Uiso   1.00
C749   C     0.79158   0.91863   0.45656   0.00000  Uiso   1.00
C750   C     0.69295   0.90830   0.22093   0.00000  Uiso   1.00
C751   C     0.82689   0.84567   0.41930   0.00000  Uiso   1.00
C752   C     0.75467   0.68752   0.31628   0.00000  Uiso   1.00
C753   C     0.83280   0.86196   0.45650   0.00000  Uiso   1.00
C754   C     0.81245   0.89776   0.47660   0.00000  Uiso   1.00
C755   C     0.85599   0.84164   0.47524   0.00000  Uiso   1.00
C756   C     0.84696   0.84914   0.01699   0.00000  Uiso   1.00
C757   C     0.82959   0.88625   0.03596   0.00000  Uiso   1.00
C758   C     0.81334   0.91120   0.01613   0.00000  Uiso   1.00
H759   H     0.98451   0.80650   0.28457   0.00000  Uiso   1.00
H760   H     0.99515   0.92069   0.22463   0.00000  Uiso   1.00
H761   H     0.71811   0.92481   0.19781   0.00000  Uiso   1.00
H762   H     0.74136   0.71082   0.30455   0.00000  Uiso   1.00
H763   H     0.77584   0.70319   0.33499   0.00000  Uiso   1.00
H764   H     0.72691   0.66934   0.33565   0.00000  Uiso   1.00
H765   H     0.78497   0.86464   0.15961   0.00000  Uiso   1.00
H766   H     0.90862   0.73121   0.16199   0.00000  Uiso   1.00
H767   H     0.97096   0.71120   0.41338   0.00000  Uiso   1.00
H768   H     0.92168   0.79424   0.34569   0.00000  Uiso   1.00
H769   H     0.87645   0.67045   0.22024   0.00000  Uiso   1.00
H770   H     0.77620   0.94628   0.47030   0.00000  Uiso   1.00
H771   H     0.77574   0.92187   0.40262   0.00000  Uiso   1.00
H772   H     0.83689   0.81562   0.40589   0.00000  Uiso   1.00
H773   H     0.82978   0.89648   0.06630   0.00000  Uiso   1.00
H774   H     0.79146   0.99369   0.09910   0.00000  Uiso   1.00
H775   H     0.70272   0.80143   0.03046   0.00000  Uiso   1.00
H776   H     0.70272   0.91544   0.24899   0.00000  Uiso   1.00
O777   O     0.83333   0.83333   0.25000   0.00000  Uiso   1.00
O778   O     0.82360   0.79060   0.16625   0.00000  Uiso   1.00
O779   O     0.79354   0.87313   0.33749   0.00000  Uiso   1.00
O780   O     0.87755   0.84159   0.15877   0.00000  Uiso   1.00
O781   O     0.83865   0.82802   0.33749   0.00000  Uiso   1.00
O782   O     0.81371   0.99373   0.01895   0.00000  Uiso   1.00
O783   O     0.74464   0.95327   0.04863   0.00000  Uiso   1.00
O784   O     0.80293   0.96689   0.08712   0.00000  Uiso   1.00
O785   O     0.98526   0.73798   0.00186   0.00000  Uiso   1.00
O786   O     0.99070   0.80636   0.47873   0.00000  Uiso   1.00
O787   O     0.67224   0.80419   0.04579   0.00000  Uiso   1.00
O788   O     0.84515   0.74768   0.27821   0.00000  Uiso   1.00
O789   O     0.69055   0.86521   0.20827   0.00000  Uiso   1.00
O790   O     0.77681   0.99318   0.28505   0.00000  Uiso   1.00
O791   O     0.76211   0.82855   0.07374   0.00000  Uiso   1.00
O792   O     0.76456   0.79160   0.12746   0.00000  Uiso   1.00
O793   O     0.78378   0.87202   0.13383   0.00000  Uiso   1.00
O794   O     0.95690   0.72859   0.08181   0.00000  Uiso   1.00
O795   O     0.95817   0.79391   0.12579   0.00000  Uiso   1.00
O796   O     0.89238   0.73758   0.14431   0.00000  Uiso   1.00
O797   O     0.90640   0.70864   0.48312   0.00000  Uiso   1.00
O798   O     0.88673   0.72247   0.42521   0.00000  Uiso   1.00
O799   O     0.81247   0.92803   0.26767   0.00000  Uiso   1.00
O800   O     0.96700   0.74023   0.42532   0.00000  Uiso   1.00
O801   O     0.91879   0.86431   0.39475   0.00000  Uiso   1.00
O802   O     0.96734   0.81835   0.40274   0.00000  Uiso   1.00
O803   O     0.90551   0.78507   0.37201   0.00000  Uiso   1.00
O804   O     0.74119   0.79917   0.23607   0.00000  Uiso   1.00
O805   O     0.93452   0.85845   0.21806   0.00000  Uiso   1.00
O806   O     0.73656   0.85627   0.27820   0.00000  Uiso   1.00
O807   O     0.92106   0.81944   0.26768   0.00000  Uiso   1.00
O808   O     0.80467   0.73570   0.23607   0.00000  Uiso   1.00
O809   O     0.87104   0.92193   0.21806   0.00000  Uiso   1.00
S810   S     0.79275   0.95765   0.04256   0.00000  Uiso   1.00
S811   S     0.97630   0.78251   0.01452   0.00000  Uiso   1.00
S812   S     0.78652   0.82716   0.10345   0.00000  Uiso   1.00
S813   S     0.92988   0.76103   0.10767   0.00000  Uiso   1.00
S814   S     0.91484   0.73841   0.45233   0.00000  Uiso   1.00
S815   S     0.92108   0.82180   0.40515   0.00000  Uiso   1.00
Zn816  Zn    0.85910   0.80756   0.28278   0.00000  Uiso   1.00
Zn817  Zn    0.80125   0.79044   0.22258   0.00000  Uiso   1.00
Zn818  Zn    0.87833   0.86331   0.21188   0.00000  Uiso   1.00
Zn819  Zn    0.79465   0.87202   0.28277   0.00000  Uiso   1.00
C820   C     0.05240   0.15967   0.75906   0.00000  Uiso   1.00
C821   C     0.22090   0.14769   0.95429   0.00000  Uiso   1.00
C822   C     0.23511   0.12220   0.97559   0.00000  Uiso   1.00
C823   C     0.28114   0.17387   0.74128   0.00000  Uiso   1.00
C824   C     0.22729   0.13126   0.51720   0.00000  Uiso   1.00
C825   C     0.19389   0.15594   0.53819   0.00000  Uiso   1.00
C826   C     0.25313   0.11816   0.53826   0.00000  Uiso   1.00
C827   C     0.23729   0.11854   0.58008   0.00000  Uiso   1.00
C828   C     0.17543   0.15294   0.57944   0.00000  Uiso   1.00
C829   C     0.32735   0.17763   0.73799   0.00000  Uiso   1.00
C830   C     0.00716   0.15765   0.76201   0.00000  Uiso   1.00
C831   C     0.12375   0.23756   0.91780   0.00000  Uiso   1.00
C832   C     0.18063   0.32248   0.73994   0.00000  Uiso   1.00
C833   C     0.14965   0.01216   0.76288   0.00000  Uiso   1.00
C834   C     0.15640   0.05616   0.75838   0.00000  Uiso   1.00
C835   C     0.17668   0.27773   0.74148   0.00000  Uiso   1.00
C836   C     0.18775   0.14580   0.64374   0.00000  Uiso   1.00
C837   C     0.14567   0.18801   0.85635   0.00000  Uiso   1.00
C838   C     0.14170   0.20106   0.89879   0.00000  Uiso   1.00
C839   C     0.19878   0.13657   0.60037   0.00000  Uiso   1.00
C840   C     0.12491   0.25196   0.95656   0.00000  Uiso   1.00
C841   C     0.02629   0.24163   0.72093   0.00000  Uiso   1.00
C842   C     0.16022   0.17901   0.91930   0.00000  Uiso   1.00
C843   C     0.08801   0.02085   0.81628   0.00000  Uiso   1.00
C844   C     0.16613   0.19529   0.95650   0.00000  Uiso   1.00
C845   C     0.14578   0.23109   0.97660   0.00000  Uiso   1.00
C846   C     0.18933   0.17498   0.97524   0.00000  Uiso   1.00
C847   C     0.18029   0.18247   0.51699   0.00000  Uiso   1.00
C848   C     0.16293   0.21959   0.53596   0.00000  Uiso   1.00
C849   C     0.14668   0.24453   0.51613   0.00000  Uiso   1.00
H850   H     0.31785   0.13983   0.78457   0.00000  Uiso   1.00
H851   H     0.32848   0.25403   0.72463   0.00000  Uiso   1.00
H852   H     0.05144   0.25814   0.69781   0.00000  Uiso   1.00
H853   H     0.07469   0.04415   0.80455   0.00000  Uiso   1.00
H854   H     0.10917   0.03653   0.83499   0.00000  Uiso   1.00
H855   H     0.06024   0.00267   0.83565   0.00000  Uiso   1.00
H856   H     0.11830   0.19797   0.65961   0.00000  Uiso   1.00
H857   H     0.24195   0.06455   0.66199   0.00000  Uiso   1.00
H858   H     0.30429   0.04453   0.91338   0.00000  Uiso   1.00
H859   H     0.25501   0.12758   0.84569   0.00000  Uiso   1.00
H860   H     0.20978   0.00378   0.72024   0.00000  Uiso   1.00
H861   H     0.10954   0.27961   0.97030   0.00000  Uiso   1.00
H862   H     0.10907   0.25521   0.90262   0.00000  Uiso   1.00
H863   H     0.17022   0.14896   0.90589   0.00000  Uiso   1.00
H864   H     0.16312   0.22981   0.56630   0.00000  Uiso   1.00
H865   H     0.12479   0.32702   0.59910   0.00000  Uiso   1.00
H866   H     0.03605   0.13476   0.53046   0.00000  Uiso   1.00
H867   H     0.03605   0.24878   0.74899   0.00000  Uiso   1.00
O868   O     0.16667   0.16667   0.75000   0.00000  Uiso   1.00
O869   O     0.15693   0.12393   0.66625   0.00000  Uiso   1.00
O870   O     0.12687   0.20646   0.83749   0.00000  Uiso   1.00
O871   O     0.21088   0.17493   0.65877   0.00000  Uiso   1.00
O872   O     0.17198   0.16135   0.83749   0.00000  Uiso   1.00
O873   O     0.14704   0.32707   0.51895   0.00000  Uiso   1.00
O874   O     0.07798   0.28661   0.54863   0.00000  Uiso   1.00
O875   O     0.13627   0.30022   0.58712   0.00000  Uiso   1.00
O876   O     0.31859   0.07132   0.50186   0.00000  Uiso   1.00
O877   O     0.32403   0.13969   0.97873   0.00000  Uiso   1.00
O878   O     0.00557   0.13753   0.54579   0.00000  Uiso   1.00
O879   O     0.17849   0.08101   0.77821   0.00000  Uiso   1.00
O880   O     0.02388   0.19855   0.70827   0.00000  Uiso   1.00
O881   O     0.11014   0.32651   0.78505   0.00000  Uiso   1.00
O882   O     0.09545   0.16189   0.57374   0.00000  Uiso   1.00
O883   O     0.09789   0.12493   0.62746   0.00000  Uiso   1.00
O884   O     0.11712   0.20536   0.63383   0.00000  Uiso   1.00
O885   O     0.29023   0.06192   0.58181   0.00000  Uiso   1.00
O886   O     0.29150   0.12724   0.62579   0.00000  Uiso   1.00
O887   O     0.22571   0.07092   0.64431   0.00000  Uiso   1.00
O888   O     0.23973   0.04197   0.98312   0.00000  Uiso   1.00
O889   O     0.22007   0.05580   0.92521   0.00000  Uiso   1.00
O890   O     0.14581   0.26136   0.76767   0.00000  Uiso   1.00
O891   O     0.30034   0.07357   0.92532   0.00000  Uiso   1.00
O892   O     0.25213   0.19764   0.89475   0.00000  Uiso   1.00
O893   O     0.30068   0.15168   0.90274   0.00000  Uiso   1.00
O894   O     0.23884   0.11840   0.87201   0.00000  Uiso   1.00
O895   O     0.07452   0.13251   0.73607   0.00000  Uiso   1.00
O896   O     0.26785   0.19179   0.71806   0.00000  Uiso   1.00
O897   O     0.06990   0.18960   0.77820   0.00000  Uiso   1.00
O898   O     0.25440   0.15277   0.76768   0.00000  Uiso   1.00
O899   O     0.13800   0.06903   0.73607   0.00000  Uiso   1.00
O900   O     0.20437   0.25527   0.71806   0.00000  Uiso   1.00
S901   S     0.12609   0.29098   0.54256   0.00000  Uiso   1.00
S902   S     0.30963   0.11584   0.51452   0.00000  Uiso   1.00
S903   S     0.11985   0.16049   0.60345   0.00000  Uiso   1.00
S904   S     0.26322   0.09436   0.60767   0.00000  Uiso   1.00
S905   S     0.24818   0.07174   0.95233   0.00000  Uiso   1.00
S906   S     0.25441   0.15514   0.90515   0.00000  Uiso   1.00
Zn907  Zn    0.19244   0.14090   0.78278   0.00000  Uiso   1.00
Zn908  Zn    0.13459   0.12378   0.72258   0.00000  Uiso   1.00
Zn909  Zn    0.21166   0.19664   0.71188   0.00000  Uiso   1.00
Zn910  Zn    0.12798   0.20535   0.78277   0.00000  Uiso   1.00
C911   C     0.38573   0.15967   0.75906   0.00000  Uiso   1.00
C912   C     0.55423   0.14769   0.95429   0.00000  Uiso   1.00
C913   C     0.56844   0.12220   0.97559   0.00000  Uiso   1.00
C914   C     0.61448   0.17387   0.74128   0.00000  Uiso   1.00
C915   C     0.56063   0.13126   0.51720   0.00000  Uiso   1.00
C916   C     0.52723   0.15594   0.53819   0.00000  Uiso   1.00
C917   C     0.58646   0.11816   0.53826   0.00000  Uiso   1.00
C918   C     0.57062   0.11854   0.58008   0.00000  Uiso   1.00
C919   C     0.50877   0.15294   0.57944   0.00000  Uiso   1.00
C920   C     0.66068   0.17763   0.73799   0.00000  Uiso   1.00
C921   C     0.34049   0.15765   0.76201   0.00000  Uiso   1.00
C922   C     0.45708   0.23756   0.91780   0.00000  Uiso   1.00
C923   C     0.51397   0.32248   0.73994   0.00000  Uiso   1.00
C924   C     0.48298   0.01216   0.76288   0.00000  Uiso   1.00
C925   C     0.48973   0.05616   0.75838   0.00000  Uiso   1.00
C926   C     0.51001   0.27773   0.74148   0.00000  Uiso   1.00
C927   C     0.52109   0.14580   0.64374   0.00000  Uiso   1.00
C928   C     0.47900   0.18801   0.85635   0.00000  Uiso   1.00
C929   C     0.47504   0.20106   0.89879   0.00000  Uiso   1.00
C930   C     0.53212   0.13657   0.60037   0.00000  Uiso   1.00
C931   C     0.45825   0.25196   0.95656   0.00000  Uiso   1.00
C932   C     0.35962   0.24163   0.72093   0.00000  Uiso   1.00
C933   C     0.49355   0.17901   0.91930   0.00000  Uiso   1.00
C934   C     0.42134   0.02085   0.81628   0.00000  Uiso   1.00
C935   C     0.49947   0.19529   0.95650   0.00000  Uiso   1.00
C936   C     0.47911   0.23109   0.97660   0.00000  Uiso   1.00
C937   C     0.52266   0.17498   0.97524   0.00000  Uiso   1.00
C938   C     0.51363   0.18247   0.51699   0.00000  Uiso   1.00
C939   C     0.49626   0.21959   0.53596   0.00000  Uiso   1.00
C940   C     0.48001   0.24453   0.51613   0.00000  Uiso   1.00
H941   H     0.65118   0.13983   0.78457   0.00000  Uiso   1.00
H942   H     0.66181   0.25403   0.72463   0.00000  Uiso   1.00
H943   H     0.38478   0.25814   0.69781   0.00000  Uiso   1.00
H944   H     0.40802   0.04415   0.80455   0.00000  Uiso   1.00
H945   H     0.44250   0.03653   0.83499   0.00000  Uiso   1.00
H946   H     0.39357   0.00267   0.83565   0.00000  Uiso   1.00
H947   H     0.45164   0.19797   0.65961   0.00000  Uiso   1.00
H948   H     0.57529   0.06455   0.66199   0.00000  Uiso   1.00
H949   H     0.63763   0.04453   0.91338   0.00000  Uiso   1.00
H950   H     0.58834   0.12758   0.84569   0.00000  Uiso   1.00
H951   H     0.54312   0.00378   0.72024   0.00000  Uiso   1.00
H952   H     0.44287   0.27961   0.97030   0.00000  Uiso   1.00
H953   H     0.44241   0.25521   0.90262   0.00000  Uiso   1.00
H954   H     0.50356   0.14896   0.90589   0.00000  Uiso   1.00
H955   H     0.49645   0.22981   0.56630   0.00000  Uiso   1.00
H956   H     0.45813   0.32702   0.59910   0.00000  Uiso   1.00
H957   H     0.36938   0.13476   0.53046   0.00000  Uiso   1.00
H958   H     0.36938   0.24878   0.74899   0.00000  Uiso   1.00
O959   O     0.50000   0.16667   0.75000   0.00000  Uiso   1.00
O960   O     0.49027   0.12393   0.66625   0.00000  Uiso   1.00
O961   O     0.46020   0.20646   0.83749   0.00000  Uiso   1.00
O962   O     0.54421   0.17493   0.65877   0.00000  Uiso   1.00
O963   O     0.50532   0.16135   0.83749   0.00000  Uiso   1.00
O964   O     0.48038   0.32707   0.51895   0.00000  Uiso   1.00
O965   O     0.41131   0.28661   0.54863   0.00000  Uiso   1.00
O966   O     0.46960   0.30022   0.58712   0.00000  Uiso   1.00
O967   O     0.65192   0.07132   0.50186   0.00000  Uiso   1.00
O968   O     0.65736   0.13969   0.97873   0.00000  Uiso   1.00
O969   O     0.33891   0.13753   0.54579   0.00000  Uiso   1.00
O970   O     0.51182   0.08101   0.77821   0.00000  Uiso   1.00
O971   O     0.35721   0.19855   0.70827   0.00000  Uiso   1.00
O972   O     0.44348   0.32651   0.78505   0.00000  Uiso   1.00
O973   O     0.42878   0.16189   0.57374   0.00000  Uiso   1.00
O974   O     0.43122   0.12493   0.62746   0.00000  Uiso   1.00
O975   O     0.45045   0.20536   0.63383   0.00000  Uiso   1.00
O976   O     0.62356   0.06192   0.58181   0.00000  Uiso   1.00
O977   O     0.62484   0.12724   0.62579   0.00000  Uiso   1.00
O978   O     0.55904   0.07092   0.64431   0.00000  Uiso   1.00
O979   O     0.57307   0.04197   0.98312   0.00000  Uiso   1.00
O980   O     0.55340   0.05580   0.92521   0.00000  Uiso   1.00
O981   O     0.47914   0.26136   0.76767   0.00000  Uiso   1.00
O982   O     0.63367   0.07357   0.92532   0.00000  Uiso   1.00
O983   O     0.58546   0.19764   0.89475   0.00000  Uiso   1.00
O984   O     0.63401   0.15168   0.90274   0.00000  Uiso   1.00
O985   O     0.57217   0.11840   0.87201   0.00000  Uiso   1.00
O986   O     0.40785   0.13251   0.73607   0.00000  Uiso   1.00
O987   O     0.60119   0.19179   0.71806   0.00000  Uiso   1.00
O988   O     0.40323   0.18960   0.77820   0.00000  Uiso   1.00
O989   O     0.58773   0.15277   0.76768   0.00000  Uiso   1.00
O990   O     0.47133   0.06903   0.73607   0.00000  Uiso   1.00
O991   O     0.53771   0.25527   0.71806   0.00000  Uiso   1.00
S992   S     0.45942   0.29098   0.54256   0.00000  Uiso   1.00
S993   S     0.64296   0.11584   0.51452   0.00000  Uiso   1.00
S994   S     0.45319   0.16049   0.60345   0.00000  Uiso   1.00
S995   S     0.59655   0.09436   0.60767   0.00000  Uiso   1.00
S996   S     0.58151   0.07174   0.95233   0.00000  Uiso   1.00
S997   S     0.58775   0.15514   0.90515   0.00000  Uiso   1.00
Zn998  Zn    0.52577   0.14090   0.78278   0.00000  Uiso   1.00
Zn999  Zn    0.46792   0.12378   0.72258   0.00000  Uiso   1.00
Zn1000 Zn    0.54500   0.19664   0.71188   0.00000  Uiso   1.00
Zn1001 Zn    0.46131   0.20535   0.78277   0.00000  Uiso   1.00
C1002  C     0.71906   0.15967   0.75906   0.00000  Uiso   1.00
C1003  C     0.88757   0.14769   0.95429   0.00000  Uiso   1.00
C1004  C     0.90178   0.12220   0.97559   0.00000  Uiso   1.00
C1005  C     0.94781   0.17387   0.74128   0.00000  Uiso   1.00
C1006  C     0.89396   0.13126   0.51720   0.00000  Uiso   1.00
C1007  C     0.86056   0.15594   0.53819   0.00000  Uiso   1.00
C1008  C     0.91980   0.11816   0.53826   0.00000  Uiso   1.00
C1009  C     0.90395   0.11854   0.58008   0.00000  Uiso   1.00
C1010  C     0.84210   0.15294   0.57944   0.00000  Uiso   1.00
C1011  C     0.99402   0.17763   0.73799   0.00000  Uiso   1.00
C1012  C     0.67382   0.15765   0.76201   0.00000  Uiso   1.00
C1013  C     0.79042   0.23756   0.91780   0.00000  Uiso   1.00
C1014  C     0.84730   0.32248   0.73994   0.00000  Uiso   1.00
C1015  C     0.81632   0.01216   0.76288   0.00000  Uiso   1.00
C1016  C     0.82307   0.05616   0.75838   0.00000  Uiso   1.00
C1017  C     0.84335   0.27773   0.74148   0.00000  Uiso   1.00
C1018  C     0.85442   0.14580   0.64374   0.00000  Uiso   1.00
C1019  C     0.81234   0.18801   0.85635   0.00000  Uiso   1.00
C1020  C     0.80837   0.20106   0.89879   0.00000  Uiso   1.00
C1021  C     0.86545   0.13657   0.60037   0.00000  Uiso   1.00
C1022  C     0.79158   0.25196   0.95656   0.00000  Uiso   1.00
C1023  C     0.69295   0.24163   0.72093   0.00000  Uiso   1.00
C1024  C     0.82689   0.17901   0.91930   0.00000  Uiso   1.00
C1025  C     0.75467   0.02085   0.81628   0.00000  Uiso   1.00
C1026  C     0.83280   0.19529   0.95650   0.00000  Uiso   1.00
C1027  C     0.81245   0.23109   0.97660   0.00000  Uiso   1.00
C1028  C     0.85599   0.17498   0.97524   0.00000  Uiso   1.00
C1029  C     0.84696   0.18247   0.51699   0.00000  Uiso   1.00
C1030  C     0.82959   0.21959   0.53596   0.00000  Uiso   1.00
C1031  C     0.81334   0.24453   0.51613   0.00000  Uiso   1.00
H1032  H     0.98451   0.13983   0.78457   0.00000  Uiso   1.00
H1033  H     0.99515   0.25403   0.72463   0.00000  Uiso   1.00
H1034  H     0.71811   0.25814   0.69781   0.00000  Uiso   1.00
H1035  H     0.74136   0.04415   0.80455   0.00000  Uiso   1.00
H1036  H     0.77584   0.03653   0.83499   0.00000  Uiso   1.00
H1037  H     0.72691   0.00267   0.83565   0.00000  Uiso   1.00
H1038  H     0.78497   0.19797   0.65961   0.00000  Uiso   1.00
H1039  H     0.90862   0.06455   0.66199   0.00000  Uiso   1.00
H1040  H     0.97096   0.04453   0.91338   0.00000  Uiso   1.00
H1041  H     0.92168   0.12758   0.84569   0.00000  Uiso   1.00
H1042  H     0.87645   0.00378   0.72024   0.00000  Uiso   1.00
H1043  H     0.77620   0.27961   0.97030   0.00000  Uiso   1.00
H1044  H     0.77574   0.25521   0.90262   0.00000  Uiso   1.00
H1045  H     0.83689   0.14896   0.90589   0.00000  Uiso   1.00
H1046  H     0.82978   0.22981   0.56630   0.00000  Uiso   1.00
H1047  H     0.79146   0.32702   0.59910   0.00000  Uiso   1.00
H1048  H     0.70272   0.13476   0.53046   0.00000  Uiso   1.00
H1049  H     0.70272   0.24878   0.74899   0.00000  Uiso   1.00
O1050  O     0.83333   0.16667   0.75000   0.00000  Uiso   1.00
O1051  O     0.82360   0.12393   0.66625   0.00000  Uiso   1.00
O1052  O     0.79354   0.20646   0.83749   0.00000  Uiso   1.00
O1053  O     0.87755   0.17493   0.65877   0.00000  Uiso   1.00
O1054  O     0.83865   0.16135   0.83749   0.00000  Uiso   1.00
O1055  O     0.81371   0.32707   0.51895   0.00000  Uiso   1.00
O1056  O     0.74464   0.28661   0.54863   0.00000  Uiso   1.00
O1057  O     0.80293   0.30022   0.58712   0.00000  Uiso   1.00
O1058  O     0.98526   0.07132   0.50186   0.00000  Uiso   1.00
O1059  O     0.99070   0.13969   0.97873   0.00000  Uiso   1.00
O1060  O     0.67224   0.13753   0.54579   0.00000  Uiso   1.00
O1061  O     0.84515   0.08101   0.77821   0.00000  Uiso   1.00
O1062  O     0.69055   0.19855   0.70827   0.00000  Uiso   1.00
O1063  O     0.77681   0.32651   0.78505   0.00000  Uiso   1.00
O1064  O     0.76211   0.16189   0.57374   0.00000  Uiso   1.00
O1065  O     0.76456   0.12493   0.62746   0.00000  Uiso   1.00
O1066  O     0.78378   0.20536   0.63383   0.00000  Uiso   1.00
O1067  O     0.95690   0.06192   0.58181   0.00000  Uiso   1.00
O1068  O     0.95817   0.12724   0.62579   0.00000  Uiso   1.00
O1069  O     0.89238   0.07092   0.64431   0.00000  Uiso   1.00
O1070  O     0.90640   0.04197   0.98312   0.00000  Uiso   1.00
O1071  O     0.88673   0.05580   0.92521   0.00000  Uiso   1.00
O1072  O     0.81247   0.26136   0.76767   0.00000  Uiso   1.00
O1073  O     0.96700   0.07357   0.92532   0.00000  Uiso   1.00
O1074  O     0.91879   0.19764   0.89475   0.00000  Uiso   1.00
O1075  O     0.96734   0.15168   0.90274   0.00000  Uiso   1.00
O1076  O     0.90551   0.11840   0.87201   0.00000  Uiso   1.00
O1077  O     0.74119   0.13251   0.73607   0.00000  Uiso   1.00
O1078  O     0.93452   0.19179   0.71806   0.00000  Uiso   1.00
O1079  O     0.73656   0.18960   0.77820   0.00000  Uiso   1.00
O1080  O     0.92106   0.15277   0.76768   0.00000  Uiso   1.00
O1081  O     0.80467   0.06903   0.73607   0.00000  Uiso   1.00
O1082  O     0.87104   0.25527   0.71806   0.00000  Uiso   1.00
S1083  S     0.79275   0.29098   0.54256   0.00000  Uiso   1.00
S1084  S     0.97630   0.11584   0.51452   0.00000  Uiso   1.00
S1085  S     0.78652   0.16049   0.60345   0.00000  Uiso   1.00
S1086  S     0.92988   0.09436   0.60767   0.00000  Uiso   1.00
S1087  S     0.91484   0.07174   0.95233   0.00000  Uiso   1.00
S1088  S     0.92108   0.15514   0.90515   0.00000  Uiso   1.00
Zn1089 Zn    0.85910   0.14090   0.78278   0.00000  Uiso   1.00
Zn1090 Zn    0.80125   0.12378   0.72258   0.00000  Uiso   1.00
Zn1091 Zn    0.87833   0.19664   0.71188   0.00000  Uiso   1.00
Zn1092 Zn    0.79465   0.20535   0.78277   0.00000  Uiso   1.00
C1093  C     0.05240   0.49300   0.75906   0.00000  Uiso   1.00
C1094  C     0.22090   0.48102   0.95429   0.00000  Uiso   1.00
C1095  C     0.23511   0.45553   0.97559   0.00000  Uiso   1.00
C1096  C     0.28114   0.50721   0.74128   0.00000  Uiso   1.00
C1097  C     0.22729   0.46459   0.51720   0.00000  Uiso   1.00
C1098  C     0.19389   0.48928   0.53819   0.00000  Uiso   1.00
C1099  C     0.25313   0.45149   0.53826   0.00000  Uiso   1.00
C1100  C     0.23729   0.45188   0.58008   0.00000  Uiso   1.00
C1101  C     0.17543   0.48628   0.57944   0.00000  Uiso   1.00
C1102  C     0.32735   0.51097   0.73799   0.00000  Uiso   1.00
C1103  C     0.00716   0.49099   0.76201   0.00000  Uiso   1.00
C1104  C     0.12375   0.57089   0.91780   0.00000  Uiso   1.00
C1105  C     0.18063   0.65582   0.73994   0.00000  Uiso   1.00
C1106  C     0.14965   0.34549   0.76288   0.00000  Uiso   1.00
C1107  C     0.15640   0.38949   0.75838   0.00000  Uiso   1.00
C1108  C     0.17668   0.61106   0.74148   0.00000  Uiso   1.00
C1109  C     0.18775   0.47913   0.64374   0.00000  Uiso   1.00
C1110  C     0.14567   0.52134   0.85635   0.00000  Uiso   1.00
C1111  C     0.14170   0.53440   0.89879   0.00000  Uiso   1.00
C1112  C     0.19878   0.46991   0.60037   0.00000  Uiso   1.00
C1113  C     0.12491   0.58529   0.95656   0.00000  Uiso   1.00
C1114  C     0.02629   0.57496   0.72093   0.00000  Uiso   1.00
C1115  C     0.16022   0.51234   0.91930   0.00000  Uiso   1.00
C1116  C     0.08801   0.35419   0.81628   0.00000  Uiso   1.00
C1117  C     0.16613   0.52862   0.95650   0.00000  Uiso   1.00
C1118  C     0.14578   0.56442   0.97660   0.00000  Uiso   1.00
C1119  C     0.18933   0.50831   0.97524   0.00000  Uiso   1.00
C1120  C     0.18029   0.51581   0.51699   0.00000  Uiso   1.00
C1121  C     0.16293   0.55292   0.53596   0.00000  Uiso   1.00
C1122  C     0.14668   0.57787   0.51613   0.00000  Uiso   1.00
H1123  H     0.31785   0.47316   0.78457   0.00000  Uiso   1.00
H1124  H     0.32848   0.58736   0.72463   0.00000  Uiso   1.00
H1125  H     0.05144   0.59147   0.69781   0.00000  Uiso   1.00
H1126  H     0.07469   0.37748   0.80455   0.00000  Uiso   1.00
H1127  H     0.10917   0.36986   0.83499   0.00000  Uiso   1.00
H1128  H     0.06024   0.33600   0.83565   0.00000  Uiso   1.00
H1129  H     0.11830   0.53131   0.65961   0.00000  Uiso   1.00
H1130  H     0.24195   0.39788   0.66199   0.00000  Uiso   1.00
H1131  H     0.30429   0.37787   0.91338   0.00000  Uiso   1.00
H1132  H     0.25501   0.46091   0.84569   0.00000  Uiso   1.00
H1133  H     0.20978   0.33712   0.72024   0.00000  Uiso   1.00
H1134  H     0.10954   0.61294   0.97030   0.00000  Uiso   1.00
H1135  H     0.10907   0.58854   0.90262   0.00000  Uiso   1.00
H1136  H     0.17022   0.48229   0.90589   0.00000  Uiso   1.00
H1137  H     0.16312   0.56314   0.56630   0.00000  Uiso   1.00
H1138  H     0.12479   0.66036   0.59910   0.00000  Uiso   1.00
H1139  H     0.03605   0.46810   0.53046   0.00000  Uiso   1.00
H1140  H     0.03605   0.58211   0.74899   0.00000  Uiso   1.00
O1141  O     0.16667   0.50000   0.75000   0.00000  Uiso   1.00
O1142  O     0.15693   0.45726   0.66625   0.00000  Uiso   1.00
O1143  O     0.12687   0.53979   0.83749   0.00000  Uiso   1.00
O1144  O     0.21088   0.50826   0.65877   0.00000  Uiso   1.00
O1145  O     0.17198   0.49468   0.83749   0.00000  Uiso   1.00
O1146  O     0.14704   0.66040   0.51895   0.00000  Uiso   1.00
O1147  O     0.07798   0.61994   0.54863   0.00000  Uiso   1.00
O1148  O     0.13627   0.63356   0.58712   0.00000  Uiso   1.00
O1149  O     0.31859   0.40465   0.50186   0.00000  Uiso   1.00
O1150  O     0.32403   0.47302   0.97873   0.00000  Uiso   1.00
O1151  O     0.00557   0.47086   0.54579   0.00000  Uiso   1.00
O1152  O     0.17849   0.41434   0.77821   0.00000  Uiso   1.00
O1153  O     0.02388   0.53188   0.70827   0.00000  Uiso   1.00
O1154  O     0.11014   0.65985   0.78505   0.00000  Uiso   1.00
O1155  O     0.09545   0.49522   0.57374   0.00000  Uiso   1.00
O1156  O     0.09789   0.45826   0.62746   0.00000  Uiso   1.00
O1157  O     0.11712   0.53869   0.63383   0.00000  Uiso   1.00
O1158  O     0.29023   0.39525   0.58181   0.00000  Uiso   1.00
O1159  O     0.29150   0.46058   0.62579   0.00000  Uiso   1.00
O1160  O     0.22571   0.40425   0.64431   0.00000  Uiso   1.00
O1161  O     0.23973   0.37530   0.98312   0.00000  Uiso   1.00
O1162  O     0.22007   0.38914   0.92521   0.00000  Uiso   1.00
O1163  O     0.14581   0.59469   0.76767   0.00000  Uiso   1.00
O1164  O     0.30034   0.40690   0.92532   0.00000  Uiso   1.00
O1165  O     0.25213   0.53097   0.89475   0.00000  Uiso   1.00
O1166  O     0.30068   0.48501   0.90274   0.00000  Uiso   1.00
O1167  O     0.23884   0.45174   0.87201   0.00000  Uiso   1.00
O1168  O     0.07452   0.46584   0.73607   0.00000  Uiso   1.00
O1169  O     0.26785   0.52512   0.71806   0.00000  Uiso   1.00
O1170  O     0.06990   0.52293   0.77820   0.00000  Uiso   1.00
O1171  O     0.25440   0.48610   0.76768   0.00000  Uiso   1.00
O1172  O     0.13800   0.40236   0.73607   0.00000  Uiso   1.00
O1173  O     0.20437   0.58860   0.71806   0.00000  Uiso   1.00
S1174  S     0.12609   0.62431   0.54256   0.00000  Uiso   1.00
S1175  S     0.30963   0.44917   0.51452   0.00000  Uiso   1.00
S1176  S     0.11985   0.49383   0.60345   0.00000  Uiso   1.00
S1177  S     0.26322   0.42770   0.60767   0.00000  Uiso   1.00
S1178  S     0.24818   0.40507   0.95233   0.00000  Uiso   1.00
S1179  S     0.25441   0.48847   0.90515   0.00000  Uiso   1.00
Zn1180 Zn    0.19244   0.47423   0.78278   0.00000  Uiso   1.00
Zn1181 Zn    0.13459   0.45711   0.72258   0.00000  Uiso   1.00
Zn1182 Zn    0.21166   0.52997   0.71188   0.00000  Uiso   1.00
Zn1183 Zn    0.12798   0.53868   0.78277   0.00000  Uiso   1.00
C1184  C     0.38573   0.49300   0.75906   0.00000  Uiso   1.00
C1185  C     0.55423   0.48102   0.95429   0.00000  Uiso   1.00
C1186  C     0.56844   0.45553   0.97559   0.00000  Uiso   1.00
C1187  C     0.61448   0.50721   0.74128   0.00000  Uiso   1.00
C1188  C     0.56063   0.46459   0.51720   0.00000  Uiso   1.00
C1189  C     0.52723   0.48928   0.53819   0.00000  Uiso   1.00
C1190  C     0.58646   0.45149   0.53826   0.00000  Uiso   1.00
C1191  C     0.57062   0.45188   0.58008   0.00000  Uiso   1.00
C1192  C     0.50877   0.48628   0.57944   0.00000  Uiso   1.00
C1193  C     0.66068   0.51097   0.73799   0.00000  Uiso   1.00
C1194  C     0.34049   0.49099   0.76201   0.00000  Uiso   1.00
C1195  C     0.45708   0.57089   0.91780   0.00000  Uiso   1.00
C1196  C     0.51397   0.65582   0.73994   0.00000  Uiso   1.00
C1197  C     0.48298   0.34549   0.76288   0.00000  Uiso   1.00
C1198  C     0.48973   0.38949   0.75838   0.00000  Uiso   1.00
C1199  C     0.51001   0.61106   0.74148   0.00000  Uiso   1.00
C1200  C     0.52109   0.47913   0.64374   0.00000  Uiso   1.00
C1201  C     0.47900   0.52134   0.85635   0.00000  Uiso   1.00
C1202  C     0.47504   0.53440   0.89879   0.00000  Uiso   1.00
C1203  C     0.53212   0.46991   0.60037   0.00000  Uiso   1.00
C1204  C     0.45825   0.58529   0.95656   0.00000  Uiso   1.00
C1205  C     0.35962   0.57496   0.72093   0.00000  Uiso   1.00
C1206  C     0.49355   0.51234   0.91930   0.00000  Uiso   1.00
C1207  C     0.42134   0.35419   0.81628   0.00000  Uiso   1.00
C1208  C     0.49947   0.52862   0.95650   0.00000  Uiso   1.00
C1209  C     0.47911   0.56442   0.97660   0.00000  Uiso   1.00
C1210  C     0.52266   0.50831   0.97524   0.00000  Uiso   1.00
C1211  C     0.51363   0.51581   0.51699   0.00000  Uiso   1.00
C1212  C     0.49626   0.55292   0.53596   0.00000  Uiso   1.00
C1213  C     0.48001   0.57787   0.51613   0.00000  Uiso   1.00
H1214  H     0.65118   0.47316   0.78457   0.00000  Uiso   1.00
H1215  H     0.66181   0.58736   0.72463   0.00000  Uiso   1.00
H1216  H     0.38478   0.59147   0.69781   0.00000  Uiso   1.00
H1217  H     0.40802   0.37748   0.80455   0.00000  Uiso   1.00
H1218  H     0.44250   0.36986   0.83499   0.00000  Uiso   1.00
H1219  H     0.39357   0.33600   0.83565   0.00000  Uiso   1.00
H1220  H     0.45164   0.53131   0.65961   0.00000  Uiso   1.00
H1221  H     0.57529   0.39788   0.66199   0.00000  Uiso   1.00
H1222  H     0.63763   0.37787   0.91338   0.00000  Uiso   1.00
H1223  H     0.58834   0.46091   0.84569   0.00000  Uiso   1.00
H1224  H     0.54312   0.33712   0.72024   0.00000  Uiso   1.00
H1225  H     0.44287   0.61294   0.97030   0.00000  Uiso   1.00
H1226  H     0.44241   0.58854   0.90262   0.00000  Uiso   1.00
H1227  H     0.50356   0.48229   0.90589   0.00000  Uiso   1.00
H1228  H     0.49645   0.56314   0.56630   0.00000  Uiso   1.00
H1229  H     0.45813   0.66036   0.59910   0.00000  Uiso   1.00
H1230  H     0.36938   0.46810   0.53046   0.00000  Uiso   1.00
H1231  H     0.36938   0.58211   0.74899   0.00000  Uiso   1.00
O1232  O     0.50000   0.50000   0.75000   0.00000  Uiso   1.00
O1233  O     0.49027   0.45726   0.66625   0.00000  Uiso   1.00
O1234  O     0.46020   0.53979   0.83749   0.00000  Uiso   1.00
O1235  O     0.54421   0.50826   0.65877   0.00000  Uiso   1.00
O1236  O     0.50532   0.49468   0.83749   0.00000  Uiso   1.00
O1237  O     0.48038   0.66040   0.51895   0.00000  Uiso   1.00
O1238  O     0.41131   0.61994   0.54863   0.00000  Uiso   1.00
O1239  O     0.46960   0.63356   0.58712   0.00000  Uiso   1.00
O1240  O     0.65192   0.40465   0.50186   0.00000  Uiso   1.00
O1241  O     0.65736   0.47302   0.97873   0.00000  Uiso   1.00
O1242  O     0.33891   0.47086   0.54579   0.00000  Uiso   1.00
O1243  O     0.51182   0.41434   0.77821   0.00000  Uiso   1.00
O1244  O     0.35721   0.53188   0.70827   0.00000  Uiso   1.00
O1245  O     0.44348   0.65985   0.78505   0.00000  Uiso   1.00
O1246  O     0.42878   0.49522   0.57374   0.00000  Uiso   1.00
O1247  O     0.43122   0.45826   0.62746   0.00000  Uiso   1.00
O1248  O     0.45045   0.53869   0.63383   0.00000  Uiso   1.00
O1249  O     0.62356   0.39525   0.58181   0.00000  Uiso   1.00
O1250  O     0.62484   0.46058   0.62579   0.00000  Uiso   1.00
O1251  O     0.55904   0.40425   0.64431   0.00000  Uiso   1.00
O1252  O     0.57307   0.37530   0.98312   0.00000  Uiso   1.00
O1253  O     0.55340   0.38914   0.92521   0.00000  Uiso   1.00
O1254  O     0.47914   0.59469   0.76767   0.00000  Uiso   1.00
O1255  O     0.63367   0.40690   0.92532   0.00000  Uiso   1.00
O1256  O     0.58546   0.53097   0.89475   0.00000  Uiso   1.00
O1257  O     0.63401   0.48501   0.90274   0.00000  Uiso   1.00
O1258  O     0.57217   0.45174   0.87201   0.00000  Uiso   1.00
O1259  O     0.40785   0.46584   0.73607   0.00000  Uiso   1.00
O1260  O     0.60119   0.52512   0.71806   0.00000  Uiso   1.00
O1261  O     0.40323   0.52293   0.77820   0.00000  Uiso   1.00
O1262  O     0.58773   0.48610   0.76768   0.00000  Uiso   1.00
O1263  O     0.47133   0.40236   0.73607   0.00000  Uiso   1.00
O1264  O     0.53771   0.58860   0.71806   0.00000  Uiso   1.00
S1265  S     0.45942   0.62431   0.54256   0.00000  Uiso   1.00
S1266  S     0.64296   0.44917   0.51452   0.00000  Uiso   1.00
S1267  S     0.45319   0.49383   0.60345   0.00000  Uiso   1.00
S1268  S     0.59655   0.42770   0.60767   0.00000  Uiso   1.00
S1269  S     0.58151   0.40507   0.95233   0.00000  Uiso   1.00
S1270  S     0.58775   0.48847   0.90515   0.00000  Uiso   1.00
Zn1271 Zn    0.52577   0.47423   0.78278   0.00000  Uiso   1.00
Zn1272 Zn    0.46792   0.45711   0.72258   0.00000  Uiso   1.00
Zn1273 Zn    0.54500   0.52997   0.71188   0.00000  Uiso   1.00
Zn1274 Zn    0.46131   0.53868   0.78277   0.00000  Uiso   1.00
C1275  C     0.71906   0.49300   0.75906   0.00000  Uiso   1.00
C1276  C     0.88757   0.48102   0.95429   0.00000  Uiso   1.00
C1277  C     0.90178   0.45553   0.97559   0.00000  Uiso   1.00
C1278  C     0.94781   0.50721   0.74128   0.00000  Uiso   1.00
C1279  C     0.89396   0.46459   0.51720   0.00000  Uiso   1.00
C1280  C     0.86056   0.48928   0.53819   0.00000  Uiso   1.00
C1281  C     0.91980   0.45149   0.53826   0.00000  Uiso   1.00
C1282  C     0.90395   0.45188   0.58008   0.00000  Uiso   1.00
C1283  C     0.84210   0.48628   0.57944   0.00000  Uiso   1.00
C1284  C     0.99402   0.51097   0.73799   0.00000  Uiso   1.00
C1285  C     0.67382   0.49099   0.76201   0.00000  Uiso   1.00
C1286  C     0.79042   0.57089   0.91780   0.00000  Uiso   1.00
C1287  C     0.84730   0.65582   0.73994   0.00000  Uiso   1.00
C1288  C     0.81632   0.34549   0.76288   0.00000  Uiso   1.00
C1289  C     0.82307   0.38949   0.75838   0.00000  Uiso   1.00
C1290  C     0.84335   0.61106   0.74148   0.00000  Uiso   1.00
C1291  C     0.85442   0.47913   0.64374   0.00000  Uiso   1.00
C1292  C     0.81234   0.52134   0.85635   0.00000  Uiso   1.00
C1293  C     0.80837   0.53440   0.89879   0.00000  Uiso   1.00
C1294  C     0.86545   0.46991   0.60037   0.00000  Uiso   1.00
C1295  C     0.79158   0.58529   0.95656   0.00000  Uiso   1.00
C1296  C     0.69295   0.57496   0.72093   0.00000  Uiso   1.00
C1297  C     0.82689   0.51234   0.91930   0.00000  Uiso   1.00
C1298  C     0.75467   0.35419   0.81628   0.00000  Uiso   1.00
C1299  C     0.83280   0.52862   0.95650   0.00000  Uiso   1.00
C1300  C     0.81245   0.56442   0.97660   0.00000  Uiso   1.00
C1301  C     0.85599   0.50831   0.97524   0.00000  Uiso   1.00
C1302  C     0.84696   0.51581   0.51699   0.00000  Uiso   1.00
C1303  C     0.82959   0.55292   0.53596   0.00000  Uiso   1.00
C1304  C     0.81334   0.57787   0.51613   0.00000  Uiso   1.00
H1305  H     0.98451   0.47316   0.78457   0.00000  Uiso   1.00
H1306  H     0.99515   0.58736   0.72463   0.00000  Uiso   1.00
H1307  H     0.71811   0.59147   0.69781   0.00000  Uiso   1.00
H1308  H     0.74136   0.37748   0.80455   0.00000  Uiso   1.00
H1309  H     0.77584   0.36986   0.83499   0.00000  Uiso   1.00
H1310  H     0.72691   0.33600   0.83565   0.00000  Uiso   1.00
H1311  H     0.78497   0.53131   0.65961   0.00000  Uiso   1.00
H1312  H     0.90862   0.39788   0.66199   0.00000  Uiso   1.00
H1313  H     0.97096   0.37787   0.91338   0.00000  Uiso   1.00
H1314  H     0.92168   0.46091   0.84569   0.00000  Uiso   1.00
H1315  H     0.87645   0.33712   0.72024   0.00000  Uiso   1.00
H1316  H     0.77620   0.61294   0.97030   0.00000  Uiso   1.00
H1317  H     0.77574   0.58854   0.90262   0.00000  Uiso   1.00
H1318  H     0.83689   0.48229   0.90589   0.00000  Uiso   1.00
H1319  H     0.82978   0.56314   0.56630   0.00000  Uiso   1.00
H1320  H     0.79146   0.66036   0.59910   0.00000  Uiso   1.00
H1321  H     0.70272   0.46810   0.53046   0.00000  Uiso   1.00
H1322  H     0.70272   0.58211   0.74899   0.00000  Uiso   1.00
O1323  O     0.83333   0.50000   0.75000   0.00000  Uiso   1.00
O1324  O     0.82360   0.45726   0.66625   0.00000  Uiso   1.00
O1325  O     0.79354   0.53979   0.83749   0.00000  Uiso   1.00
O1326  O     0.87755   0.50826   0.65877   0.00000  Uiso   1.00
O1327  O     0.83865   0.49468   0.83749   0.00000  Uiso   1.00
O1328  O     0.81371   0.66040   0.51895   0.00000  Uiso   1.00
O1329  O     0.74464   0.61994   0.54863   0.00000  Uiso   1.00
O1330  O     0.80293   0.63356   0.58712   0.00000  Uiso   1.00
O1331  O     0.98526   0.40465   0.50186   0.00000  Uiso   1.00
O1332  O     0.99070   0.47302   0.97873   0.00000  Uiso   1.00
O1333  O     0.67224   0.47086   0.54579   0.00000  Uiso   1.00
O1334  O     0.84515   0.41434   0.77821   0.00000  Uiso   1.00
O1335  O     0.69055   0.53188   0.70827   0.00000  Uiso   1.00
O1336  O     0.77681   0.65985   0.78505   0.00000  Uiso   1.00
O1337  O     0.76211   0.49522   0.57374   0.00000  Uiso   1.00
O1338  O     0.76456   0.45826   0.62746   0.00000  Uiso   1.00
O1339  O     0.78378   0.53869   0.63383   0.00000  Uiso   1.00
O1340  O     0.95690   0.39525   0.58181   0.00000  Uiso   1.00
O1341  O     0.95817   0.46058   0.62579   0.00000  Uiso   1.00
O1342  O     0.89238   0.40425   0.64431   0.00000  Uiso   1.00
O1343  O     0.90640   0.37530   0.98312   0.00000  Uiso   1.00
O1344  O     0.88673   0.38914   0.92521   0.00000  Uiso   1.00
O1345  O     0.81247   0.59469   0.76767   0.00000  Uiso   1.00
O1346  O     0.96700   0.40690   0.92532   0.00000  Uiso   1.00
O1347  O     0.91879   0.53097   0.89475   0.00000  Uiso   1.00
O1348  O     0.96734   0.48501   0.90274   0.00000  Uiso   1.00
O1349  O     0.90551   0.45174   0.87201   0.00000  Uiso   1.00
O1350  O     0.74119   0.46584   0.73607   0.00000  Uiso   1.00
O1351  O     0.93452   0.52512   0.71806   0.00000  Uiso   1.00
O1352  O     0.73656   0.52293   0.77820   0.00000  Uiso   1.00
O1353  O     0.92106   0.48610   0.76768   0.00000  Uiso   1.00
O1354  O     0.80467   0.40236   0.73607   0.00000  Uiso   1.00
O1355  O     0.87104   0.58860   0.71806   0.00000  Uiso   1.00
S1356  S     0.79275   0.62431   0.54256   0.00000  Uiso   1.00
S1357  S     0.97630   0.44917   0.51452   0.00000  Uiso   1.00
S1358  S     0.78652   0.49383   0.60345   0.00000  Uiso   1.00
S1359  S     0.92988   0.42770   0.60767   0.00000  Uiso   1.00
S1360  S     0.91484   0.40507   0.95233   0.00000  Uiso   1.00
S1361  S     0.92108   0.48847   0.90515   0.00000  Uiso   1.00
Zn1362 Zn    0.85910   0.47423   0.78278   0.00000  Uiso   1.00
Zn1363 Zn    0.80125   0.45711   0.72258   0.00000  Uiso   1.00
Zn1364 Zn    0.87833   0.52997   0.71188   0.00000  Uiso   1.00
Zn1365 Zn    0.79465   0.53868   0.78277   0.00000  Uiso   1.00
C1366  C     0.05240   0.82634   0.75906   0.00000  Uiso   1.00
C1367  C     0.22090   0.81435   0.95429   0.00000  Uiso   1.00
C1368  C     0.23511   0.78886   0.97559   0.00000  Uiso   1.00
C1369  C     0.28114   0.84054   0.74128   0.00000  Uiso   1.00
C1370  C     0.22729   0.79793   0.51720   0.00000  Uiso   1.00
C1371  C     0.19389   0.82261   0.53819   0.00000  Uiso   1.00
C1372  C     0.25313   0.78482   0.53826   0.00000  Uiso   1.00
C1373  C     0.23729   0.78521   0.58008   0.00000  Uiso   1.00
C1374  C     0.17543   0.81961   0.57944   0.00000  Uiso   1.00
C1375  C     0.32735   0.84430   0.73799   0.00000  Uiso   1.00
C1376  C     0.00716   0.82432   0.76201   0.00000  Uiso   1.00
C1377  C     0.12375   0.90423   0.91780   0.00000  Uiso   1.00
C1378  C     0.18063   0.98915   0.73994   0.00000  Uiso   1.00
C1379  C     0.14965   0.67883   0.76288   0.00000  Uiso   1.00
C1380  C     0.15640   0.72282   0.75838   0.00000  Uiso   1.00
C1381  C     0.17668   0.94440   0.74148   0.00000  Uiso   1.00
C1382  C     0.18775   0.81247   0.64374   0.00000  Uiso   1.00
C1383  C     0.14567   0.85468   0.85635   0.00000  Uiso   1.00
C1384  C     0.14170   0.86773   0.89879   0.00000  Uiso   1.00
C1385  C     0.19878   0.80324   0.60037   0.00000  Uiso   1.00
C1386  C     0.12491   0.91863   0.95656   0.00000  Uiso   1.00
C1387  C     0.02629   0.90830   0.72093   0.00000  Uiso   1.00
C1388  C     0.16022   0.84567   0.91930   0.00000  Uiso   1.00
C1389  C     0.08801   0.68752   0.81628   0.00000  Uiso   1.00
C1390  C     0.16613   0.86196   0.95650   0.00000  Uiso   1.00
C1391  C     0.14578   0.89776   0.97660   0.00000  Uiso   1.00
C1392  C     0.18933   0.84164   0.97524   0.00000  Uiso   1.00
C1393  C     0.18029   0.84914   0.51699   0.00000  Uiso   1.00
C1394  C     0.16293   0.88625   0.53596   0.00000  Uiso   1.00
C1395  C     0.14668   0.91120   0.51613   0.00000  Uiso   1.00
H1396  H     0.31785   0.80650   0.78457   0.00000  Uiso   1.00
H1397  H     0.32848   0.92069   0.72463   0.00000  Uiso   1.00
H1398  H     0.05144   0.92481   0.69781   0.00000  Uiso   1.00
H1399  H     0.07469   0.71082   0.80455   0.00000  Uiso   1.00
H1400  H     0.10917   0.70319   0.83499   0.00000  Uiso   1.00
H1401  H     0.06024   0.66934   0.83565   0.00000  Uiso   1.00
H1402  H     0.11830   0.86464   0.65961   0.00000  Uiso   1.00
H1403  H     0.24195   0.73121   0.66199   0.00000  Uiso   1.00
H1404  H     0.30429   0.71120   0.91338   0.00000  Uiso   1.00
H1405  H     0.25501   0.79424   0.84569   0.00000  Uiso   1.00
H1406  H     0.20978   0.67045   0.72024   0.00000  Uiso   1.00
H1407  H     0.10954   0.94628   0.97030   0.00000  Uiso   1.00
H1408  H     0.10907   0.92187   0.90262   0.00000  Uiso   1.00
H1409  H     0.17022   0.81562   0.90589   0.00000  Uiso   1.00
H1410  H     0.16312   0.89648   0.56630   0.00000  Uiso   1.00
H1411  H     0.12479   0.99369   0.59910   0.00000  Uiso   1.00
H1412  H     0.03605   0.80143   0.53046   0.00000  Uiso   1.00
H1413  H     0.03605   0.91544   0.74899   0.00000  Uiso   1.00
O1414  O     0.16667   0.83333   0.75000   0.00000  Uiso   1.00
O1415  O     0.15693   0.79060   0.66625   0.00000  Uiso   1.00
O1416  O     0.12687   0.87313   0.83749   0.00000  Uiso   1.00
O1417  O     0.21088   0.84159   0.65877   0.00000  Uiso   1.00
O1418  O     0.17198   0.82802   0.83749   0.00000  Uiso   1.00
O1419  O     0.14704   0.99373   0.51895   0.00000  Uiso   1.00
O1420  O     0.07798   0.95327   0.54863   0.00000  Uiso   1.00
O1421  O     0.13627   0.96689   0.58712   0.00000  Uiso   1.00
O1422  O     0.31859   0.73798   0.50186   0.00000  Uiso   1.00
O1423  O     0.32403   0.80636   0.97873   0.00000  Uiso   1.00
O1424  O     0.00557   0.80419   0.54579   0.00000  Uiso   1.00
O1425  O     0.17849   0.74768   0.77821   0.00000  Uiso   1.00
O1426  O     0.02388   0.86521   0.70827   0.00000  Uiso   1.00
O1427  O     0.11014   0.99318   0.78505   0.00000  Uiso   1.00
O1428  O     0.09545   0.82855   0.57374   0.00000  Uiso   1.00
O1429  O     0.09789   0.79160   0.62746   0.00000  Uiso   1.00
O1430  O     0.11712   0.87202   0.63383   0.00000  Uiso   1.00
O1431  O     0.29023   0.72859   0.58181   0.00000  Uiso   1.00
O1432  O     0.29150   0.79391   0.62579   0.00000  Uiso   1.00
O1433  O     0.22571   0.73758   0.64431   0.00000  Uiso   1.00
O1434  O     0.23973   0.70864   0.98312   0.00000  Uiso   1.00
O1435  O     0.22007   0.72247   0.92521   0.00000  Uiso   1.00
O1436  O     0.14581   0.92803   0.76767   0.00000  Uiso   1.00
O1437  O     0.30034   0.74023   0.92532   0.00000  Uiso   1.00
O1438  O     0.25213   0.86431   0.89475   0.00000  Uiso   1.00
O1439  O     0.30068   0.81835   0.90274   0.00000  Uiso   1.00
O1440  O     0.23884   0.78507   0.87201   0.00000  Uiso   1.00
O1441  O     0.07452   0.79917   0.73607   0.00000  Uiso   1.00
O1442  O     0.26785   0.85845   0.71806   0.00000  Uiso   1.00
O1443  O     0.06990   0.85627   0.77820   0.00000  Uiso   1.00
O1444  O     0.25440   0.81944   0.76768   0.00000  Uiso   1.00
O1445  O     0.13800   0.73570   0.73607   0.00000  Uiso   1.00
O1446  O     0.20437   0.92193   0.71806   0.00000  Uiso   1.00
S1447  S     0.12609   0.95765   0.54256   0.00000  Uiso   1.00
S1448  S     0.30963   0.78251   0.51452   0.00000  Uiso   1.00
S1449  S     0.11985   0.82716   0.60345   0.00000  Uiso   1.00
S1450  S     0.26322   0.76103   0.60767   0.00000  Uiso   1.00
S1451  S     0.24818   0.73841   0.95233   0.00000  Uiso   1.00
S1452  S     0.25441   0.82180   0.90515   0.00000  Uiso   1.00
Zn1453 Zn    0.19244   0.80756   0.78278   0.00000  Uiso   1.00
Zn1454 Zn    0.13459   0.79044   0.72258   0.00000  Uiso   1.00
Zn1455 Zn    0.21166   0.86331   0.71188   0.00000  Uiso   1.00
Zn1456 Zn    0.12798   0.87202   0.78277   0.00000  Uiso   1.00
C1457  C     0.38573   0.82634   0.75906   0.00000  Uiso   1.00
C1458  C     0.55423   0.81435   0.95429   0.00000  Uiso   1.00
C1459  C     0.56844   0.78886   0.97559   0.00000  Uiso   1.00
C1460  C     0.61448   0.84054   0.74128   0.00000  Uiso   1.00
C1461  C     0.56063   0.79793   0.51720   0.00000  Uiso   1.00
C1462  C     0.52723   0.82261   0.53819   0.00000  Uiso   1.00
C1463  C     0.58646   0.78482   0.53826   0.00000  Uiso   1.00
C1464  C     0.57062   0.78521   0.58008   0.00000  Uiso   1.00
C1465  C     0.50877   0.81961   0.57944   0.00000  Uiso   1.00
C1466  C     0.66068   0.84430   0.73799   0.00000  Uiso   1.00
C1467  C     0.34049   0.82432   0.76201   0.00000  Uiso   1.00
C1468  C     0.45708   0.90423   0.91780   0.00000  Uiso   1.00
C1469  C     0.51397   0.98915   0.73994   0.00000  Uiso   1.00
C1470  C     0.48298   0.67883   0.76288   0.00000  Uiso   1.00
C1471  C     0.48973   0.72282   0.75838   0.00000  Uiso   1.00
C1472  C     0.51001   0.94440   0.74148   0.00000  Uiso   1.00
C1473  C     0.52109   0.81247   0.64374   0.00000  Uiso   1.00
C1474  C     0.47900   0.85468   0.85635   0.00000  Uiso   1.00
C1475  C     0.47504   0.86773   0.89879   0.00000  Uiso   1.00
C1476  C     0.53212   0.80324   0.60037   0.00000  Uiso   1.00
C1477  C     0.45825   0.91863   0.95656   0.00000  Uiso   1.00
C1478  C     0.35962   0.90830   0.72093   0.00000  Uiso   1.00
C1479  C     0.49355   0.84567   0.91930   0.00000  Uiso   1.00
C1480  C     0.42134   0.68752   0.81628   0.00000  Uiso   1.00
C1481  C     0.49947   0.86196   0.95650   0.00000  Uiso   1.00
C1482  C     0.47911   0.89776   0.97660   0.00000  Uiso   1.00
C1483  C     0.52266   0.84164   0.97524   0.00000  Uiso   1.00
C1484  C     0.51363   0.84914   0.51699   0.00000  Uiso   1.00
C1485  C     0.49626   0.88625   0.53596   0.00000  Uiso   1.00
C1486  C     0.48001   0.91120   0.51613   0.00000  Uiso   1.00
H1487  H     0.65118   0.80650   0.78457   0.00000  Uiso   1.00
H1488  H     0.66181   0.92069   0.72463   0.00000  Uiso   1.00
H1489  H     0.38478   0.92481   0.69781   0.00000  Uiso   1.00
H1490  H     0.40802   0.71082   0.80455   0.00000  Uiso   1.00
H1491  H     0.44250   0.70319   0.83499   0.00000  Uiso   1.00
H1492  H     0.39357   0.66934   0.83565   0.00000  Uiso   1.00
H1493  H     0.45164   0.86464   0.65961   0.00000  Uiso   1.00
H1494  H     0.57529   0.73121   0.66199   0.00000  Uiso   1.00
H1495  H     0.63763   0.71120   0.91338   0.00000  Uiso   1.00
H1496  H     0.58834   0.79424   0.84569   0.00000  Uiso   1.00
H1497  H     0.54312   0.67045   0.72024   0.00000  Uiso   1.00
H1498  H     0.44287   0.94628   0.97030   0.00000  Uiso   1.00
H1499  H     0.44241   0.92187   0.90262   0.00000  Uiso   1.00
H1500  H     0.50356   0.81562   0.90589   0.00000  Uiso   1.00
H1501  H     0.49645   0.89648   0.56630   0.00000  Uiso   1.00
H1502  H     0.45813   0.99369   0.59910   0.00000  Uiso   1.00
H1503  H     0.36938   0.80143   0.53046   0.00000  Uiso   1.00
H1504  H     0.36938   0.91544   0.74899   0.00000  Uiso   1.00
O1505  O     0.50000   0.83333   0.75000   0.00000  Uiso   1.00
O1506  O     0.49027   0.79060   0.66625   0.00000  Uiso   1.00
O1507  O     0.46020   0.87313   0.83749   0.00000  Uiso   1.00
O1508  O     0.54421   0.84159   0.65877   0.00000  Uiso   1.00
O1509  O     0.50532   0.82802   0.83749   0.00000  Uiso   1.00
O1510  O     0.48038   0.99373   0.51895   0.00000  Uiso   1.00
O1511  O     0.41131   0.95327   0.54863   0.00000  Uiso   1.00
O1512  O     0.46960   0.96689   0.58712   0.00000  Uiso   1.00
O1513  O     0.65192   0.73798   0.50186   0.00000  Uiso   1.00
O1514  O     0.65736   0.80636   0.97873   0.00000  Uiso   1.00
O1515  O     0.33891   0.80419   0.54579   0.00000  Uiso   1.00
O1516  O     0.51182   0.74768   0.77821   0.00000  Uiso   1.00
O1517  O     0.35721   0.86521   0.70827   0.00000  Uiso   1.00
O1518  O     0.44348   0.99318   0.78505   0.00000  Uiso   1.00
O1519  O     0.42878   0.82855   0.57374   0.00000  Uiso   1.00
O1520  O     0.43122   0.79160   0.62746   0.00000  Uiso   1.00
O1521  O     0.45045   0.87202   0.63383   0.00000  Uiso   1.00
O1522  O     0.62356   0.72859   0.58181   0.00000  Uiso   1.00
O1523  O     0.62484   0.79391   0.62579   0.00000  Uiso   1.00
O1524  O     0.55904   0.73758   0.64431   0.00000  Uiso   1.00
O1525  O     0.57307   0.70864   0.98312   0.00000  Uiso   1.00
O1526  O     0.55340   0.72247   0.92521   0.00000  Uiso   1.00
O1527  O     0.47914   0.92803   0.76767   0.00000  Uiso   1.00
O1528  O     0.63367   0.74023   0.92532   0.00000  Uiso   1.00
O1529  O     0.58546   0.86431   0.89475   0.00000  Uiso   1.00
O1530  O     0.63401   0.81835   0.90274   0.00000  Uiso   1.00
O1531  O     0.57217   0.78507   0.87201   0.00000  Uiso   1.00
O1532  O     0.40785   0.79917   0.73607   0.00000  Uiso   1.00
O1533  O     0.60119   0.85845   0.71806   0.00000  Uiso   1.00
O1534  O     0.40323   0.85627   0.77820   0.00000  Uiso   1.00
O1535  O     0.58773   0.81944   0.76768   0.00000  Uiso   1.00
O1536  O     0.47133   0.73570   0.73607   0.00000  Uiso   1.00
O1537  O     0.53771   0.92193   0.71806   0.00000  Uiso   1.00
S1538  S     0.45942   0.95765   0.54256   0.00000  Uiso   1.00
S1539  S     0.64296   0.78251   0.51452   0.00000  Uiso   1.00
S1540  S     0.45319   0.82716   0.60345   0.00000  Uiso   1.00
S1541  S     0.59655   0.76103   0.60767   0.00000  Uiso   1.00
S1542  S     0.58151   0.73841   0.95233   0.00000  Uiso   1.00
S1543  S     0.58775   0.82180   0.90515   0.00000  Uiso   1.00
Zn1544 Zn    0.52577   0.80756   0.78278   0.00000  Uiso   1.00
Zn1545 Zn    0.46792   0.79044   0.72258   0.00000  Uiso   1.00
Zn1546 Zn    0.54500   0.86331   0.71188   0.00000  Uiso   1.00
Zn1547 Zn    0.46131   0.87202   0.78277   0.00000  Uiso   1.00
C1548  C     0.71906   0.82634   0.75906   0.00000  Uiso   1.00
C1549  C     0.88757   0.81435   0.95429   0.00000  Uiso   1.00
C1550  C     0.90178   0.78886   0.97559   0.00000  Uiso   1.00
C1551  C     0.94781   0.84054   0.74128   0.00000  Uiso   1.00
C1552  C     0.89396   0.79793   0.51720   0.00000  Uiso   1.00
C1553  C     0.86056   0.82261   0.53819   0.00000  Uiso   1.00
C1554  C     0.91980   0.78482   0.53826   0.00000  Uiso   1.00
C1555  C     0.90395   0.78521   0.58008   0.00000  Uiso   1.00
C1556  C     0.84210   0.81961   0.57944   0.00000  Uiso   1.00
C1557  C     0.99402   0.84430   0.73799   0.00000  Uiso   1.00
C1558  C     0.67382   0.82432   0.76201   0.00000  Uiso   1.00
C1559  C     0.79042   0.90423   0.91780   0.00000  Uiso   1.00
C1560  C     0.84730   0.98915   0.73994   0.00000  Uiso   1.00
C1561  C     0.81632   0.67883   0.76288   0.00000  Uiso   1.00
C1562  C     0.82307   0.72282   0.75838   0.00000  Uiso   1.00
C1563  C     0.84335   0.94440   0.74148   0.00000  Uiso   1.00
C1564  C     0.85442   0.81247   0.64374   0.00000  Uiso   1.00
C1565  C     0.81234   0.85468   0.85635   0.00000  Uiso   1.00
C1566  C     0.80837   0.86773   0.89879   0.00000  Uiso   1.00
C1567  C     0.86545   0.80324   0.60037   0.00000  Uiso   1.00
C1568  C     0.79158   0.91863   0.95656   0.00000  Uiso   1.00
C1569  C     0.69295   0.90830   0.72093   0.00000  Uiso   1.00
C1570  C     0.82689   0.84567   0.91930   0.00000  Uiso   1.00
C1571  C     0.75467   0.68752   0.81628   0.00000  Uiso   1.00
C1572  C     0.83280   0.86196   0.95650   0.00000  Uiso   1.00
C1573  C     0.81245   0.89776   0.97660   0.00000  Uiso   1.00
C1574  C     0.85599   0.84164   0.97524   0.00000  Uiso   1.00
C1575  C     0.84696   0.84914   0.51699   0.00000  Uiso   1.00
C1576  C     0.82959   0.88625   0.53596   0.00000  Uiso   1.00
C1577  C     0.81334   0.91120   0.51613   0.00000  Uiso   1.00
H1578  H     0.98451   0.80650   0.78457   0.00000  Uiso   1.00
H1579  H     0.99515   0.92069   0.72463   0.00000  Uiso   1.00
H1580  H     0.71811   0.92481   0.69781   0.00000  Uiso   1.00
H1581  H     0.74136   0.71082   0.80455   0.00000  Uiso   1.00
H1582  H     0.77584   0.70319   0.83499   0.00000  Uiso   1.00
H1583  H     0.72691   0.66934   0.83565   0.00000  Uiso   1.00
H1584  H     0.78497   0.86464   0.65961   0.00000  Uiso   1.00
H1585  H     0.90862   0.73121   0.66199   0.00000  Uiso   1.00
H1586  H     0.97096   0.71120   0.91338   0.00000  Uiso   1.00
H1587  H     0.92168   0.79424   0.84569   0.00000  Uiso   1.00
H1588  H     0.87645   0.67045   0.72024   0.00000  Uiso   1.00
H1589  H     0.77620   0.94628   0.97030   0.00000  Uiso   1.00
H1590  H     0.77574   0.92187   0.90262   0.00000  Uiso   1.00
H1591  H     0.83689   0.81562   0.90589   0.00000  Uiso   1.00
H1592  H     0.82978   0.89648   0.56630   0.00000  Uiso   1.00
H1593  H     0.79146   0.99369   0.59910   0.00000  Uiso   1.00
H1594  H     0.70272   0.80143   0.53046   0.00000  Uiso   1.00
H1595  H     0.70272   0.91544   0.74899   0.00000  Uiso   1.00
O1596  O     0.83333   0.83333   0.75000   0.00000  Uiso   1.00
O1597  O     0.82360   0.79060   0.66625   0.00000  Uiso   1.00
O1598  O     0.79354   0.87313   0.83749   0.00000  Uiso   1.00
O1599  O     0.87755   0.84159   0.65877   0.00000  Uiso   1.00
O1600  O     0.83865   0.82802   0.83749   0.00000  Uiso   1.00
O1601  O     0.81371   0.99373   0.51895   0.00000  Uiso   1.00
O1602  O     0.74464   0.95327   0.54863   0.00000  Uiso   1.00
O1603  O     0.80293   0.96689   0.58712   0.00000  Uiso   1.00
O1604  O     0.98526   0.73798   0.50186   0.00000  Uiso   1.00
O1605  O     0.99070   0.80636   0.97873   0.00000  Uiso   1.00
O1606  O     0.67224   0.80419   0.54579   0.00000  Uiso   1.00
O1607  O     0.84515   0.74768   0.77821   0.00000  Uiso   1.00
O1608  O     0.69055   0.86521   0.70827   0.00000  Uiso   1.00
O1609  O     0.77681   0.99318   0.78505   0.00000  Uiso   1.00
O1610  O     0.76211   0.82855   0.57374   0.00000  Uiso   1.00
O1611  O     0.76456   0.79160   0.62746   0.00000  Uiso   1.00
O1612  O     0.78378   0.87202   0.63383   0.00000  Uiso   1.00
O1613  O     0.95690   0.72859   0.58181   0.00000  Uiso   1.00
O1614  O     0.95817   0.79391   0.62579   0.00000  Uiso   1.00
O1615  O     0.89238   0.73758   0.64431   0.00000  Uiso   1.00
O1616  O     0.90640   0.70864   0.98312   0.00000  Uiso   1.00
O1617  O     0.88673   0.72247   0.92521   0.00000  Uiso   1.00
O1618  O     0.81247   0.92803   0.76767   0.00000  Uiso   1.00
O1619  O     0.96700   0.74023   0.92532   0.00000  Uiso   1.00
O1620  O     0.91879   0.86431   0.89475   0.00000  Uiso   1.00
O1621  O     0.96734   0.81835   0.90274   0.00000  Uiso   1.00
O1622  O     0.90551   0.78507   0.87201   0.00000  Uiso   1.00
O1623  O     0.74119   0.79917   0.73607   0.00000  Uiso   1.00
O1624  O     0.93452   0.85845   0.71806   0.00000  Uiso   1.00
O1625  O     0.73656   0.85627   0.77820   0.00000  Uiso   1.00
O1626  O     0.92106   0.81944   0.76768   0.00000  Uiso   1.00
O1627  O     0.80467   0.73570   0.73607   0.00000  Uiso   1.00
O1628  O     0.87104   0.92193   0.71806   0.00000  Uiso   1.00
S1629  S     0.79275   0.95765   0.54256   0.00000  Uiso   1.00
S1630  S     0.97630   0.78251   0.51452   0.00000  Uiso   1.00
S1631  S     0.78652   0.82716   0.60345   0.00000  Uiso   1.00
S1632  S     0.92988   0.76103   0.60767   0.00000  Uiso   1.00
S1633  S     0.91484   0.73841   0.95233   0.00000  Uiso   1.00
S1634  S     0.92108   0.82180   0.90515   0.00000  Uiso   1.00
Zn1635 Zn    0.85910   0.80756   0.78278   0.00000  Uiso   1.00
Zn1636 Zn    0.80125   0.79044   0.72258   0.00000  Uiso   1.00
Zn1637 Zn    0.87833   0.86331   0.71188   0.00000  Uiso   1.00
Zn1638 Zn    0.79465   0.87202   0.78277   0.00000  Uiso   1.00
loop_
_geom_bond_atom_site_label_1
_geom_bond_atom_site_label_2
_geom_bond_distance
_geom_bond_site_symmetry_2
_ccdc_geom_bond_type
C1     C11     1.436   .     S
C1     O78     1.267   .     A
C1     O76     1.266   .     A
C2     C27     1.426   .     A
C2     S87     1.790   .     S
C2     C3      1.407   .     A
C3     S86     1.783   .     S
C3     C824    1.414   .     S
C4     O79     1.278   .     A
C4     C10     1.461   .     S
C4     O77     1.277   .     A
C5     C6      1.412   .     A
C5     C7      1.420   .     A
C5     C822    1.414   1_554 S
C6     C28     1.418   .     A
C6     C9      1.419   .     A
C7     S83     1.790   .     S
C7     C8      1.417   .     A
C8     S85     1.789   .     S
C8     C20     1.414   .     A
C9     C20     1.408   .     A
C9     S84     1.794   .     S
C10    C102    1.339   .     S
C10    O152    1.387   .     S
C11    C192    1.339   1_455 S
C11    H213    1.086   1_455 S
C12    H43     1.083   .     S
C12    C21     1.395   .     A
C12    C19     1.399   .     A
C13    C16     1.454   .     S
C13    C287    1.344   .     S
C13    H314    1.088   .     S
C14    C15     1.444   .     S
C14    C559    1.344   1_545 S
C14    O608    1.399   1_545 S
C15    O60     1.274   .     A
C15    O80     1.269   .     A
C16    O71     1.260   .     A
C16    O81     1.272   .     A
C17    C20     1.467   .     S
C17    O52     1.275   .     A
C17    O50     1.276   .     A
C18    C19     1.474   .     S
C18    O53     1.286   .     A
C18    O51     1.285   .     A
C19    C23     1.397   .     A
C21    C26     1.412   .     A
C21    H42     1.080   .     S
C22    H48     1.113   .     S
C22    H33     1.109   .     S
C22    O61     1.410   .     S
C22    H214    1.112   1_455 S
C23    H44     1.078   .     S
C23    C25     1.404   .     A
C24    H36     1.109   .     S
C24    H35     1.113   .     S
C24    H34     1.112   .     S
C24    O608    1.412   1_545 S
C25    C26     1.422   .     A
C25    C27     1.423   .     A
C26    C849    1.413   .     S
C27    C847    1.412   .     S
C28    C29     1.408   .     A
C28    C846    1.412   1_554 S
C29    H45     1.079   .     S
C29    C30     1.397   .     A
C30    S82     1.774   .     S
C30    C845    1.413   1_554 S
H31    C102    1.086   .     S
H32    C113    1.112   .     S
H37    O65     0.990   .     S
H38    O68     0.991   .     S
H39    O72     0.990   .     S
H40    O75     0.990   .     S
H41    C559    1.088   1_545 S
H46    O56     0.991   .     S
H47    O59     0.990   .     S
O49    Zn90    1.926   .     S
O49    Zn88    1.957   .     S
O49    Zn91    1.928   .     S
O49    Zn89    1.937   .     S
O50    Zn89    1.912   .     S
O51    Zn91    1.923   .     S
O52    Zn90    1.918   .     S
O53    Zn88    1.908   .     S
O54    S82     1.503   .     D
O55    S82     1.503   .     D
O56    S82     1.683   .     S
O57    S83     1.503   .     D
O58    S902    1.503   .     S
O59    S265    1.681   1_455 S
O60    Zn88    1.933   .     S
O61    C192    1.387   1_455 S
O62    C287    1.399   .     S
O62    C297    1.412   .     S
O63    S84     1.503   .     D
O64    S84     1.503   .     D
O65    S84     1.683   .     S
O66    S85     1.502   .     D
O67    S85     1.503   .     D
O68    S85     1.683   .     S
O69    S86     1.503   .     D
O70    S86     1.503   .     D
O71    Zn91    1.935   .     S
O72    S86     1.681   .     S
O73    S87     1.504   .     D
O74    S87     1.503   .     D
O75    S87     1.682   .     S
O76    Zn89    1.925   .     S
O77    Zn90    1.936   .     S
O78    Zn91    1.930   .     S
O79    Zn88    1.920   .     S
O80    Zn89    1.942   .     S
O81    Zn90    1.936   .     S
S83    O150    1.681   .     S
S83    O877    1.503   1_554 S
C92    C102    1.436   .     S
C92    O169    1.267   .     A
C92    O167    1.266   .     A
C93    C118    1.426   .     A
C93    S178    1.790   .     S
C93    C94     1.407   .     A
C94    S177    1.783   .     S
C94    C915    1.414   .     S
C95    O170    1.278   .     A
C95    C101    1.461   .     S
C95    O168    1.277   .     A
C96    C97     1.412   .     A
C96    C98     1.420   .     A
C96    C913    1.414   1_554 S
C97    C119    1.418   .     A
C97    C100    1.419   .     A
C98    S174    1.790   .     S
C98    C99     1.417   .     A
C99    S176    1.789   .     S
C99    C111    1.414   .     A
C100   C111    1.408   .     A
C100   S175    1.794   .     S
C101   C193    1.339   .     S
C101   O243    1.387   .     S
C103   H134    1.083   .     S
C103   C112    1.395   .     A
C103   C110    1.399   .     A
C104   C107    1.454   .     S
C104   C378    1.344   .     S
C104   H405    1.088   .     S
C105   C106    1.444   .     S
C105   C650    1.344   1_545 S
C105   O699    1.399   1_545 S
C106   O151    1.274   .     A
C106   O171    1.269   .     A
C107   O162    1.260   .     A
C107   O172    1.272   .     A
C108   C111    1.467   .     S
C108   O143    1.275   .     A
C108   O141    1.276   .     A
C109   C110    1.474   .     S
C109   O144    1.286   .     A
C109   O142    1.285   .     A
C110   C114    1.397   .     A
C112   C117    1.412   .     A
C112   H133    1.080   .     S
C113   H139    1.113   .     S
C113   H124    1.109   .     S
C113   O152    1.410   .     S
C114   H135    1.078   .     S
C114   C116    1.404   .     A
C115   H127    1.109   .     S
C115   H126    1.113   .     S
C115   H125    1.112   .     S
C115   O699    1.412   1_545 S
C116   C117    1.422   .     A
C116   C118    1.423   .     A
C117   C940    1.413   .     S
C118   C938    1.412   .     S
C119   C120    1.408   .     A
C119   C937    1.412   1_554 S
C120   H136    1.079   .     S
C120   C121    1.397   .     A
C121   S173    1.774   .     S
C121   C936    1.413   1_554 S
H122   C193    1.086   .     S
H123   C204    1.112   .     S
H128   O156    0.990   .     S
H129   O159    0.991   .     S
H130   O163    0.990   .     S
H131   O166    0.990   .     S
H132   C650    1.088   1_545 S
H137   O147    0.991   .     S
H138   O150    0.990   .     S
O140   Zn181   1.926   .     S
O140   Zn179   1.957   .     S
O140   Zn182   1.928   .     S
O140   Zn180   1.937   .     S
O141   Zn180   1.912   .     S
O142   Zn182   1.923   .     S
O143   Zn181   1.918   .     S
O144   Zn179   1.908   .     S
O145   S173    1.503   .     D
O146   S173    1.503   .     D
O147   S173    1.683   .     S
O148   S174    1.503   .     D
O149   S993    1.503   .     S
O151   Zn179   1.933   .     S
O153   C378    1.399   .     S
O153   C388    1.412   .     S
O154   S175    1.503   .     D
O155   S175    1.503   .     D
O156   S175    1.683   .     S
O157   S176    1.502   .     D
O158   S176    1.503   .     D
O159   S176    1.683   .     S
O160   S177    1.503   .     D
O161   S177    1.503   .     D
O162   Zn182   1.935   .     S
O163   S177    1.681   .     S
O164   S178    1.504   .     D
O165   S178    1.503   .     D
O166   S178    1.682   .     S
O167   Zn180   1.925   .     S
O168   Zn181   1.936   .     S
O169   Zn182   1.930   .     S
O170   Zn179   1.920   .     S
O171   Zn180   1.942   .     S
O172   Zn181   1.936   .     S
S174   O241    1.681   .     S
S174   O968    1.503   1_554 S
C183   C193    1.436   .     S
C183   O260    1.267   .     A
C183   O258    1.266   .     A
C184   C209    1.426   .     A
C184   S269    1.790   .     S
C184   C185    1.407   .     A
C185   S268    1.783   .     S
C185   C1006   1.414   .     S
C186   O261    1.278   .     A
C186   C192    1.461   .     S
C186   O259    1.277   .     A
C187   C188    1.412   .     A
C187   C189    1.420   .     A
C187   C1004   1.414   1_554 S
C188   C210    1.418   .     A
C188   C191    1.419   .     A
C189   S265    1.790   .     S
C189   C190    1.417   .     A
C190   S267    1.789   .     S
C190   C202    1.414   .     A
C191   C202    1.408   .     A
C191   S266    1.794   .     S
C192   C11     1.339   1_655 S
C192   O61     1.387   1_655 S
C194   H225    1.083   .     S
C194   C203    1.395   .     A
C194   C201    1.399   .     A
C195   C198    1.454   .     S
C195   C469    1.344   .     S
C195   H496    1.088   .     S
C196   C197    1.444   .     S
C196   C741    1.344   1_545 S
C196   O790    1.399   1_545 S
C197   O242    1.274   .     A
C197   O262    1.269   .     A
C198   O253    1.260   .     A
C198   O263    1.272   .     A
C199   C202    1.467   .     S
C199   O234    1.275   .     A
C199   O232    1.276   .     A
C200   C201    1.474   .     S
C200   O235    1.286   .     A
C200   O233    1.285   .     A
C201   C205    1.397   .     A
C203   C208    1.412   .     A
C203   H224    1.080   .     S
C204   H230    1.113   .     S
C204   H215    1.109   .     S
C204   O243    1.410   .     S
C205   H226    1.078   .     S
C205   C207    1.404   .     A
C206   H218    1.109   .     S
C206   H217    1.113   .     S
C206   H216    1.112   .     S
C206   O790    1.412   1_545 S
C207   C208    1.422   .     A
C207   C209    1.423   .     A
C208   C1031   1.413   .     S
C209   C1029   1.412   .     S
C210   C211    1.408   .     A
C210   C1028   1.412   1_554 S
C211   H227    1.079   .     S
C211   C212    1.397   .     A
C212   S264    1.774   .     S
C212   C1027   1.413   1_554 S
H213   C11     1.086   1_655 S
H214   C22     1.112   1_655 S
H219   O247    0.990   .     S
H220   O250    0.991   .     S
H221   O254    0.990   .     S
H222   O257    0.990   .     S
H223   C741    1.088   1_545 S
H228   O238    0.991   .     S
H229   O241    0.990   .     S
O231   Zn272   1.926   .     S
O231   Zn270   1.957   .     S
O231   Zn273   1.928   .     S
O231   Zn271   1.937   .     S
O232   Zn271   1.912   .     S
O233   Zn273   1.923   .     S
O234   Zn272   1.918   .     S
O235   Zn270   1.908   .     S
O236   S264    1.503   .     D
O237   S264    1.503   .     D
O238   S264    1.683   .     S
O239   S265    1.503   .     D
O240   S1084   1.503   .     S
O242   Zn270   1.933   .     S
O244   C469    1.399   .     S
O244   C479    1.412   .     S
O245   S266    1.503   .     D
O246   S266    1.503   .     D
O247   S266    1.683   .     S
O248   S267    1.502   .     D
O249   S267    1.503   .     D
O250   S267    1.683   .     S
O251   S268    1.503   .     D
O252   S268    1.503   .     D
O253   Zn273   1.935   .     S
O254   S268    1.681   .     S
O255   S269    1.504   .     D
O256   S269    1.503   .     D
O257   S269    1.682   .     S
O258   Zn271   1.925   .     S
O259   Zn272   1.936   .     S
O260   Zn273   1.930   .     S
O261   Zn270   1.920   .     S
O262   Zn271   1.942   .     S
O263   Zn272   1.936   .     S
S265   O59     1.681   1_655 S
S265   O1059   1.503   1_554 S
C274   C284    1.436   .     S
C274   O351    1.267   .     A
C274   O349    1.266   .     A
C275   C300    1.426   .     A
C275   S360    1.790   .     S
C275   C276    1.407   .     A
C276   S359    1.783   .     S
C276   C1097   1.414   .     S
C277   O352    1.278   .     A
C277   C283    1.461   .     S
C277   O350    1.277   .     A
C278   C279    1.412   .     A
C278   C280    1.420   .     A
C278   C1095   1.414   1_554 S
C279   C301    1.418   .     A
C279   C282    1.419   .     A
C280   S356    1.790   .     S
C280   C281    1.417   .     A
C281   S358    1.789   .     S
C281   C293    1.414   .     A
C282   C293    1.408   .     A
C282   S357    1.794   .     S
C283   C375    1.339   .     S
C283   O425    1.387   .     S
C284   C465    1.339   1_455 S
C284   H486    1.086   1_455 S
C285   H316    1.083   .     S
C285   C294    1.395   .     A
C285   C292    1.399   .     A
C286   C289    1.454   .     S
C286   C560    1.344   .     S
C286   H587    1.088   .     S
C287   C288    1.444   .     S
C288   O333    1.274   .     A
C288   O353    1.269   .     A
C289   O344    1.260   .     A
C289   O354    1.272   .     A
C290   C293    1.467   .     S
C290   O325    1.275   .     A
C290   O323    1.276   .     A
C291   C292    1.474   .     S
C291   O326    1.286   .     A
C291   O324    1.285   .     A
C292   C296    1.397   .     A
C294   C299    1.412   .     A
C294   H315    1.080   .     S
C295   H321    1.113   .     S
C295   H306    1.109   .     S
C295   O334    1.410   .     S
C295   H487    1.112   1_455 S
C296   H317    1.078   .     S
C296   C298    1.404   .     A
C297   H309    1.109   .     S
C297   H308    1.113   .     S
C297   H307    1.112   .     S
C298   C299    1.422   .     A
C298   C300    1.423   .     A
C299   C1122   1.413   .     S
C300   C1120   1.412   .     S
C301   C302    1.408   .     A
C301   C1119   1.412   1_554 S
C302   H318    1.079   .     S
C302   C303    1.397   .     A
C303   S355    1.774   .     S
C303   C1118   1.413   1_554 S
H304   C375    1.086   .     S
H305   C386    1.112   .     S
H310   O338    0.990   .     S
H311   O341    0.991   .     S
H312   O345    0.990   .     S
H313   O348    0.990   .     S
H319   O329    0.991   .     S
H320   O332    0.990   .     S
O322   Zn363   1.926   .     S
O322   Zn361   1.957   .     S
O322   Zn364   1.928   .     S
O322   Zn362   1.937   .     S
O323   Zn362   1.912   .     S
O324   Zn364   1.923   .     S
O325   Zn363   1.918   .     S
O326   Zn361   1.908   .     S
O327   S355    1.503   .     D
O328   S355    1.503   .     D
O329   S355    1.683   .     S
O330   S356    1.503   .     D
O331   S1175   1.503   .     S
O332   S538    1.681   1_455 S
O333   Zn361   1.933   .     S
O334   C465    1.387   1_455 S
O335   C560    1.399   .     S
O335   C570    1.412   .     S
O336   S357    1.503   .     D
O337   S357    1.503   .     D
O338   S357    1.683   .     S
O339   S358    1.502   .     D
O340   S358    1.503   .     D
O341   S358    1.683   .     S
O342   S359    1.503   .     D
O343   S359    1.503   .     D
O344   Zn364   1.935   .     S
O345   S359    1.681   .     S
O346   S360    1.504   .     D
O347   S360    1.503   .     D
O348   S360    1.682   .     S
O349   Zn362   1.925   .     S
O350   Zn363   1.936   .     S
O351   Zn364   1.930   .     S
O352   Zn361   1.920   .     S
O353   Zn362   1.942   .     S
O354   Zn363   1.936   .     S
S356   O423    1.681   .     S
S356   O1150   1.503   1_554 S
C365   C375    1.436   .     S
C365   O442    1.267   .     A
C365   O440    1.266   .     A
C366   C391    1.426   .     A
C366   S451    1.790   .     S
C366   C367    1.407   .     A
C367   S450    1.783   .     S
C367   C1188   1.414   .     S
C368   O443    1.278   .     A
C368   C374    1.461   .     S
C368   O441    1.277   .     A
C369   C370    1.412   .     A
C369   C371    1.420   .     A
C369   C1186   1.414   1_554 S
C370   C392    1.418   .     A
C370   C373    1.419   .     A
C371   S447    1.790   .     S
C371   C372    1.417   .     A
C372   S449    1.789   .     S
C372   C384    1.414   .     A
C373   C384    1.408   .     A
C373   S448    1.794   .     S
C374   C466    1.339   .     S
C374   O516    1.387   .     S
C376   H407    1.083   .     S
C376   C385    1.395   .     A
C376   C383    1.399   .     A
C377   C380    1.454   .     S
C377   C651    1.344   .     S
C377   H678    1.088   .     S
C378   C379    1.444   .     S
C379   O424    1.274   .     A
C379   O444    1.269   .     A
C380   O435    1.260   .     A
C380   O445    1.272   .     A
C381   C384    1.467   .     S
C381   O416    1.275   .     A
C381   O414    1.276   .     A
C382   C383    1.474   .     S
C382   O417    1.286   .     A
C382   O415    1.285   .     A
C383   C387    1.397   .     A
C385   C390    1.412   .     A
C385   H406    1.080   .     S
C386   H412    1.113   .     S
C386   H397    1.109   .     S
C386   O425    1.410   .     S
C387   H408    1.078   .     S
C387   C389    1.404   .     A
C388   H400    1.109   .     S
C388   H399    1.113   .     S
C388   H398    1.112   .     S
C389   C390    1.422   .     A
C389   C391    1.423   .     A
C390   C1213   1.413   .     S
C391   C1211   1.412   .     S
C392   C393    1.408   .     A
C392   C1210   1.412   1_554 S
C393   H409    1.079   .     S
C393   C394    1.397   .     A
C394   S446    1.774   .     S
C394   C1209   1.413   1_554 S
H395   C466    1.086   .     S
H396   C477    1.112   .     S
H401   O429    0.990   .     S
H402   O432    0.991   .     S
H403   O436    0.990   .     S
H404   O439    0.990   .     S
H410   O420    0.991   .     S
H411   O423    0.990   .     S
O413   Zn454   1.926   .     S
O413   Zn452   1.957   .     S
O413   Zn455   1.928   .     S
O413   Zn453   1.937   .     S
O414   Zn453   1.912   .     S
O415   Zn455   1.923   .     S
O416   Zn454   1.918   .     S
O417   Zn452   1.908   .     S
O418   S446    1.503   .     D
O419   S446    1.503   .     D
O420   S446    1.683   .     S
O421   S447    1.503   .     D
O422   S1266   1.503   .     S
O424   Zn452   1.933   .     S
O426   C651    1.399   .     S
O426   C661    1.412   .     S
O427   S448    1.503   .     D
O428   S448    1.503   .     D
O429   S448    1.683   .     S
O430   S449    1.502   .     D
O431   S449    1.503   .     D
O432   S449    1.683   .     S
O433   S450    1.503   .     D
O434   S450    1.503   .     D
O435   Zn455   1.935   .     S
O436   S450    1.681   .     S
O437   S451    1.504   .     D
O438   S451    1.503   .     D
O439   S451    1.682   .     S
O440   Zn453   1.925   .     S
O441   Zn454   1.936   .     S
O442   Zn455   1.930   .     S
O443   Zn452   1.920   .     S
O444   Zn453   1.942   .     S
O445   Zn454   1.936   .     S
S447   O514    1.681   .     S
S447   O1241   1.503   1_554 S
C456   C466    1.436   .     S
C456   O533    1.267   .     A
C456   O531    1.266   .     A
C457   C482    1.426   .     A
C457   S542    1.790   .     S
C457   C458    1.407   .     A
C458   S541    1.783   .     S
C458   C1279   1.414   .     S
C459   O534    1.278   .     A
C459   C465    1.461   .     S
C459   O532    1.277   .     A
C460   C461    1.412   .     A
C460   C462    1.420   .     A
C460   C1277   1.414   1_554 S
C461   C483    1.418   .     A
C461   C464    1.419   .     A
C462   S538    1.790   .     S
C462   C463    1.417   .     A
C463   S540    1.789   .     S
C463   C475    1.414   .     A
C464   C475    1.408   .     A
C464   S539    1.794   .     S
C465   C284    1.339   1_655 S
C465   O334    1.387   1_655 S
C467   H498    1.083   .     S
C467   C476    1.395   .     A
C467   C474    1.399   .     A
C468   C471    1.454   .     S
C468   C742    1.344   .     S
C468   H769    1.088   .     S
C469   C470    1.444   .     S
C470   O515    1.274   .     A
C470   O535    1.269   .     A
C471   O526    1.260   .     A
C471   O536    1.272   .     A
C472   C475    1.467   .     S
C472   O507    1.275   .     A
C472   O505    1.276   .     A
C473   C474    1.474   .     S
C473   O508    1.286   .     A
C473   O506    1.285   .     A
C474   C478    1.397   .     A
C476   C481    1.412   .     A
C476   H497    1.080   .     S
C477   H503    1.113   .     S
C477   H488    1.109   .     S
C477   O516    1.410   .     S
C478   H499    1.078   .     S
C478   C480    1.404   .     A
C479   H491    1.109   .     S
C479   H490    1.113   .     S
C479   H489    1.112   .     S
C480   C481    1.422   .     A
C480   C482    1.423   .     A
C481   C1304   1.413   .     S
C482   C1302   1.412   .     S
C483   C484    1.408   .     A
C483   C1301   1.412   1_554 S
C484   H500    1.079   .     S
C484   C485    1.397   .     A
C485   S537    1.774   .     S
C485   C1300   1.413   1_554 S
H486   C284    1.086   1_655 S
H487   C295    1.112   1_655 S
H492   O520    0.990   .     S
H493   O523    0.991   .     S
H494   O527    0.990   .     S
H495   O530    0.990   .     S
H501   O511    0.991   .     S
H502   O514    0.990   .     S
O504   Zn545   1.926   .     S
O504   Zn543   1.957   .     S
O504   Zn546   1.928   .     S
O504   Zn544   1.937   .     S
O505   Zn544   1.912   .     S
O506   Zn546   1.923   .     S
O507   Zn545   1.918   .     S
O508   Zn543   1.908   .     S
O509   S537    1.503   .     D
O510   S537    1.503   .     D
O511   S537    1.683   .     S
O512   S538    1.503   .     D
O513   S1357   1.503   .     S
O515   Zn543   1.933   .     S
O517   C742    1.399   .     S
O517   C752    1.412   .     S
O518   S539    1.503   .     D
O519   S539    1.503   .     D
O520   S539    1.683   .     S
O521   S540    1.502   .     D
O522   S540    1.503   .     D
O523   S540    1.683   .     S
O524   S541    1.503   .     D
O525   S541    1.503   .     D
O526   Zn546   1.935   .     S
O527   S541    1.681   .     S
O528   S542    1.504   .     D
O529   S542    1.503   .     D
O530   S542    1.682   .     S
O531   Zn544   1.925   .     S
O532   Zn545   1.936   .     S
O533   Zn546   1.930   .     S
O534   Zn543   1.920   .     S
O535   Zn544   1.942   .     S
O536   Zn545   1.936   .     S
S538   O332    1.681   1_655 S
S538   O1332   1.503   1_554 S
C547   C557    1.436   .     S
C547   O624    1.267   .     A
C547   O622    1.266   .     A
C548   C573    1.426   .     A
C548   S633    1.790   .     S
C548   C549    1.407   .     A
C549   S632    1.783   .     S
C549   C1370   1.414   .     S
C550   O625    1.278   .     A
C550   C556    1.461   .     S
C550   O623    1.277   .     A
C551   C552    1.412   .     A
C551   C553    1.420   .     A
C551   C1368   1.414   1_554 S
C552   C574    1.418   .     A
C552   C555    1.419   .     A
C553   S629    1.790   .     S
C553   C554    1.417   .     A
C554   S631    1.789   .     S
C554   C566    1.414   .     A
C555   C566    1.408   .     A
C555   S630    1.794   .     S
C556   C648    1.339   .     S
C556   O698    1.387   .     S
C557   C738    1.339   1_455 S
C557   H759    1.086   1_455 S
C558   H589    1.083   .     S
C558   C567    1.395   .     A
C558   C565    1.399   .     A
C559   C562    1.454   .     S
C559   C14     1.344   1_565 S
C559   H41     1.088   1_565 S
C560   C561    1.444   .     S
C561   O606    1.274   .     A
C561   O626    1.269   .     A
C562   O617    1.260   .     A
C562   O627    1.272   .     A
C563   C566    1.467   .     S
C563   O598    1.275   .     A
C563   O596    1.276   .     A
C564   C565    1.474   .     S
C564   O599    1.286   .     A
C564   O597    1.285   .     A
C565   C569    1.397   .     A
C567   C572    1.412   .     A
C567   H588    1.080   .     S
C568   H594    1.113   .     S
C568   H579    1.109   .     S
C568   O607    1.410   .     S
C568   H760    1.112   1_455 S
C569   H590    1.078   .     S
C569   C571    1.404   .     A
C570   H582    1.109   .     S
C570   H581    1.113   .     S
C570   H580    1.112   .     S
C571   C572    1.422   .     A
C571   C573    1.423   .     A
C572   C1395   1.413   .     S
C573   C1393   1.412   .     S
C574   C575    1.408   .     A
C574   C1392   1.412   1_554 S
C575   H591    1.079   .     S
C575   C576    1.397   .     A
C576   S628    1.774   .     S
C576   C1391   1.413   1_554 S
H577   C648    1.086   .     S
H578   C659    1.112   .     S
H583   O611    0.990   .     S
H584   O614    0.991   .     S
H585   O618    0.990   .     S
H586   O621    0.990   .     S
H592   O602    0.991   .     S
H593   O605    0.990   .     S
O595   Zn636   1.926   .     S
O595   Zn634   1.957   .     S
O595   Zn637   1.928   .     S
O595   Zn635   1.937   .     S
O596   Zn635   1.912   .     S
O597   Zn637   1.923   .     S
O598   Zn636   1.918   .     S
O599   Zn634   1.908   .     S
O600   S628    1.503   .     D
O601   S628    1.503   .     D
O602   S628    1.683   .     S
O603   S629    1.503   .     D
O604   S1448   1.503   .     S
O605   S811    1.681   1_455 S
O606   Zn634   1.933   .     S
O607   C738    1.387   1_455 S
O608   C14     1.399   1_565 S
O608   C24     1.412   1_565 S
O609   S630    1.503   .     D
O610   S630    1.503   .     D
O611   S630    1.683   .     S
O612   S631    1.502   .     D
O613   S631    1.503   .     D
O614   S631    1.683   .     S
O615   S632    1.503   .     D
O616   S632    1.503   .     D
O617   Zn637   1.935   .     S
O618   S632    1.681   .     S
O619   S633    1.504   .     D
O620   S633    1.503   .     D
O621   S633    1.682   .     S
O622   Zn635   1.925   .     S
O623   Zn636   1.936   .     S
O624   Zn637   1.930   .     S
O625   Zn634   1.920   .     S
O626   Zn635   1.942   .     S
O627   Zn636   1.936   .     S
S629   O696    1.681   .     S
S629   O1423   1.503   1_554 S
C638   C648    1.436   .     S
C638   O715    1.267   .     A
C638   O713    1.266   .     A
C639   C664    1.426   .     A
C639   S724    1.790   .     S
C639   C640    1.407   .     A
C640   S723    1.783   .     S
C640   C1461   1.414   .     S
C641   O716    1.278   .     A
C641   C647    1.461   .     S
C641   O714    1.277   .     A
C642   C643    1.412   .     A
C642   C644    1.420   .     A
C642   C1459   1.414   1_554 S
C643   C665    1.418   .     A
C643   C646    1.419   .     A
C644   S720    1.790   .     S
C644   C645    1.417   .     A
C645   S722    1.789   .     S
C645   C657    1.414   .     A
C646   C657    1.408   .     A
C646   S721    1.794   .     S
C647   C739    1.339   .     S
C647   O789    1.387   .     S
C649   H680    1.083   .     S
C649   C658    1.395   .     A
C649   C656    1.399   .     A
C650   C653    1.454   .     S
C650   C105    1.344   1_565 S
C650   H132    1.088   1_565 S
C651   C652    1.444   .     S
C652   O697    1.274   .     A
C652   O717    1.269   .     A
C653   O708    1.260   .     A
C653   O718    1.272   .     A
C654   C657    1.467   .     S
C654   O689    1.275   .     A
C654   O687    1.276   .     A
C655   C656    1.474   .     S
C655   O690    1.286   .     A
C655   O688    1.285   .     A
C656   C660    1.397   .     A
C658   C663    1.412   .     A
C658   H679    1.080   .     S
C659   H685    1.113   .     S
C659   H670    1.109   .     S
C659   O698    1.410   .     S
C660   H681    1.078   .     S
C660   C662    1.404   .     A
C661   H673    1.109   .     S
C661   H672    1.113   .     S
C661   H671    1.112   .     S
C662   C663    1.422   .     A
C662   C664    1.423   .     A
C663   C1486   1.413   .     S
C664   C1484   1.412   .     S
C665   C666    1.408   .     A
C665   C1483   1.412   1_554 S
C666   H682    1.079   .     S
C666   C667    1.397   .     A
C667   S719    1.774   .     S
C667   C1482   1.413   1_554 S
H668   C739    1.086   .     S
H669   C750    1.112   .     S
H674   O702    0.990   .     S
H675   O705    0.991   .     S
H676   O709    0.990   .     S
H677   O712    0.990   .     S
H683   O693    0.991   .     S
H684   O696    0.990   .     S
O686   Zn727   1.926   .     S
O686   Zn725   1.957   .     S
O686   Zn728   1.928   .     S
O686   Zn726   1.937   .     S
O687   Zn726   1.912   .     S
O688   Zn728   1.923   .     S
O689   Zn727   1.918   .     S
O690   Zn725   1.908   .     S
O691   S719    1.503   .     D
O692   S719    1.503   .     D
O693   S719    1.683   .     S
O694   S720    1.503   .     D
O695   S1539   1.503   .     S
O697   Zn725   1.933   .     S
O699   C105    1.399   1_565 S
O699   C115    1.412   1_565 S
O700   S721    1.503   .     D
O701   S721    1.503   .     D
O702   S721    1.683   .     S
O703   S722    1.502   .     D
O704   S722    1.503   .     D
O705   S722    1.683   .     S
O706   S723    1.503   .     D
O707   S723    1.503   .     D
O708   Zn728   1.935   .     S
O709   S723    1.681   .     S
O710   S724    1.504   .     D
O711   S724    1.503   .     D
O712   S724    1.682   .     S
O713   Zn726   1.925   .     S
O714   Zn727   1.936   .     S
O715   Zn728   1.930   .     S
O716   Zn725   1.920   .     S
O717   Zn726   1.942   .     S
O718   Zn727   1.936   .     S
S720   O787    1.681   .     S
S720   O1514   1.503   1_554 S
C729   C739    1.436   .     S
C729   O806    1.267   .     A
C729   O804    1.266   .     A
C730   C755    1.426   .     A
C730   S815    1.790   .     S
C730   C731    1.407   .     A
C731   S814    1.783   .     S
C731   C1552   1.414   .     S
C732   O807    1.278   .     A
C732   C738    1.461   .     S
C732   O805    1.277   .     A
C733   C734    1.412   .     A
C733   C735    1.420   .     A
C733   C1550   1.414   1_554 S
C734   C756    1.418   .     A
C734   C737    1.419   .     A
C735   S811    1.790   .     S
C735   C736    1.417   .     A
C736   S813    1.789   .     S
C736   C748    1.414   .     A
C737   C748    1.408   .     A
C737   S812    1.794   .     S
C738   C557    1.339   1_655 S
C738   O607    1.387   1_655 S
C740   H771    1.083   .     S
C740   C749    1.395   .     A
C740   C747    1.399   .     A
C741   C744    1.454   .     S
C741   C196    1.344   1_565 S
C741   H223    1.088   1_565 S
C742   C743    1.444   .     S
C743   O788    1.274   .     A
C743   O808    1.269   .     A
C744   O799    1.260   .     A
C744   O809    1.272   .     A
C745   C748    1.467   .     S
C745   O780    1.275   .     A
C745   O778    1.276   .     A
C746   C747    1.474   .     S
C746   O781    1.286   .     A
C746   O779    1.285   .     A
C747   C751    1.397   .     A
C749   C754    1.412   .     A
C749   H770    1.080   .     S
C750   H776    1.113   .     S
C750   H761    1.109   .     S
C750   O789    1.410   .     S
C751   H772    1.078   .     S
C751   C753    1.404   .     A
C752   H764    1.109   .     S
C752   H763    1.113   .     S
C752   H762    1.112   .     S
C753   C754    1.422   .     A
C753   C755    1.423   .     A
C754   C1577   1.413   .     S
C755   C1575   1.412   .     S
C756   C757    1.408   .     A
C756   C1574   1.412   1_554 S
C757   H773    1.079   .     S
C757   C758    1.397   .     A
C758   S810    1.774   .     S
C758   C1573   1.413   1_554 S
H759   C557    1.086   1_655 S
H760   C568    1.112   1_655 S
H765   O793    0.990   .     S
H766   O796    0.991   .     S
H767   O800    0.990   .     S
H768   O803    0.990   .     S
H774   O784    0.991   .     S
H775   O787    0.990   .     S
O777   Zn818   1.926   .     S
O777   Zn816   1.957   .     S
O777   Zn819   1.928   .     S
O777   Zn817   1.937   .     S
O778   Zn817   1.912   .     S
O779   Zn819   1.923   .     S
O780   Zn818   1.918   .     S
O781   Zn816   1.908   .     S
O782   S810    1.503   .     D
O783   S810    1.503   .     D
O784   S810    1.683   .     S
O785   S811    1.503   .     D
O786   S1630   1.503   .     S
O788   Zn816   1.933   .     S
O790   C196    1.399   1_565 S
O790   C206    1.412   1_565 S
O791   S812    1.503   .     D
O792   S812    1.503   .     D
O793   S812    1.683   .     S
O794   S813    1.502   .     D
O795   S813    1.503   .     D
O796   S813    1.683   .     S
O797   S814    1.503   .     D
O798   S814    1.503   .     D
O799   Zn819   1.935   .     S
O800   S814    1.681   .     S
O801   S815    1.504   .     D
O802   S815    1.503   .     D
O803   S815    1.682   .     S
O804   Zn817   1.925   .     S
O805   Zn818   1.936   .     S
O806   Zn819   1.930   .     S
O807   Zn816   1.920   .     S
O808   Zn817   1.942   .     S
O809   Zn818   1.936   .     S
S811   O605    1.681   1_655 S
S811   O1605   1.503   1_554 S
C820   C830    1.436   .     S
C820   O897    1.267   .     A
C820   O895    1.266   .     A
C821   C846    1.426   .     A
C821   S906    1.790   .     S
C821   C822    1.407   .     A
C822   S905    1.783   .     S
C822   C5      1.414   1_556 S
C823   O898    1.278   .     A
C823   C829    1.461   .     S
C823   O896    1.277   .     A
C824   C825    1.412   .     A
C824   C826    1.420   .     A
C825   C847    1.418   .     A
C825   C828    1.419   .     A
C826   S902    1.790   .     S
C826   C827    1.417   .     A
C827   S904    1.789   .     S
C827   C839    1.414   .     A
C828   C839    1.408   .     A
C828   S903    1.794   .     S
C829   C921    1.339   .     S
C829   O971    1.387   .     S
C830   C1011   1.339   1_455 S
C830   H1032   1.086   1_455 S
C831   H862    1.083   .     S
C831   C840    1.395   .     A
C831   C838    1.399   .     A
C832   C835    1.454   .     S
C832   C1106   1.344   .     S
C832   H1133   1.088   .     S
C833   C834    1.444   .     S
C833   C1378   1.344   1_545 S
C833   O1427   1.399   1_545 S
C834   O879    1.274   .     A
C834   O899    1.269   .     A
C835   O890    1.260   .     A
C835   O900    1.272   .     A
C836   C839    1.467   .     S
C836   O871    1.275   .     A
C836   O869    1.276   .     A
C837   C838    1.474   .     S
C837   O872    1.286   .     A
C837   O870    1.285   .     A
C838   C842    1.397   .     A
C840   C845    1.412   .     A
C840   H861    1.080   .     S
C841   H867    1.113   .     S
C841   H852    1.109   .     S
C841   O880    1.410   .     S
C841   H1033   1.112   1_455 S
C842   H863    1.078   .     S
C842   C844    1.404   .     A
C843   H855    1.109   .     S
C843   H854    1.113   .     S
C843   H853    1.112   .     S
C843   O1427   1.412   1_545 S
C844   C845    1.422   .     A
C844   C846    1.423   .     A
C845   C30     1.413   1_556 S
C846   C28     1.412   1_556 S
C847   C848    1.408   .     A
C848   H864    1.079   .     S
C848   C849    1.397   .     A
C849   S901    1.774   .     S
H850   C921    1.086   .     S
H851   C932    1.112   .     S
H856   O884    0.990   .     S
H857   O887    0.991   .     S
H858   O891    0.990   .     S
H859   O894    0.990   .     S
H860   C1378   1.088   1_545 S
H865   O875    0.991   .     S
H866   O878    0.990   .     S
O868   Zn909   1.926   .     S
O868   Zn907   1.957   .     S
O868   Zn910   1.928   .     S
O868   Zn908   1.937   .     S
O869   Zn908   1.912   .     S
O870   Zn910   1.923   .     S
O871   Zn909   1.918   .     S
O872   Zn907   1.908   .     S
O873   S901    1.503   .     D
O874   S901    1.503   .     D
O875   S901    1.683   .     S
O876   S902    1.503   .     D
O877   S83     1.503   1_556 S
O878   S1084   1.681   1_455 S
O879   Zn907   1.933   .     S
O880   C1011   1.387   1_455 S
O881   C1106   1.399   .     S
O881   C1116   1.412   .     S
O882   S903    1.503   .     D
O883   S903    1.503   .     D
O884   S903    1.683   .     S
O885   S904    1.502   .     D
O886   S904    1.503   .     D
O887   S904    1.683   .     S
O888   S905    1.503   .     D
O889   S905    1.503   .     D
O890   Zn910   1.935   .     S
O891   S905    1.681   .     S
O892   S906    1.504   .     D
O893   S906    1.503   .     D
O894   S906    1.682   .     S
O895   Zn908   1.925   .     S
O896   Zn909   1.936   .     S
O897   Zn910   1.930   .     S
O898   Zn907   1.920   .     S
O899   Zn908   1.942   .     S
O900   Zn909   1.936   .     S
S902   O969    1.681   .     S
C911   C921    1.436   .     S
C911   O988    1.267   .     A
C911   O986    1.266   .     A
C912   C937    1.426   .     A
C912   S997    1.790   .     S
C912   C913    1.407   .     A
C913   S996    1.783   .     S
C913   C96     1.414   1_556 S
C914   O989    1.278   .     A
C914   C920    1.461   .     S
C914   O987    1.277   .     A
C915   C916    1.412   .     A
C915   C917    1.420   .     A
C916   C938    1.418   .     A
C916   C919    1.419   .     A
C917   S993    1.790   .     S
C917   C918    1.417   .     A
C918   S995    1.789   .     S
C918   C930    1.414   .     A
C919   C930    1.408   .     A
C919   S994    1.794   .     S
C920   C1012   1.339   .     S
C920   O1062   1.387   .     S
C922   H953    1.083   .     S
C922   C931    1.395   .     A
C922   C929    1.399   .     A
C923   C926    1.454   .     S
C923   C1197   1.344   .     S
C923   H1224   1.088   .     S
C924   C925    1.444   .     S
C924   C1469   1.344   1_545 S
C924   O1518   1.399   1_545 S
C925   O970    1.274   .     A
C925   O990    1.269   .     A
C926   O981    1.260   .     A
C926   O991    1.272   .     A
C927   C930    1.467   .     S
C927   O962    1.275   .     A
C927   O960    1.276   .     A
C928   C929    1.474   .     S
C928   O963    1.286   .     A
C928   O961    1.285   .     A
C929   C933    1.397   .     A
C931   C936    1.412   .     A
C931   H952    1.080   .     S
C932   H958    1.113   .     S
C932   H943    1.109   .     S
C932   O971    1.410   .     S
C933   H954    1.078   .     S
C933   C935    1.404   .     A
C934   H946    1.109   .     S
C934   H945    1.113   .     S
C934   H944    1.112   .     S
C934   O1518   1.412   1_545 S
C935   C936    1.422   .     A
C935   C937    1.423   .     A
C936   C121    1.413   1_556 S
C937   C119    1.412   1_556 S
C938   C939    1.408   .     A
C939   H955    1.079   .     S
C939   C940    1.397   .     A
C940   S992    1.774   .     S
H941   C1012   1.086   .     S
H942   C1023   1.112   .     S
H947   O975    0.990   .     S
H948   O978    0.991   .     S
H949   O982    0.990   .     S
H950   O985    0.990   .     S
H951   C1469   1.088   1_545 S
H956   O966    0.991   .     S
H957   O969    0.990   .     S
O959   Zn1000  1.926   .     S
O959   Zn998   1.957   .     S
O959   Zn1001  1.928   .     S
O959   Zn999   1.937   .     S
O960   Zn999   1.912   .     S
O961   Zn1001  1.923   .     S
O962   Zn1000  1.918   .     S
O963   Zn998   1.908   .     S
O964   S992    1.503   .     D
O965   S992    1.503   .     D
O966   S992    1.683   .     S
O967   S993    1.503   .     D
O968   S174    1.503   1_556 S
O970   Zn998   1.933   .     S
O972   C1197   1.399   .     S
O972   C1207   1.412   .     S
O973   S994    1.503   .     D
O974   S994    1.503   .     D
O975   S994    1.683   .     S
O976   S995    1.502   .     D
O977   S995    1.503   .     D
O978   S995    1.683   .     S
O979   S996    1.503   .     D
O980   S996    1.503   .     D
O981   Zn1001  1.935   .     S
O982   S996    1.681   .     S
O983   S997    1.504   .     D
O984   S997    1.503   .     D
O985   S997    1.682   .     S
O986   Zn999   1.925   .     S
O987   Zn1000  1.936   .     S
O988   Zn1001  1.930   .     S
O989   Zn998   1.920   .     S
O990   Zn999   1.942   .     S
O991   Zn1000  1.936   .     S
S993   O1060   1.681   .     S
C1002  C1012   1.436   .     S
C1002  O1079   1.267   .     A
C1002  O1077   1.266   .     A
C1003  C1028   1.426   .     A
C1003  S1088   1.790   .     S
C1003  C1004   1.407   .     A
C1004  S1087   1.783   .     S
C1004  C187    1.414   1_556 S
C1005  O1080   1.278   .     A
C1005  C1011   1.461   .     S
C1005  O1078   1.277   .     A
C1006  C1007   1.412   .     A
C1006  C1008   1.420   .     A
C1007  C1029   1.418   .     A
C1007  C1010   1.419   .     A
C1008  S1084   1.790   .     S
C1008  C1009   1.417   .     A
C1009  S1086   1.789   .     S
C1009  C1021   1.414   .     A
C1010  C1021   1.408   .     A
C1010  S1085   1.794   .     S
C1011  C830    1.339   1_655 S
C1011  O880    1.387   1_655 S
C1013  H1044   1.083   .     S
C1013  C1022   1.395   .     A
C1013  C1020   1.399   .     A
C1014  C1017   1.454   .     S
C1014  C1288   1.344   .     S
C1014  H1315   1.088   .     S
C1015  C1016   1.444   .     S
C1015  C1560   1.344   1_545 S
C1015  O1609   1.399   1_545 S
C1016  O1061   1.274   .     A
C1016  O1081   1.269   .     A
C1017  O1072   1.260   .     A
C1017  O1082   1.272   .     A
C1018  C1021   1.467   .     S
C1018  O1053   1.275   .     A
C1018  O1051   1.276   .     A
C1019  C1020   1.474   .     S
C1019  O1054   1.286   .     A
C1019  O1052   1.285   .     A
C1020  C1024   1.397   .     A
C1022  C1027   1.412   .     A
C1022  H1043   1.080   .     S
C1023  H1049   1.113   .     S
C1023  H1034   1.109   .     S
C1023  O1062   1.410   .     S
C1024  H1045   1.078   .     S
C1024  C1026   1.404   .     A
C1025  H1037   1.109   .     S
C1025  H1036   1.113   .     S
C1025  H1035   1.112   .     S
C1025  O1609   1.412   1_545 S
C1026  C1027   1.422   .     A
C1026  C1028   1.423   .     A
C1027  C212    1.413   1_556 S
C1028  C210    1.412   1_556 S
C1029  C1030   1.408   .     A
C1030  H1046   1.079   .     S
C1030  C1031   1.397   .     A
C1031  S1083   1.774   .     S
H1032  C830    1.086   1_655 S
H1033  C841    1.112   1_655 S
H1038  O1066   0.990   .     S
H1039  O1069   0.991   .     S
H1040  O1073   0.990   .     S
H1041  O1076   0.990   .     S
H1042  C1560   1.088   1_545 S
H1047  O1057   0.991   .     S
H1048  O1060   0.990   .     S
O1050  Zn1091  1.926   .     S
O1050  Zn1089  1.957   .     S
O1050  Zn1092  1.928   .     S
O1050  Zn1090  1.937   .     S
O1051  Zn1090  1.912   .     S
O1052  Zn1092  1.923   .     S
O1053  Zn1091  1.918   .     S
O1054  Zn1089  1.908   .     S
O1055  S1083   1.503   .     D
O1056  S1083   1.503   .     D
O1057  S1083   1.683   .     S
O1058  S1084   1.503   .     D
O1059  S265    1.503   1_556 S
O1061  Zn1089  1.933   .     S
O1063  C1288   1.399   .     S
O1063  C1298   1.412   .     S
O1064  S1085   1.503   .     D
O1065  S1085   1.503   .     D
O1066  S1085   1.683   .     S
O1067  S1086   1.502   .     D
O1068  S1086   1.503   .     D
O1069  S1086   1.683   .     S
O1070  S1087   1.503   .     D
O1071  S1087   1.503   .     D
O1072  Zn1092  1.935   .     S
O1073  S1087   1.681   .     S
O1074  S1088   1.504   .     D
O1075  S1088   1.503   .     D
O1076  S1088   1.682   .     S
O1077  Zn1090  1.925   .     S
O1078  Zn1091  1.936   .     S
O1079  Zn1092  1.930   .     S
O1080  Zn1089  1.920   .     S
O1081  Zn1090  1.942   .     S
O1082  Zn1091  1.936   .     S
S1084  O878    1.681   1_655 S
C1093  C1103   1.436   .     S
C1093  O1170   1.267   .     A
C1093  O1168   1.266   .     A
C1094  C1119   1.426   .     A
C1094  S1179   1.790   .     S
C1094  C1095   1.407   .     A
C1095  S1178   1.783   .     S
C1095  C278    1.414   1_556 S
C1096  O1171   1.278   .     A
C1096  C1102   1.461   .     S
C1096  O1169   1.277   .     A
C1097  C1098   1.412   .     A
C1097  C1099   1.420   .     A
C1098  C1120   1.418   .     A
C1098  C1101   1.419   .     A
C1099  S1175   1.790   .     S
C1099  C1100   1.417   .     A
C1100  S1177   1.789   .     S
C1100  C1112   1.414   .     A
C1101  C1112   1.408   .     A
C1101  S1176   1.794   .     S
C1102  C1194   1.339   .     S
C1102  O1244   1.387   .     S
C1103  C1284   1.339   1_455 S
C1103  H1305   1.086   1_455 S
C1104  H1135   1.083   .     S
C1104  C1113   1.395   .     A
C1104  C1111   1.399   .     A
C1105  C1108   1.454   .     S
C1105  C1379   1.344   .     S
C1105  H1406   1.088   .     S
C1106  C1107   1.444   .     S
C1107  O1152   1.274   .     A
C1107  O1172   1.269   .     A
C1108  O1163   1.260   .     A
C1108  O1173   1.272   .     A
C1109  C1112   1.467   .     S
C1109  O1144   1.275   .     A
C1109  O1142   1.276   .     A
C1110  C1111   1.474   .     S
C1110  O1145   1.286   .     A
C1110  O1143   1.285   .     A
C1111  C1115   1.397   .     A
C1113  C1118   1.412   .     A
C1113  H1134   1.080   .     S
C1114  H1140   1.113   .     S
C1114  H1125   1.109   .     S
C1114  O1153   1.410   .     S
C1114  H1306   1.112   1_455 S
C1115  H1136   1.078   .     S
C1115  C1117   1.404   .     A
C1116  H1128   1.109   .     S
C1116  H1127   1.113   .     S
C1116  H1126   1.112   .     S
C1117  C1118   1.422   .     A
C1117  C1119   1.423   .     A
C1118  C303    1.413   1_556 S
C1119  C301    1.412   1_556 S
C1120  C1121   1.408   .     A
C1121  H1137   1.079   .     S
C1121  C1122   1.397   .     A
C1122  S1174   1.774   .     S
H1123  C1194   1.086   .     S
H1124  C1205   1.112   .     S
H1129  O1157   0.990   .     S
H1130  O1160   0.991   .     S
H1131  O1164   0.990   .     S
H1132  O1167   0.990   .     S
H1138  O1148   0.991   .     S
H1139  O1151   0.990   .     S
O1141  Zn1182  1.926   .     S
O1141  Zn1180  1.957   .     S
O1141  Zn1183  1.928   .     S
O1141  Zn1181  1.937   .     S
O1142  Zn1181  1.912   .     S
O1143  Zn1183  1.923   .     S
O1144  Zn1182  1.918   .     S
O1145  Zn1180  1.908   .     S
O1146  S1174   1.503   .     D
O1147  S1174   1.503   .     D
O1148  S1174   1.683   .     S
O1149  S1175   1.503   .     D
O1150  S356    1.503   1_556 S
O1151  S1357   1.681   1_455 S
O1152  Zn1180  1.933   .     S
O1153  C1284   1.387   1_455 S
O1154  C1379   1.399   .     S
O1154  C1389   1.412   .     S
O1155  S1176   1.503   .     D
O1156  S1176   1.503   .     D
O1157  S1176   1.683   .     S
O1158  S1177   1.502   .     D
O1159  S1177   1.503   .     D
O1160  S1177   1.683   .     S
O1161  S1178   1.503   .     D
O1162  S1178   1.503   .     D
O1163  Zn1183  1.935   .     S
O1164  S1178   1.681   .     S
O1165  S1179   1.504   .     D
O1166  S1179   1.503   .     D
O1167  S1179   1.682   .     S
O1168  Zn1181  1.925   .     S
O1169  Zn1182  1.936   .     S
O1170  Zn1183  1.930   .     S
O1171  Zn1180  1.920   .     S
O1172  Zn1181  1.942   .     S
O1173  Zn1182  1.936   .     S
S1175  O1242   1.681   .     S
C1184  C1194   1.436   .     S
C1184  O1261   1.267   .     A
C1184  O1259   1.266   .     A
C1185  C1210   1.426   .     A
C1185  S1270   1.790   .     S
C1185  C1186   1.407   .     A
C1186  S1269   1.783   .     S
C1186  C369    1.414   1_556 S
C1187  O1262   1.278   .     A
C1187  C1193   1.461   .     S
C1187  O1260   1.277   .     A
C1188  C1189   1.412   .     A
C1188  C1190   1.420   .     A
C1189  C1211   1.418   .     A
C1189  C1192   1.419   .     A
C1190  S1266   1.790   .     S
C1190  C1191   1.417   .     A
C1191  S1268   1.789   .     S
C1191  C1203   1.414   .     A
C1192  C1203   1.408   .     A
C1192  S1267   1.794   .     S
C1193  C1285   1.339   .     S
C1193  O1335   1.387   .     S
C1195  H1226   1.083   .     S
C1195  C1204   1.395   .     A
C1195  C1202   1.399   .     A
C1196  C1199   1.454   .     S
C1196  C1470   1.344   .     S
C1196  H1497   1.088   .     S
C1197  C1198   1.444   .     S
C1198  O1243   1.274   .     A
C1198  O1263   1.269   .     A
C1199  O1254   1.260   .     A
C1199  O1264   1.272   .     A
C1200  C1203   1.467   .     S
C1200  O1235   1.275   .     A
C1200  O1233   1.276   .     A
C1201  C1202   1.474   .     S
C1201  O1236   1.286   .     A
C1201  O1234   1.285   .     A
C1202  C1206   1.397   .     A
C1204  C1209   1.412   .     A
C1204  H1225   1.080   .     S
C1205  H1231   1.113   .     S
C1205  H1216   1.109   .     S
C1205  O1244   1.410   .     S
C1206  H1227   1.078   .     S
C1206  C1208   1.404   .     A
C1207  H1219   1.109   .     S
C1207  H1218   1.113   .     S
C1207  H1217   1.112   .     S
C1208  C1209   1.422   .     A
C1208  C1210   1.423   .     A
C1209  C394    1.413   1_556 S
C1210  C392    1.412   1_556 S
C1211  C1212   1.408   .     A
C1212  H1228   1.079   .     S
C1212  C1213   1.397   .     A
C1213  S1265   1.774   .     S
H1214  C1285   1.086   .     S
H1215  C1296   1.112   .     S
H1220  O1248   0.990   .     S
H1221  O1251   0.991   .     S
H1222  O1255   0.990   .     S
H1223  O1258   0.990   .     S
H1229  O1239   0.991   .     S
H1230  O1242   0.990   .     S
O1232  Zn1273  1.926   .     S
O1232  Zn1271  1.957   .     S
O1232  Zn1274  1.928   .     S
O1232  Zn1272  1.937   .     S
O1233  Zn1272  1.912   .     S
O1234  Zn1274  1.923   .     S
O1235  Zn1273  1.918   .     S
O1236  Zn1271  1.908   .     S
O1237  S1265   1.503   .     D
O1238  S1265   1.503   .     D
O1239  S1265   1.683   .     S
O1240  S1266   1.503   .     D
O1241  S447    1.503   1_556 S
O1243  Zn1271  1.933   .     S
O1245  C1470   1.399   .     S
O1245  C1480   1.412   .     S
O1246  S1267   1.503   .     D
O1247  S1267   1.503   .     D
O1248  S1267   1.683   .     S
O1249  S1268   1.502   .     D
O1250  S1268   1.503   .     D
O1251  S1268   1.683   .     S
O1252  S1269   1.503   .     D
O1253  S1269   1.503   .     D
O1254  Zn1274  1.935   .     S
O1255  S1269   1.681   .     S
O1256  S1270   1.504   .     D
O1257  S1270   1.503   .     D
O1258  S1270   1.682   .     S
O1259  Zn1272  1.925   .     S
O1260  Zn1273  1.936   .     S
O1261  Zn1274  1.930   .     S
O1262  Zn1271  1.920   .     S
O1263  Zn1272  1.942   .     S
O1264  Zn1273  1.936   .     S
S1266  O1333   1.681   .     S
C1275  C1285   1.436   .     S
C1275  O1352   1.267   .     A
C1275  O1350   1.266   .     A
C1276  C1301   1.426   .     A
C1276  S1361   1.790   .     S
C1276  C1277   1.407   .     A
C1277  S1360   1.783   .     S
C1277  C460    1.414   1_556 S
C1278  O1353   1.278   .     A
C1278  C1284   1.461   .     S
C1278  O1351   1.277   .     A
C1279  C1280   1.412   .     A
C1279  C1281   1.420   .     A
C1280  C1302   1.418   .     A
C1280  C1283   1.419   .     A
C1281  S1357   1.790   .     S
C1281  C1282   1.417   .     A
C1282  S1359   1.789   .     S
C1282  C1294   1.414   .     A
C1283  C1294   1.408   .     A
C1283  S1358   1.794   .     S
C1284  C1103   1.339   1_655 S
C1284  O1153   1.387   1_655 S
C1286  H1317   1.083   .     S
C1286  C1295   1.395   .     A
C1286  C1293   1.399   .     A
C1287  C1290   1.454   .     S
C1287  C1561   1.344   .     S
C1287  H1588   1.088   .     S
C1288  C1289   1.444   .     S
C1289  O1334   1.274   .     A
C1289  O1354   1.269   .     A
C1290  O1345   1.260   .     A
C1290  O1355   1.272   .     A
C1291  C1294   1.467   .     S
C1291  O1326   1.275   .     A
C1291  O1324   1.276   .     A
C1292  C1293   1.474   .     S
C1292  O1327   1.286   .     A
C1292  O1325   1.285   .     A
C1293  C1297   1.397   .     A
C1295  C1300   1.412   .     A
C1295  H1316   1.080   .     S
C1296  H1322   1.113   .     S
C1296  H1307   1.109   .     S
C1296  O1335   1.410   .     S
C1297  H1318   1.078   .     S
C1297  C1299   1.404   .     A
C1298  H1310   1.109   .     S
C1298  H1309   1.113   .     S
C1298  H1308   1.112   .     S
C1299  C1300   1.422   .     A
C1299  C1301   1.423   .     A
C1300  C485    1.413   1_556 S
C1301  C483    1.412   1_556 S
C1302  C1303   1.408   .     A
C1303  H1319   1.079   .     S
C1303  C1304   1.397   .     A
C1304  S1356   1.774   .     S
H1305  C1103   1.086   1_655 S
H1306  C1114   1.112   1_655 S
H1311  O1339   0.990   .     S
H1312  O1342   0.991   .     S
H1313  O1346   0.990   .     S
H1314  O1349   0.990   .     S
H1320  O1330   0.991   .     S
H1321  O1333   0.990   .     S
O1323  Zn1364  1.926   .     S
O1323  Zn1362  1.957   .     S
O1323  Zn1365  1.928   .     S
O1323  Zn1363  1.937   .     S
O1324  Zn1363  1.912   .     S
O1325  Zn1365  1.923   .     S
O1326  Zn1364  1.918   .     S
O1327  Zn1362  1.908   .     S
O1328  S1356   1.503   .     D
O1329  S1356   1.503   .     D
O1330  S1356   1.683   .     S
O1331  S1357   1.503   .     D
O1332  S538    1.503   1_556 S
O1334  Zn1362  1.933   .     S
O1336  C1561   1.399   .     S
O1336  C1571   1.412   .     S
O1337  S1358   1.503   .     D
O1338  S1358   1.503   .     D
O1339  S1358   1.683   .     S
O1340  S1359   1.502   .     D
O1341  S1359   1.503   .     D
O1342  S1359   1.683   .     S
O1343  S1360   1.503   .     D
O1344  S1360   1.503   .     D
O1345  Zn1365  1.935   .     S
O1346  S1360   1.681   .     S
O1347  S1361   1.504   .     D
O1348  S1361   1.503   .     D
O1349  S1361   1.682   .     S
O1350  Zn1363  1.925   .     S
O1351  Zn1364  1.936   .     S
O1352  Zn1365  1.930   .     S
O1353  Zn1362  1.920   .     S
O1354  Zn1363  1.942   .     S
O1355  Zn1364  1.936   .     S
S1357  O1151   1.681   1_655 S
C1366  C1376   1.436   .     S
C1366  O1443   1.267   .     A
C1366  O1441   1.266   .     A
C1367  C1392   1.426   .     A
C1367  S1452   1.790   .     S
C1367  C1368   1.407   .     A
C1368  S1451   1.783   .     S
C1368  C551    1.414   1_556 S
C1369  O1444   1.278   .     A
C1369  C1375   1.461   .     S
C1369  O1442   1.277   .     A
C1370  C1371   1.412   .     A
C1370  C1372   1.420   .     A
C1371  C1393   1.418   .     A
C1371  C1374   1.419   .     A
C1372  S1448   1.790   .     S
C1372  C1373   1.417   .     A
C1373  S1450   1.789   .     S
C1373  C1385   1.414   .     A
C1374  C1385   1.408   .     A
C1374  S1449   1.794   .     S
C1375  C1467   1.339   .     S
C1375  O1517   1.387   .     S
C1376  C1557   1.339   1_455 S
C1376  H1578   1.086   1_455 S
C1377  H1408   1.083   .     S
C1377  C1386   1.395   .     A
C1377  C1384   1.399   .     A
C1378  C1381   1.454   .     S
C1378  C833    1.344   1_565 S
C1378  H860    1.088   1_565 S
C1379  C1380   1.444   .     S
C1380  O1425   1.274   .     A
C1380  O1445   1.269   .     A
C1381  O1436   1.260   .     A
C1381  O1446   1.272   .     A
C1382  C1385   1.467   .     S
C1382  O1417   1.275   .     A
C1382  O1415   1.276   .     A
C1383  C1384   1.474   .     S
C1383  O1418   1.286   .     A
C1383  O1416   1.285   .     A
C1384  C1388   1.397   .     A
C1386  C1391   1.412   .     A
C1386  H1407   1.080   .     S
C1387  H1413   1.113   .     S
C1387  H1398   1.109   .     S
C1387  O1426   1.410   .     S
C1387  H1579   1.112   1_455 S
C1388  H1409   1.078   .     S
C1388  C1390   1.404   .     A
C1389  H1401   1.109   .     S
C1389  H1400   1.113   .     S
C1389  H1399   1.112   .     S
C1390  C1391   1.422   .     A
C1390  C1392   1.423   .     A
C1391  C576    1.413   1_556 S
C1392  C574    1.412   1_556 S
C1393  C1394   1.408   .     A
C1394  H1410   1.079   .     S
C1394  C1395   1.397   .     A
C1395  S1447   1.774   .     S
H1396  C1467   1.086   .     S
H1397  C1478   1.112   .     S
H1402  O1430   0.990   .     S
H1403  O1433   0.991   .     S
H1404  O1437   0.990   .     S
H1405  O1440   0.990   .     S
H1411  O1421   0.991   .     S
H1412  O1424   0.990   .     S
O1414  Zn1455  1.926   .     S
O1414  Zn1453  1.957   .     S
O1414  Zn1456  1.928   .     S
O1414  Zn1454  1.937   .     S
O1415  Zn1454  1.912   .     S
O1416  Zn1456  1.923   .     S
O1417  Zn1455  1.918   .     S
O1418  Zn1453  1.908   .     S
O1419  S1447   1.503   .     D
O1420  S1447   1.503   .     D
O1421  S1447   1.683   .     S
O1422  S1448   1.503   .     D
O1423  S629    1.503   1_556 S
O1424  S1630   1.681   1_455 S
O1425  Zn1453  1.933   .     S
O1426  C1557   1.387   1_455 S
O1427  C833    1.399   1_565 S
O1427  C843    1.412   1_565 S
O1428  S1449   1.503   .     D
O1429  S1449   1.503   .     D
O1430  S1449   1.683   .     S
O1431  S1450   1.502   .     D
O1432  S1450   1.503   .     D
O1433  S1450   1.683   .     S
O1434  S1451   1.503   .     D
O1435  S1451   1.503   .     D
O1436  Zn1456  1.935   .     S
O1437  S1451   1.681   .     S
O1438  S1452   1.504   .     D
O1439  S1452   1.503   .     D
O1440  S1452   1.682   .     S
O1441  Zn1454  1.925   .     S
O1442  Zn1455  1.936   .     S
O1443  Zn1456  1.930   .     S
O1444  Zn1453  1.920   .     S
O1445  Zn1454  1.942   .     S
O1446  Zn1455  1.936   .     S
S1448  O1515   1.681   .     S
C1457  C1467   1.436   .     S
C1457  O1534   1.267   .     A
C1457  O1532   1.266   .     A
C1458  C1483   1.426   .     A
C1458  S1543   1.790   .     S
C1458  C1459   1.407   .     A
C1459  S1542   1.783   .     S
C1459  C642    1.414   1_556 S
C1460  O1535   1.278   .     A
C1460  C1466   1.461   .     S
C1460  O1533   1.277   .     A
C1461  C1462   1.412   .     A
C1461  C1463   1.420   .     A
C1462  C1484   1.418   .     A
C1462  C1465   1.419   .     A
C1463  S1539   1.790   .     S
C1463  C1464   1.417   .     A
C1464  S1541   1.789   .     S
C1464  C1476   1.414   .     A
C1465  C1476   1.408   .     A
C1465  S1540   1.794   .     S
C1466  C1558   1.339   .     S
C1466  O1608   1.387   .     S
C1468  H1499   1.083   .     S
C1468  C1477   1.395   .     A
C1468  C1475   1.399   .     A
C1469  C1472   1.454   .     S
C1469  C924    1.344   1_565 S
C1469  H951    1.088   1_565 S
C1470  C1471   1.444   .     S
C1471  O1516   1.274   .     A
C1471  O1536   1.269   .     A
C1472  O1527   1.260   .     A
C1472  O1537   1.272   .     A
C1473  C1476   1.467   .     S
C1473  O1508   1.275   .     A
C1473  O1506   1.276   .     A
C1474  C1475   1.474   .     S
C1474  O1509   1.286   .     A
C1474  O1507   1.285   .     A
C1475  C1479   1.397   .     A
C1477  C1482   1.412   .     A
C1477  H1498   1.080   .     S
C1478  H1504   1.113   .     S
C1478  H1489   1.109   .     S
C1478  O1517   1.410   .     S
C1479  H1500   1.078   .     S
C1479  C1481   1.404   .     A
C1480  H1492   1.109   .     S
C1480  H1491   1.113   .     S
C1480  H1490   1.112   .     S
C1481  C1482   1.422   .     A
C1481  C1483   1.423   .     A
C1482  C667    1.413   1_556 S
C1483  C665    1.412   1_556 S
C1484  C1485   1.408   .     A
C1485  H1501   1.079   .     S
C1485  C1486   1.397   .     A
C1486  S1538   1.774   .     S
H1487  C1558   1.086   .     S
H1488  C1569   1.112   .     S
H1493  O1521   0.990   .     S
H1494  O1524   0.991   .     S
H1495  O1528   0.990   .     S
H1496  O1531   0.990   .     S
H1502  O1512   0.991   .     S
H1503  O1515   0.990   .     S
O1505  Zn1546  1.926   .     S
O1505  Zn1544  1.957   .     S
O1505  Zn1547  1.928   .     S
O1505  Zn1545  1.937   .     S
O1506  Zn1545  1.912   .     S
O1507  Zn1547  1.923   .     S
O1508  Zn1546  1.918   .     S
O1509  Zn1544  1.908   .     S
O1510  S1538   1.503   .     D
O1511  S1538   1.503   .     D
O1512  S1538   1.683   .     S
O1513  S1539   1.503   .     D
O1514  S720    1.503   1_556 S
O1516  Zn1544  1.933   .     S
O1518  C924    1.399   1_565 S
O1518  C934    1.412   1_565 S
O1519  S1540   1.503   .     D
O1520  S1540   1.503   .     D
O1521  S1540   1.683   .     S
O1522  S1541   1.502   .     D
O1523  S1541   1.503   .     D
O1524  S1541   1.683   .     S
O1525  S1542   1.503   .     D
O1526  S1542   1.503   .     D
O1527  Zn1547  1.935   .     S
O1528  S1542   1.681   .     S
O1529  S1543   1.504   .     D
O1530  S1543   1.503   .     D
O1531  S1543   1.682   .     S
O1532  Zn1545  1.925   .     S
O1533  Zn1546  1.936   .     S
O1534  Zn1547  1.930   .     S
O1535  Zn1544  1.920   .     S
O1536  Zn1545  1.942   .     S
O1537  Zn1546  1.936   .     S
S1539  O1606   1.681   .     S
C1548  C1558   1.436   .     S
C1548  O1625   1.267   .     A
C1548  O1623   1.266   .     A
C1549  C1574   1.426   .     A
C1549  S1634   1.790   .     S
C1549  C1550   1.407   .     A
C1550  S1633   1.783   .     S
C1550  C733    1.414   1_556 S
C1551  O1626   1.278   .     A
C1551  C1557   1.461   .     S
C1551  O1624   1.277   .     A
C1552  C1553   1.412   .     A
C1552  C1554   1.420   .     A
C1553  C1575   1.418   .     A
C1553  C1556   1.419   .     A
C1554  S1630   1.790   .     S
C1554  C1555   1.417   .     A
C1555  S1632   1.789   .     S
C1555  C1567   1.414   .     A
C1556  C1567   1.408   .     A
C1556  S1631   1.794   .     S
C1557  C1376   1.339   1_655 S
C1557  O1426   1.387   1_655 S
C1559  H1590   1.083   .     S
C1559  C1568   1.395   .     A
C1559  C1566   1.399   .     A
C1560  C1563   1.454   .     S
C1560  C1015   1.344   1_565 S
C1560  H1042   1.088   1_565 S
C1561  C1562   1.444   .     S
C1562  O1607   1.274   .     A
C1562  O1627   1.269   .     A
C1563  O1618   1.260   .     A
C1563  O1628   1.272   .     A
C1564  C1567   1.467   .     S
C1564  O1599   1.275   .     A
C1564  O1597   1.276   .     A
C1565  C1566   1.474   .     S
C1565  O1600   1.286   .     A
C1565  O1598   1.285   .     A
C1566  C1570   1.397   .     A
C1568  C1573   1.412   .     A
C1568  H1589   1.080   .     S
C1569  H1595   1.113   .     S
C1569  H1580   1.109   .     S
C1569  O1608   1.410   .     S
C1570  H1591   1.078   .     S
C1570  C1572   1.404   .     A
C1571  H1583   1.109   .     S
C1571  H1582   1.113   .     S
C1571  H1581   1.112   .     S
C1572  C1573   1.422   .     A
C1572  C1574   1.423   .     A
C1573  C758    1.413   1_556 S
C1574  C756    1.412   1_556 S
C1575  C1576   1.408   .     A
C1576  H1592   1.079   .     S
C1576  C1577   1.397   .     A
C1577  S1629   1.774   .     S
H1578  C1376   1.086   1_655 S
H1579  C1387   1.112   1_655 S
H1584  O1612   0.990   .     S
H1585  O1615   0.991   .     S
H1586  O1619   0.990   .     S
H1587  O1622   0.990   .     S
H1593  O1603   0.991   .     S
H1594  O1606   0.990   .     S
O1596  Zn1637  1.926   .     S
O1596  Zn1635  1.957   .     S
O1596  Zn1638  1.928   .     S
O1596  Zn1636  1.937   .     S
O1597  Zn1636  1.912   .     S
O1598  Zn1638  1.923   .     S
O1599  Zn1637  1.918   .     S
O1600  Zn1635  1.908   .     S
O1601  S1629   1.503   .     D
O1602  S1629   1.503   .     D
O1603  S1629   1.683   .     S
O1604  S1630   1.503   .     D
O1605  S811    1.503   1_556 S
O1607  Zn1635  1.933   .     S
O1609  C1015   1.399   1_565 S
O1609  C1025   1.412   1_565 S
O1610  S1631   1.503   .     D
O1611  S1631   1.503   .     D
O1612  S1631   1.683   .     S
O1613  S1632   1.502   .     D
O1614  S1632   1.503   .     D
O1615  S1632   1.683   .     S
O1616  S1633   1.503   .     D
O1617  S1633   1.503   .     D
O1618  Zn1638  1.935   .     S
O1619  S1633   1.681   .     S
O1620  S1634   1.504   .     D
O1621  S1634   1.503   .     D
O1622  S1634   1.682   .     S
O1623  Zn1636  1.925   .     S
O1624  Zn1637  1.936   .     S
O1625  Zn1638  1.930   .     S
O1626  Zn1635  1.920   .     S
O1627  Zn1636  1.942   .     S
O1628  Zn1637  1.936   .     S
S1630  O1424   1.681   1_655 S
