data_str_m2_o1_o17_pcu_sym.142
_audit_creation_date              2020-01-03
_audit_creation_method            'Materials Studio'
_symmetry_space_group_name_H-M    'P1'
_symmetry_Int_Tables_number       1
_symmetry_cell_setting            triclinic
loop_
_symmetry_equiv_pos_as_xyz
  x,y,z
_cell_length_a                    32.4575
_cell_length_b                    28.5654
_cell_length_c                    30.1592
_cell_angle_alpha                 90.0121
_cell_angle_beta                  89.6530
_cell_angle_gamma                 90.0264
loop_
_atom_site_label
_atom_site_type_symbol
_atom_site_fract_x
_atom_site_fract_y
_atom_site_fract_z
_atom_site_U_iso_or_equiv
_atom_site_adp_type
_atom_site_occupancy
C1     C     0.08737   0.16666   0.24936   0.00000  Uiso   1.00
C2     C     0.24597   0.16668   0.25026   0.00000  Uiso   1.00
C3     C     0.09674   0.19692   0.02402   0.00000  Uiso   1.00
C4     C     0.24176   0.15690   0.47556   0.00000  Uiso   1.00
C5     C     0.02127   0.12412   0.25018   0.00000  Uiso   1.00
C6     C     0.31206   0.20922   0.24916   0.00000  Uiso   1.00
C7     C     0.31201   0.12414   0.25064   0.00000  Uiso   1.00
C8     C     0.02133   0.20920   0.24867   0.00000  Uiso   1.00
C9     C     0.29059   0.16669   0.25013   0.00000  Uiso   1.00
C10    C     0.04275   0.16665   0.24925   0.00000  Uiso   1.00
C11    C     0.14064   0.02478   0.22312   0.00000  Uiso   1.00
C12    C     0.19270   0.30855   0.27686   0.00000  Uiso   1.00
C13    C     0.19271   0.02482   0.27686   0.00000  Uiso   1.00
C14    C     0.14064   0.30851   0.22312   0.00000  Uiso   1.00
C15    C     0.16725   0.16670   0.16454   0.00000  Uiso   1.00
C16    C     0.16630   0.16671   0.33541   0.00000  Uiso   1.00
C17    C     0.20478   0.16586   0.40556   0.00000  Uiso   1.00
C18    C     0.13308   0.18564   0.09404   0.00000  Uiso   1.00
C19    C     0.16670   0.16733   0.38364   0.00000  Uiso   1.00
C20    C     0.16756   0.16743   0.11619   0.00000  Uiso   1.00
C21    C     0.12940   0.17222   0.40740   0.00000  Uiso   1.00
C22    C     0.20289   0.15257   0.09256   0.00000  Uiso   1.00
C23    C     0.13068   0.18119   0.45354   0.00000  Uiso   1.00
C24    C     0.20534   0.16079   0.04624   0.00000  Uiso   1.00
C25    C     0.16824   0.17341   0.47638   0.00000  Uiso   1.00
C26    C     0.16879   0.17333   0.02335   0.00000  Uiso   1.00
C27    C     0.20516   0.16515   0.45235   0.00000  Uiso   1.00
C28    C     0.13260   0.18523   0.04728   0.00000  Uiso   1.00
C29    C     0.09569   0.19702   0.47784   0.00000  Uiso   1.00
C30    C     0.24279   0.15646   0.02176   0.00000  Uiso   1.00
Cu31   Cu    0.16667   0.21355   0.25000   0.00000  Uiso   1.00
Cu32   Cu    0.16667   0.11978   0.25000   0.00000  Uiso   1.00
H33    H     0.03729   0.09086   0.25066   0.00000  Uiso   1.00
H34    H     0.29605   0.24248   0.24872   0.00000  Uiso   1.00
H35    H     0.29596   0.09089   0.25139   0.00000  Uiso   1.00
H36    H     0.03738   0.24245   0.24792   0.00000  Uiso   1.00
N37    N     0.16667   0.28402   0.25000   0.00000  Uiso   1.00
N38    N     0.16667   0.04931   0.25000   0.00000  Uiso   1.00
O39    O     0.10655   0.20625   0.24999   0.00000  Uiso   1.00
O40    O     0.22679   0.12709   0.25000   0.00000  Uiso   1.00
O41    O     0.22679   0.20625   0.25000   0.00000  Uiso   1.00
O42    O     0.10655   0.12709   0.24999   0.00000  Uiso   1.00
O43    O     0.16666   0.20627   0.18513   0.00000  Uiso   1.00
O44    O     0.16668   0.12707   0.31487   0.00000  Uiso   1.00
O45    O     0.16668   0.20627   0.31487   0.00000  Uiso   1.00
O46    O     0.16666   0.12707   0.18513   0.00000  Uiso   1.00
C47    C     0.24351   0.16446   0.37867   0.00000  Uiso   1.00
H48    H     0.24558   0.14208   0.34967   0.00000  Uiso   1.00
O49    O     0.27244   0.19017   0.38728   0.00000  Uiso   1.00
C50    C     0.09737   0.20312   0.12066   0.00000  Uiso   1.00
H51    H     0.08613   0.18305   0.14879   0.00000  Uiso   1.00
O52    O     0.08190   0.24118   0.11291   0.00000  Uiso   1.00
C53    C     0.08945   0.16155   0.38548   0.00000  Uiso   1.00
H54    H     0.06582   0.14246   0.40359   0.00000  Uiso   1.00
O55    O     0.08189   0.17521   0.34811   0.00000  Uiso   1.00
C56    C     0.23498   0.12419   0.11522   0.00000  Uiso   1.00
H57    H     0.24792   0.09383   0.09857   0.00000  Uiso   1.00
O58    O     0.24842   0.13535   0.15140   0.00000  Uiso   1.00
C59    C     0.05959   0.21960   0.45641   0.00000  Uiso   1.00
H60    H     0.06283   0.23612   0.42420   0.00000  Uiso   1.00
O61    O     0.02601   0.22095   0.47488   0.00000  Uiso   1.00
C62    C     0.28411   0.15749   0.04287   0.00000  Uiso   1.00
H63    H     0.28846   0.17523   0.07428   0.00000  Uiso   1.00
O64    O     0.31394   0.13932   0.02496   0.00000  Uiso   1.00
H65    H     0.06895   0.20669   0.04158   0.00000  Uiso   1.00
H66    H     0.27035   0.15108   0.45789   0.00000  Uiso   1.00
H67    H     0.11979   0.04345   0.20159   0.00000  Uiso   1.00
H68    H     0.21356   0.28988   0.29839   0.00000  Uiso   1.00
H69    H     0.21357   0.04353   0.29839   0.00000  Uiso   1.00
H70    H     0.11979   0.28980   0.20158   0.00000  Uiso   1.00
C71    C     0.42070   0.16666   0.24936   0.00000  Uiso   1.00
C72    C     0.57930   0.16668   0.25026   0.00000  Uiso   1.00
C73    C     0.43007   0.19692   0.02402   0.00000  Uiso   1.00
C74    C     0.57509   0.15690   0.47556   0.00000  Uiso   1.00
C75    C     0.35461   0.12412   0.25018   0.00000  Uiso   1.00
C76    C     0.64540   0.20922   0.24916   0.00000  Uiso   1.00
C77    C     0.64535   0.12414   0.25064   0.00000  Uiso   1.00
C78    C     0.35466   0.20920   0.24867   0.00000  Uiso   1.00
C79    C     0.62392   0.16669   0.25013   0.00000  Uiso   1.00
C80    C     0.37608   0.16665   0.24925   0.00000  Uiso   1.00
C81    C     0.47397   0.02478   0.22312   0.00000  Uiso   1.00
C82    C     0.52604   0.30855   0.27686   0.00000  Uiso   1.00
C83    C     0.52604   0.02482   0.27686   0.00000  Uiso   1.00
C84    C     0.47397   0.30851   0.22312   0.00000  Uiso   1.00
C85    C     0.50058   0.16670   0.16454   0.00000  Uiso   1.00
C86    C     0.49963   0.16671   0.33541   0.00000  Uiso   1.00
C87    C     0.53811   0.16586   0.40556   0.00000  Uiso   1.00
C88    C     0.46642   0.18564   0.09404   0.00000  Uiso   1.00
C89    C     0.50003   0.16733   0.38364   0.00000  Uiso   1.00
C90    C     0.50090   0.16743   0.11619   0.00000  Uiso   1.00
C91    C     0.46273   0.17222   0.40740   0.00000  Uiso   1.00
C92    C     0.53622   0.15257   0.09256   0.00000  Uiso   1.00
C93    C     0.46402   0.18119   0.45354   0.00000  Uiso   1.00
C94    C     0.53868   0.16079   0.04624   0.00000  Uiso   1.00
C95    C     0.50158   0.17341   0.47638   0.00000  Uiso   1.00
C96    C     0.50213   0.17333   0.02335   0.00000  Uiso   1.00
C97    C     0.53849   0.16515   0.45235   0.00000  Uiso   1.00
C98    C     0.46593   0.18523   0.04728   0.00000  Uiso   1.00
C99    C     0.42903   0.19702   0.47784   0.00000  Uiso   1.00
C100   C     0.57612   0.15646   0.02176   0.00000  Uiso   1.00
Cu101  Cu    0.50000   0.21355   0.25000   0.00000  Uiso   1.00
Cu102  Cu    0.50000   0.11978   0.25000   0.00000  Uiso   1.00
H103   H     0.37062   0.09086   0.25066   0.00000  Uiso   1.00
H104   H     0.62938   0.24248   0.24872   0.00000  Uiso   1.00
H105   H     0.62929   0.09089   0.25139   0.00000  Uiso   1.00
H106   H     0.37071   0.24245   0.24792   0.00000  Uiso   1.00
N107   N     0.50000   0.28402   0.25000   0.00000  Uiso   1.00
N108   N     0.50000   0.04931   0.25000   0.00000  Uiso   1.00
O109   O     0.43988   0.20625   0.24999   0.00000  Uiso   1.00
O110   O     0.56012   0.12709   0.25000   0.00000  Uiso   1.00
O111   O     0.56012   0.20625   0.25000   0.00000  Uiso   1.00
O112   O     0.43988   0.12709   0.24999   0.00000  Uiso   1.00
O113   O     0.49999   0.20627   0.18513   0.00000  Uiso   1.00
O114   O     0.50001   0.12707   0.31487   0.00000  Uiso   1.00
O115   O     0.50001   0.20627   0.31487   0.00000  Uiso   1.00
O116   O     0.49999   0.12707   0.18513   0.00000  Uiso   1.00
C117   C     0.57684   0.16446   0.37867   0.00000  Uiso   1.00
H118   H     0.57891   0.14208   0.34967   0.00000  Uiso   1.00
O119   O     0.60577   0.19017   0.38728   0.00000  Uiso   1.00
C120   C     0.43070   0.20312   0.12066   0.00000  Uiso   1.00
H121   H     0.41946   0.18305   0.14879   0.00000  Uiso   1.00
O122   O     0.41524   0.24118   0.11291   0.00000  Uiso   1.00
C123   C     0.42278   0.16155   0.38548   0.00000  Uiso   1.00
H124   H     0.39915   0.14246   0.40359   0.00000  Uiso   1.00
O125   O     0.41522   0.17521   0.34811   0.00000  Uiso   1.00
C126   C     0.56831   0.12419   0.11522   0.00000  Uiso   1.00
H127   H     0.58125   0.09383   0.09857   0.00000  Uiso   1.00
O128   O     0.58176   0.13535   0.15140   0.00000  Uiso   1.00
C129   C     0.39292   0.21960   0.45641   0.00000  Uiso   1.00
H130   H     0.39616   0.23612   0.42420   0.00000  Uiso   1.00
O131   O     0.35934   0.22095   0.47488   0.00000  Uiso   1.00
C132   C     0.61744   0.15749   0.04287   0.00000  Uiso   1.00
H133   H     0.62179   0.17523   0.07428   0.00000  Uiso   1.00
O134   O     0.64728   0.13932   0.02496   0.00000  Uiso   1.00
H135   H     0.40228   0.20669   0.04158   0.00000  Uiso   1.00
H136   H     0.60369   0.15108   0.45789   0.00000  Uiso   1.00
H137   H     0.45312   0.04345   0.20159   0.00000  Uiso   1.00
H138   H     0.54690   0.28988   0.29839   0.00000  Uiso   1.00
H139   H     0.54690   0.04353   0.29839   0.00000  Uiso   1.00
H140   H     0.45313   0.28980   0.20158   0.00000  Uiso   1.00
C141   C     0.75404   0.16666   0.24936   0.00000  Uiso   1.00
C142   C     0.91264   0.16668   0.25026   0.00000  Uiso   1.00
C143   C     0.76341   0.19692   0.02402   0.00000  Uiso   1.00
C144   C     0.90842   0.15690   0.47556   0.00000  Uiso   1.00
C145   C     0.68794   0.12412   0.25018   0.00000  Uiso   1.00
C146   C     0.97873   0.20922   0.24916   0.00000  Uiso   1.00
C147   C     0.97868   0.12414   0.25064   0.00000  Uiso   1.00
C148   C     0.68799   0.20920   0.24867   0.00000  Uiso   1.00
C149   C     0.95725   0.16669   0.25013   0.00000  Uiso   1.00
C150   C     0.70942   0.16665   0.24925   0.00000  Uiso   1.00
C151   C     0.80730   0.02478   0.22312   0.00000  Uiso   1.00
C152   C     0.85937   0.30855   0.27686   0.00000  Uiso   1.00
C153   C     0.85937   0.02482   0.27686   0.00000  Uiso   1.00
C154   C     0.80731   0.30851   0.22312   0.00000  Uiso   1.00
C155   C     0.83392   0.16670   0.16454   0.00000  Uiso   1.00
C156   C     0.83296   0.16671   0.33541   0.00000  Uiso   1.00
C157   C     0.87145   0.16586   0.40556   0.00000  Uiso   1.00
C158   C     0.79975   0.18564   0.09404   0.00000  Uiso   1.00
C159   C     0.83336   0.16733   0.38364   0.00000  Uiso   1.00
C160   C     0.83423   0.16743   0.11619   0.00000  Uiso   1.00
C161   C     0.79606   0.17222   0.40740   0.00000  Uiso   1.00
C162   C     0.86956   0.15257   0.09256   0.00000  Uiso   1.00
C163   C     0.79735   0.18119   0.45354   0.00000  Uiso   1.00
C164   C     0.87201   0.16079   0.04624   0.00000  Uiso   1.00
C165   C     0.83491   0.17341   0.47638   0.00000  Uiso   1.00
C166   C     0.83546   0.17333   0.02335   0.00000  Uiso   1.00
C167   C     0.87183   0.16515   0.45235   0.00000  Uiso   1.00
C168   C     0.79926   0.18523   0.04728   0.00000  Uiso   1.00
C169   C     0.76236   0.19702   0.47784   0.00000  Uiso   1.00
C170   C     0.90946   0.15646   0.02176   0.00000  Uiso   1.00
Cu171  Cu    0.83333   0.21355   0.25000   0.00000  Uiso   1.00
Cu172  Cu    0.83333   0.11978   0.25000   0.00000  Uiso   1.00
H173   H     0.70395   0.09086   0.25066   0.00000  Uiso   1.00
H174   H     0.96272   0.24248   0.24872   0.00000  Uiso   1.00
H175   H     0.96263   0.09089   0.25139   0.00000  Uiso   1.00
H176   H     0.70405   0.24245   0.24792   0.00000  Uiso   1.00
N177   N     0.83333   0.28402   0.25000   0.00000  Uiso   1.00
N178   N     0.83333   0.04931   0.25000   0.00000  Uiso   1.00
O179   O     0.77321   0.20625   0.24999   0.00000  Uiso   1.00
O180   O     0.89345   0.12709   0.25000   0.00000  Uiso   1.00
O181   O     0.89345   0.20625   0.25000   0.00000  Uiso   1.00
O182   O     0.77321   0.12709   0.24999   0.00000  Uiso   1.00
O183   O     0.83332   0.20627   0.18513   0.00000  Uiso   1.00
O184   O     0.83334   0.12707   0.31487   0.00000  Uiso   1.00
O185   O     0.83334   0.20627   0.31487   0.00000  Uiso   1.00
O186   O     0.83332   0.12707   0.18513   0.00000  Uiso   1.00
C187   C     0.91017   0.16446   0.37867   0.00000  Uiso   1.00
H188   H     0.91225   0.14208   0.34967   0.00000  Uiso   1.00
O189   O     0.93911   0.19017   0.38728   0.00000  Uiso   1.00
C190   C     0.76404   0.20312   0.12066   0.00000  Uiso   1.00
H191   H     0.75279   0.18305   0.14879   0.00000  Uiso   1.00
O192   O     0.74857   0.24118   0.11291   0.00000  Uiso   1.00
C193   C     0.75611   0.16155   0.38548   0.00000  Uiso   1.00
H194   H     0.73249   0.14246   0.40359   0.00000  Uiso   1.00
O195   O     0.74855   0.17521   0.34811   0.00000  Uiso   1.00
C196   C     0.90164   0.12419   0.11522   0.00000  Uiso   1.00
H197   H     0.91458   0.09383   0.09857   0.00000  Uiso   1.00
O198   O     0.91509   0.13535   0.15140   0.00000  Uiso   1.00
C199   C     0.72625   0.21960   0.45641   0.00000  Uiso   1.00
H200   H     0.72949   0.23612   0.42420   0.00000  Uiso   1.00
O201   O     0.69268   0.22095   0.47488   0.00000  Uiso   1.00
C202   C     0.95078   0.15749   0.04287   0.00000  Uiso   1.00
H203   H     0.95513   0.17523   0.07428   0.00000  Uiso   1.00
O204   O     0.98061   0.13932   0.02496   0.00000  Uiso   1.00
H205   H     0.73562   0.20669   0.04158   0.00000  Uiso   1.00
H206   H     0.93702   0.15108   0.45789   0.00000  Uiso   1.00
H207   H     0.78645   0.04345   0.20159   0.00000  Uiso   1.00
H208   H     0.88023   0.28988   0.29839   0.00000  Uiso   1.00
H209   H     0.88023   0.04353   0.29839   0.00000  Uiso   1.00
H210   H     0.78646   0.28980   0.20158   0.00000  Uiso   1.00
C211   C     0.08737   0.49999   0.24936   0.00000  Uiso   1.00
C212   C     0.24597   0.50002   0.25026   0.00000  Uiso   1.00
C213   C     0.09674   0.53026   0.02402   0.00000  Uiso   1.00
C214   C     0.24176   0.49023   0.47556   0.00000  Uiso   1.00
C215   C     0.02127   0.45745   0.25018   0.00000  Uiso   1.00
C216   C     0.31206   0.54256   0.24916   0.00000  Uiso   1.00
C217   C     0.31201   0.45747   0.25064   0.00000  Uiso   1.00
C218   C     0.02133   0.54254   0.24867   0.00000  Uiso   1.00
C219   C     0.29059   0.50002   0.25013   0.00000  Uiso   1.00
C220   C     0.04275   0.49999   0.24925   0.00000  Uiso   1.00
C221   C     0.14064   0.35811   0.22312   0.00000  Uiso   1.00
C222   C     0.19270   0.64188   0.27686   0.00000  Uiso   1.00
C223   C     0.19271   0.35816   0.27686   0.00000  Uiso   1.00
C224   C     0.14064   0.64184   0.22312   0.00000  Uiso   1.00
C225   C     0.16725   0.50004   0.16454   0.00000  Uiso   1.00
C226   C     0.16630   0.50005   0.33541   0.00000  Uiso   1.00
C227   C     0.20478   0.49919   0.40556   0.00000  Uiso   1.00
C228   C     0.13308   0.51898   0.09404   0.00000  Uiso   1.00
C229   C     0.16670   0.50066   0.38364   0.00000  Uiso   1.00
C230   C     0.16756   0.50076   0.11619   0.00000  Uiso   1.00
C231   C     0.12940   0.50555   0.40740   0.00000  Uiso   1.00
C232   C     0.20289   0.48591   0.09256   0.00000  Uiso   1.00
C233   C     0.13068   0.51452   0.45354   0.00000  Uiso   1.00
C234   C     0.20534   0.49413   0.04624   0.00000  Uiso   1.00
C235   C     0.16824   0.50675   0.47638   0.00000  Uiso   1.00
C236   C     0.16879   0.50666   0.02335   0.00000  Uiso   1.00
C237   C     0.20516   0.49849   0.45235   0.00000  Uiso   1.00
C238   C     0.13260   0.51856   0.04728   0.00000  Uiso   1.00
C239   C     0.09569   0.53036   0.47784   0.00000  Uiso   1.00
C240   C     0.24279   0.48979   0.02176   0.00000  Uiso   1.00
Cu241  Cu    0.16667   0.54689   0.25000   0.00000  Uiso   1.00
Cu242  Cu    0.16667   0.45311   0.25000   0.00000  Uiso   1.00
H243   H     0.03729   0.42420   0.25066   0.00000  Uiso   1.00
H244   H     0.29605   0.57581   0.24872   0.00000  Uiso   1.00
H245   H     0.29596   0.42422   0.25139   0.00000  Uiso   1.00
H246   H     0.03738   0.57578   0.24792   0.00000  Uiso   1.00
N247   N     0.16667   0.61736   0.25000   0.00000  Uiso   1.00
N248   N     0.16667   0.38264   0.25000   0.00000  Uiso   1.00
O249   O     0.10655   0.53958   0.24999   0.00000  Uiso   1.00
O250   O     0.22679   0.46042   0.25000   0.00000  Uiso   1.00
O251   O     0.22679   0.53958   0.25000   0.00000  Uiso   1.00
O252   O     0.10655   0.46042   0.24999   0.00000  Uiso   1.00
O253   O     0.16666   0.53960   0.18513   0.00000  Uiso   1.00
O254   O     0.16668   0.46040   0.31487   0.00000  Uiso   1.00
O255   O     0.16668   0.53960   0.31487   0.00000  Uiso   1.00
O256   O     0.16666   0.46040   0.18513   0.00000  Uiso   1.00
C257   C     0.24351   0.49780   0.37867   0.00000  Uiso   1.00
H258   H     0.24558   0.47541   0.34967   0.00000  Uiso   1.00
O259   O     0.27244   0.52351   0.38728   0.00000  Uiso   1.00
C260   C     0.09737   0.53645   0.12066   0.00000  Uiso   1.00
H261   H     0.08613   0.51639   0.14879   0.00000  Uiso   1.00
O262   O     0.08190   0.57452   0.11291   0.00000  Uiso   1.00
C263   C     0.08945   0.49488   0.38548   0.00000  Uiso   1.00
H264   H     0.06582   0.47580   0.40359   0.00000  Uiso   1.00
O265   O     0.08189   0.50855   0.34811   0.00000  Uiso   1.00
C266   C     0.23498   0.45752   0.11522   0.00000  Uiso   1.00
H267   H     0.24792   0.42717   0.09857   0.00000  Uiso   1.00
O268   O     0.24842   0.46869   0.15140   0.00000  Uiso   1.00
C269   C     0.05959   0.55294   0.45641   0.00000  Uiso   1.00
H270   H     0.06283   0.56945   0.42420   0.00000  Uiso   1.00
O271   O     0.02601   0.55428   0.47488   0.00000  Uiso   1.00
C272   C     0.28411   0.49082   0.04287   0.00000  Uiso   1.00
H273   H     0.28846   0.50857   0.07428   0.00000  Uiso   1.00
O274   O     0.31394   0.47266   0.02496   0.00000  Uiso   1.00
H275   H     0.06895   0.54003   0.04158   0.00000  Uiso   1.00
H276   H     0.27035   0.48441   0.45789   0.00000  Uiso   1.00
H277   H     0.11979   0.37678   0.20159   0.00000  Uiso   1.00
H278   H     0.21356   0.62321   0.29839   0.00000  Uiso   1.00
H279   H     0.21357   0.37687   0.29839   0.00000  Uiso   1.00
H280   H     0.11979   0.62313   0.20158   0.00000  Uiso   1.00
C281   C     0.42070   0.49999   0.24936   0.00000  Uiso   1.00
C282   C     0.57930   0.50002   0.25026   0.00000  Uiso   1.00
C283   C     0.43007   0.53026   0.02402   0.00000  Uiso   1.00
C284   C     0.57509   0.49023   0.47556   0.00000  Uiso   1.00
C285   C     0.35461   0.45745   0.25018   0.00000  Uiso   1.00
C286   C     0.64540   0.54256   0.24916   0.00000  Uiso   1.00
C287   C     0.64535   0.45747   0.25064   0.00000  Uiso   1.00
C288   C     0.35466   0.54254   0.24867   0.00000  Uiso   1.00
C289   C     0.62392   0.50002   0.25013   0.00000  Uiso   1.00
C290   C     0.37608   0.49999   0.24925   0.00000  Uiso   1.00
C291   C     0.47397   0.35811   0.22312   0.00000  Uiso   1.00
C292   C     0.52604   0.64188   0.27686   0.00000  Uiso   1.00
C293   C     0.52604   0.35816   0.27686   0.00000  Uiso   1.00
C294   C     0.47397   0.64184   0.22312   0.00000  Uiso   1.00
C295   C     0.50058   0.50004   0.16454   0.00000  Uiso   1.00
C296   C     0.49963   0.50005   0.33541   0.00000  Uiso   1.00
C297   C     0.53811   0.49919   0.40556   0.00000  Uiso   1.00
C298   C     0.46642   0.51898   0.09404   0.00000  Uiso   1.00
C299   C     0.50003   0.50066   0.38364   0.00000  Uiso   1.00
C300   C     0.50090   0.50076   0.11619   0.00000  Uiso   1.00
C301   C     0.46273   0.50555   0.40740   0.00000  Uiso   1.00
C302   C     0.53622   0.48591   0.09256   0.00000  Uiso   1.00
C303   C     0.46402   0.51452   0.45354   0.00000  Uiso   1.00
C304   C     0.53868   0.49413   0.04624   0.00000  Uiso   1.00
C305   C     0.50158   0.50675   0.47638   0.00000  Uiso   1.00
C306   C     0.50213   0.50666   0.02335   0.00000  Uiso   1.00
C307   C     0.53849   0.49849   0.45235   0.00000  Uiso   1.00
C308   C     0.46593   0.51856   0.04728   0.00000  Uiso   1.00
C309   C     0.42903   0.53036   0.47784   0.00000  Uiso   1.00
C310   C     0.57612   0.48979   0.02176   0.00000  Uiso   1.00
Cu311  Cu    0.50000   0.54689   0.25000   0.00000  Uiso   1.00
Cu312  Cu    0.50000   0.45311   0.25000   0.00000  Uiso   1.00
H313   H     0.37062   0.42420   0.25066   0.00000  Uiso   1.00
H314   H     0.62938   0.57581   0.24872   0.00000  Uiso   1.00
H315   H     0.62929   0.42422   0.25139   0.00000  Uiso   1.00
H316   H     0.37071   0.57578   0.24792   0.00000  Uiso   1.00
N317   N     0.50000   0.61736   0.25000   0.00000  Uiso   1.00
N318   N     0.50000   0.38264   0.25000   0.00000  Uiso   1.00
O319   O     0.43988   0.53958   0.24999   0.00000  Uiso   1.00
O320   O     0.56012   0.46042   0.25000   0.00000  Uiso   1.00
O321   O     0.56012   0.53958   0.25000   0.00000  Uiso   1.00
O322   O     0.43988   0.46042   0.24999   0.00000  Uiso   1.00
O323   O     0.49999   0.53960   0.18513   0.00000  Uiso   1.00
O324   O     0.50001   0.46040   0.31487   0.00000  Uiso   1.00
O325   O     0.50001   0.53960   0.31487   0.00000  Uiso   1.00
O326   O     0.49999   0.46040   0.18513   0.00000  Uiso   1.00
C327   C     0.57684   0.49780   0.37867   0.00000  Uiso   1.00
H328   H     0.57891   0.47541   0.34967   0.00000  Uiso   1.00
O329   O     0.60577   0.52351   0.38728   0.00000  Uiso   1.00
C330   C     0.43070   0.53645   0.12066   0.00000  Uiso   1.00
H331   H     0.41946   0.51639   0.14879   0.00000  Uiso   1.00
O332   O     0.41524   0.57452   0.11291   0.00000  Uiso   1.00
C333   C     0.42278   0.49488   0.38548   0.00000  Uiso   1.00
H334   H     0.39915   0.47580   0.40359   0.00000  Uiso   1.00
O335   O     0.41522   0.50855   0.34811   0.00000  Uiso   1.00
C336   C     0.56831   0.45752   0.11522   0.00000  Uiso   1.00
H337   H     0.58125   0.42717   0.09857   0.00000  Uiso   1.00
O338   O     0.58176   0.46869   0.15140   0.00000  Uiso   1.00
C339   C     0.39292   0.55294   0.45641   0.00000  Uiso   1.00
H340   H     0.39616   0.56945   0.42420   0.00000  Uiso   1.00
O341   O     0.35934   0.55428   0.47488   0.00000  Uiso   1.00
C342   C     0.61744   0.49082   0.04287   0.00000  Uiso   1.00
H343   H     0.62179   0.50857   0.07428   0.00000  Uiso   1.00
O344   O     0.64728   0.47266   0.02496   0.00000  Uiso   1.00
H345   H     0.40228   0.54003   0.04158   0.00000  Uiso   1.00
H346   H     0.60369   0.48441   0.45789   0.00000  Uiso   1.00
H347   H     0.45312   0.37678   0.20159   0.00000  Uiso   1.00
H348   H     0.54690   0.62321   0.29839   0.00000  Uiso   1.00
H349   H     0.54690   0.37687   0.29839   0.00000  Uiso   1.00
H350   H     0.45313   0.62313   0.20158   0.00000  Uiso   1.00
C351   C     0.75404   0.49999   0.24936   0.00000  Uiso   1.00
C352   C     0.91264   0.50002   0.25026   0.00000  Uiso   1.00
C353   C     0.76341   0.53026   0.02402   0.00000  Uiso   1.00
C354   C     0.90842   0.49023   0.47556   0.00000  Uiso   1.00
C355   C     0.68794   0.45745   0.25018   0.00000  Uiso   1.00
C356   C     0.97873   0.54256   0.24916   0.00000  Uiso   1.00
C357   C     0.97868   0.45747   0.25064   0.00000  Uiso   1.00
C358   C     0.68799   0.54254   0.24867   0.00000  Uiso   1.00
C359   C     0.95725   0.50002   0.25013   0.00000  Uiso   1.00
C360   C     0.70942   0.49999   0.24925   0.00000  Uiso   1.00
C361   C     0.80730   0.35811   0.22312   0.00000  Uiso   1.00
C362   C     0.85937   0.64188   0.27686   0.00000  Uiso   1.00
C363   C     0.85937   0.35816   0.27686   0.00000  Uiso   1.00
C364   C     0.80731   0.64184   0.22312   0.00000  Uiso   1.00
C365   C     0.83392   0.50004   0.16454   0.00000  Uiso   1.00
C366   C     0.83296   0.50005   0.33541   0.00000  Uiso   1.00
C367   C     0.87145   0.49919   0.40556   0.00000  Uiso   1.00
C368   C     0.79975   0.51898   0.09404   0.00000  Uiso   1.00
C369   C     0.83336   0.50066   0.38364   0.00000  Uiso   1.00
C370   C     0.83423   0.50076   0.11619   0.00000  Uiso   1.00
C371   C     0.79606   0.50555   0.40740   0.00000  Uiso   1.00
C372   C     0.86956   0.48591   0.09256   0.00000  Uiso   1.00
C373   C     0.79735   0.51452   0.45354   0.00000  Uiso   1.00
C374   C     0.87201   0.49413   0.04624   0.00000  Uiso   1.00
C375   C     0.83491   0.50675   0.47638   0.00000  Uiso   1.00
C376   C     0.83546   0.50666   0.02335   0.00000  Uiso   1.00
C377   C     0.87183   0.49849   0.45235   0.00000  Uiso   1.00
C378   C     0.79926   0.51856   0.04728   0.00000  Uiso   1.00
C379   C     0.76236   0.53036   0.47784   0.00000  Uiso   1.00
C380   C     0.90946   0.48979   0.02176   0.00000  Uiso   1.00
Cu381  Cu    0.83333   0.54689   0.25000   0.00000  Uiso   1.00
Cu382  Cu    0.83333   0.45311   0.25000   0.00000  Uiso   1.00
H383   H     0.70395   0.42420   0.25066   0.00000  Uiso   1.00
H384   H     0.96272   0.57581   0.24872   0.00000  Uiso   1.00
H385   H     0.96263   0.42422   0.25139   0.00000  Uiso   1.00
H386   H     0.70405   0.57578   0.24792   0.00000  Uiso   1.00
N387   N     0.83333   0.61736   0.25000   0.00000  Uiso   1.00
N388   N     0.83333   0.38264   0.25000   0.00000  Uiso   1.00
O389   O     0.77321   0.53958   0.24999   0.00000  Uiso   1.00
O390   O     0.89345   0.46042   0.25000   0.00000  Uiso   1.00
O391   O     0.89345   0.53958   0.25000   0.00000  Uiso   1.00
O392   O     0.77321   0.46042   0.24999   0.00000  Uiso   1.00
O393   O     0.83332   0.53960   0.18513   0.00000  Uiso   1.00
O394   O     0.83334   0.46040   0.31487   0.00000  Uiso   1.00
O395   O     0.83334   0.53960   0.31487   0.00000  Uiso   1.00
O396   O     0.83332   0.46040   0.18513   0.00000  Uiso   1.00
C397   C     0.91017   0.49780   0.37867   0.00000  Uiso   1.00
H398   H     0.91225   0.47541   0.34967   0.00000  Uiso   1.00
O399   O     0.93911   0.52351   0.38728   0.00000  Uiso   1.00
C400   C     0.76404   0.53645   0.12066   0.00000  Uiso   1.00
H401   H     0.75279   0.51639   0.14879   0.00000  Uiso   1.00
O402   O     0.74857   0.57452   0.11291   0.00000  Uiso   1.00
C403   C     0.75611   0.49488   0.38548   0.00000  Uiso   1.00
H404   H     0.73249   0.47580   0.40359   0.00000  Uiso   1.00
O405   O     0.74855   0.50855   0.34811   0.00000  Uiso   1.00
C406   C     0.90164   0.45752   0.11522   0.00000  Uiso   1.00
H407   H     0.91458   0.42717   0.09857   0.00000  Uiso   1.00
O408   O     0.91509   0.46869   0.15140   0.00000  Uiso   1.00
C409   C     0.72625   0.55294   0.45641   0.00000  Uiso   1.00
H410   H     0.72949   0.56945   0.42420   0.00000  Uiso   1.00
O411   O     0.69268   0.55428   0.47488   0.00000  Uiso   1.00
C412   C     0.95078   0.49082   0.04287   0.00000  Uiso   1.00
H413   H     0.95513   0.50857   0.07428   0.00000  Uiso   1.00
O414   O     0.98061   0.47266   0.02496   0.00000  Uiso   1.00
H415   H     0.73562   0.54003   0.04158   0.00000  Uiso   1.00
H416   H     0.93702   0.48441   0.45789   0.00000  Uiso   1.00
H417   H     0.78645   0.37678   0.20159   0.00000  Uiso   1.00
H418   H     0.88023   0.62321   0.29839   0.00000  Uiso   1.00
H419   H     0.88023   0.37687   0.29839   0.00000  Uiso   1.00
H420   H     0.78646   0.62313   0.20158   0.00000  Uiso   1.00
C421   C     0.08737   0.83332   0.24936   0.00000  Uiso   1.00
C422   C     0.24597   0.83335   0.25026   0.00000  Uiso   1.00
C423   C     0.09674   0.86359   0.02402   0.00000  Uiso   1.00
C424   C     0.24176   0.82356   0.47556   0.00000  Uiso   1.00
C425   C     0.02127   0.79079   0.25018   0.00000  Uiso   1.00
C426   C     0.31206   0.87589   0.24916   0.00000  Uiso   1.00
C427   C     0.31201   0.79081   0.25064   0.00000  Uiso   1.00
C428   C     0.02133   0.87587   0.24867   0.00000  Uiso   1.00
C429   C     0.29059   0.83336   0.25013   0.00000  Uiso   1.00
C430   C     0.04275   0.83332   0.24925   0.00000  Uiso   1.00
C431   C     0.14064   0.69145   0.22312   0.00000  Uiso   1.00
C432   C     0.19270   0.97522   0.27686   0.00000  Uiso   1.00
C433   C     0.19271   0.69149   0.27686   0.00000  Uiso   1.00
C434   C     0.14064   0.97517   0.22312   0.00000  Uiso   1.00
C435   C     0.16725   0.83337   0.16454   0.00000  Uiso   1.00
C436   C     0.16630   0.83338   0.33541   0.00000  Uiso   1.00
C437   C     0.20478   0.83252   0.40556   0.00000  Uiso   1.00
C438   C     0.13308   0.85231   0.09404   0.00000  Uiso   1.00
C439   C     0.16670   0.83400   0.38364   0.00000  Uiso   1.00
C440   C     0.16756   0.83409   0.11619   0.00000  Uiso   1.00
C441   C     0.12940   0.83888   0.40740   0.00000  Uiso   1.00
C442   C     0.20289   0.81924   0.09256   0.00000  Uiso   1.00
C443   C     0.13068   0.84786   0.45354   0.00000  Uiso   1.00
C444   C     0.20534   0.82746   0.04624   0.00000  Uiso   1.00
C445   C     0.16824   0.84008   0.47638   0.00000  Uiso   1.00
C446   C     0.16879   0.84000   0.02335   0.00000  Uiso   1.00
C447   C     0.20516   0.83182   0.45235   0.00000  Uiso   1.00
C448   C     0.13260   0.85189   0.04728   0.00000  Uiso   1.00
C449   C     0.09569   0.86369   0.47784   0.00000  Uiso   1.00
C450   C     0.24279   0.82313   0.02176   0.00000  Uiso   1.00
Cu451  Cu    0.16667   0.88022   0.25000   0.00000  Uiso   1.00
Cu452  Cu    0.16667   0.78645   0.25000   0.00000  Uiso   1.00
H453   H     0.03729   0.75753   0.25066   0.00000  Uiso   1.00
H454   H     0.29605   0.90915   0.24872   0.00000  Uiso   1.00
H455   H     0.29596   0.75756   0.25139   0.00000  Uiso   1.00
H456   H     0.03738   0.90912   0.24792   0.00000  Uiso   1.00
N457   N     0.16667   0.95069   0.25000   0.00000  Uiso   1.00
N458   N     0.16667   0.71598   0.25000   0.00000  Uiso   1.00
O459   O     0.10655   0.87291   0.24999   0.00000  Uiso   1.00
O460   O     0.22679   0.79375   0.25000   0.00000  Uiso   1.00
O461   O     0.22679   0.87291   0.25000   0.00000  Uiso   1.00
O462   O     0.10655   0.79375   0.24999   0.00000  Uiso   1.00
O463   O     0.16666   0.87293   0.18513   0.00000  Uiso   1.00
O464   O     0.16668   0.79373   0.31487   0.00000  Uiso   1.00
O465   O     0.16668   0.87293   0.31487   0.00000  Uiso   1.00
O466   O     0.16666   0.79373   0.18513   0.00000  Uiso   1.00
C467   C     0.24351   0.83113   0.37867   0.00000  Uiso   1.00
H468   H     0.24558   0.80874   0.34967   0.00000  Uiso   1.00
O469   O     0.27244   0.85684   0.38728   0.00000  Uiso   1.00
C470   C     0.09737   0.86979   0.12066   0.00000  Uiso   1.00
H471   H     0.08613   0.84972   0.14879   0.00000  Uiso   1.00
O472   O     0.08190   0.90785   0.11291   0.00000  Uiso   1.00
C473   C     0.08945   0.82822   0.38548   0.00000  Uiso   1.00
H474   H     0.06582   0.80913   0.40359   0.00000  Uiso   1.00
O475   O     0.08189   0.84188   0.34811   0.00000  Uiso   1.00
C476   C     0.23498   0.79086   0.11522   0.00000  Uiso   1.00
H477   H     0.24792   0.76050   0.09857   0.00000  Uiso   1.00
O478   O     0.24842   0.80202   0.15140   0.00000  Uiso   1.00
C479   C     0.05959   0.88627   0.45641   0.00000  Uiso   1.00
H480   H     0.06283   0.90279   0.42420   0.00000  Uiso   1.00
O481   O     0.02601   0.88761   0.47488   0.00000  Uiso   1.00
C482   C     0.28411   0.82415   0.04287   0.00000  Uiso   1.00
H483   H     0.28846   0.84190   0.07428   0.00000  Uiso   1.00
O484   O     0.31394   0.80599   0.02496   0.00000  Uiso   1.00
H485   H     0.06895   0.87336   0.04158   0.00000  Uiso   1.00
H486   H     0.27035   0.81774   0.45789   0.00000  Uiso   1.00
H487   H     0.11979   0.71012   0.20159   0.00000  Uiso   1.00
H488   H     0.21356   0.95654   0.29839   0.00000  Uiso   1.00
H489   H     0.21357   0.71020   0.29839   0.00000  Uiso   1.00
H490   H     0.11979   0.95646   0.20158   0.00000  Uiso   1.00
C491   C     0.42070   0.83332   0.24936   0.00000  Uiso   1.00
C492   C     0.57930   0.83335   0.25026   0.00000  Uiso   1.00
C493   C     0.43007   0.86359   0.02402   0.00000  Uiso   1.00
C494   C     0.57509   0.82356   0.47556   0.00000  Uiso   1.00
C495   C     0.35461   0.79079   0.25018   0.00000  Uiso   1.00
C496   C     0.64540   0.87589   0.24916   0.00000  Uiso   1.00
C497   C     0.64535   0.79081   0.25064   0.00000  Uiso   1.00
C498   C     0.35466   0.87587   0.24867   0.00000  Uiso   1.00
C499   C     0.62392   0.83336   0.25013   0.00000  Uiso   1.00
C500   C     0.37608   0.83332   0.24925   0.00000  Uiso   1.00
C501   C     0.47397   0.69145   0.22312   0.00000  Uiso   1.00
C502   C     0.52604   0.97522   0.27686   0.00000  Uiso   1.00
C503   C     0.52604   0.69149   0.27686   0.00000  Uiso   1.00
C504   C     0.47397   0.97517   0.22312   0.00000  Uiso   1.00
C505   C     0.50058   0.83337   0.16454   0.00000  Uiso   1.00
C506   C     0.49963   0.83338   0.33541   0.00000  Uiso   1.00
C507   C     0.53811   0.83252   0.40556   0.00000  Uiso   1.00
C508   C     0.46642   0.85231   0.09404   0.00000  Uiso   1.00
C509   C     0.50003   0.83400   0.38364   0.00000  Uiso   1.00
C510   C     0.50090   0.83409   0.11619   0.00000  Uiso   1.00
C511   C     0.46273   0.83888   0.40740   0.00000  Uiso   1.00
C512   C     0.53622   0.81924   0.09256   0.00000  Uiso   1.00
C513   C     0.46402   0.84786   0.45354   0.00000  Uiso   1.00
C514   C     0.53868   0.82746   0.04624   0.00000  Uiso   1.00
C515   C     0.50158   0.84008   0.47638   0.00000  Uiso   1.00
C516   C     0.50213   0.84000   0.02335   0.00000  Uiso   1.00
C517   C     0.53849   0.83182   0.45235   0.00000  Uiso   1.00
C518   C     0.46593   0.85189   0.04728   0.00000  Uiso   1.00
C519   C     0.42903   0.86369   0.47784   0.00000  Uiso   1.00
C520   C     0.57612   0.82313   0.02176   0.00000  Uiso   1.00
Cu521  Cu    0.50000   0.88022   0.25000   0.00000  Uiso   1.00
Cu522  Cu    0.50000   0.78645   0.25000   0.00000  Uiso   1.00
H523   H     0.37062   0.75753   0.25066   0.00000  Uiso   1.00
H524   H     0.62938   0.90915   0.24872   0.00000  Uiso   1.00
H525   H     0.62929   0.75756   0.25139   0.00000  Uiso   1.00
H526   H     0.37071   0.90912   0.24792   0.00000  Uiso   1.00
N527   N     0.50000   0.95069   0.25000   0.00000  Uiso   1.00
N528   N     0.50000   0.71598   0.25000   0.00000  Uiso   1.00
O529   O     0.43988   0.87291   0.24999   0.00000  Uiso   1.00
O530   O     0.56012   0.79375   0.25000   0.00000  Uiso   1.00
O531   O     0.56012   0.87291   0.25000   0.00000  Uiso   1.00
O532   O     0.43988   0.79375   0.24999   0.00000  Uiso   1.00
O533   O     0.49999   0.87293   0.18513   0.00000  Uiso   1.00
O534   O     0.50001   0.79373   0.31487   0.00000  Uiso   1.00
O535   O     0.50001   0.87293   0.31487   0.00000  Uiso   1.00
O536   O     0.49999   0.79373   0.18513   0.00000  Uiso   1.00
C537   C     0.57684   0.83113   0.37867   0.00000  Uiso   1.00
H538   H     0.57891   0.80874   0.34967   0.00000  Uiso   1.00
O539   O     0.60577   0.85684   0.38728   0.00000  Uiso   1.00
C540   C     0.43070   0.86979   0.12066   0.00000  Uiso   1.00
H541   H     0.41946   0.84972   0.14879   0.00000  Uiso   1.00
O542   O     0.41524   0.90785   0.11291   0.00000  Uiso   1.00
C543   C     0.42278   0.82822   0.38548   0.00000  Uiso   1.00
H544   H     0.39915   0.80913   0.40359   0.00000  Uiso   1.00
O545   O     0.41522   0.84188   0.34811   0.00000  Uiso   1.00
C546   C     0.56831   0.79086   0.11522   0.00000  Uiso   1.00
H547   H     0.58125   0.76050   0.09857   0.00000  Uiso   1.00
O548   O     0.58176   0.80202   0.15140   0.00000  Uiso   1.00
C549   C     0.39292   0.88627   0.45641   0.00000  Uiso   1.00
H550   H     0.39616   0.90279   0.42420   0.00000  Uiso   1.00
O551   O     0.35934   0.88761   0.47488   0.00000  Uiso   1.00
C552   C     0.61744   0.82415   0.04287   0.00000  Uiso   1.00
H553   H     0.62179   0.84190   0.07428   0.00000  Uiso   1.00
O554   O     0.64728   0.80599   0.02496   0.00000  Uiso   1.00
H555   H     0.40228   0.87336   0.04158   0.00000  Uiso   1.00
H556   H     0.60369   0.81774   0.45789   0.00000  Uiso   1.00
H557   H     0.45312   0.71012   0.20159   0.00000  Uiso   1.00
H558   H     0.54690   0.95654   0.29839   0.00000  Uiso   1.00
H559   H     0.54690   0.71020   0.29839   0.00000  Uiso   1.00
H560   H     0.45313   0.95646   0.20158   0.00000  Uiso   1.00
C561   C     0.75404   0.83332   0.24936   0.00000  Uiso   1.00
C562   C     0.91264   0.83335   0.25026   0.00000  Uiso   1.00
C563   C     0.76341   0.86359   0.02402   0.00000  Uiso   1.00
C564   C     0.90842   0.82356   0.47556   0.00000  Uiso   1.00
C565   C     0.68794   0.79079   0.25018   0.00000  Uiso   1.00
C566   C     0.97873   0.87589   0.24916   0.00000  Uiso   1.00
C567   C     0.97868   0.79081   0.25064   0.00000  Uiso   1.00
C568   C     0.68799   0.87587   0.24867   0.00000  Uiso   1.00
C569   C     0.95725   0.83336   0.25013   0.00000  Uiso   1.00
C570   C     0.70942   0.83332   0.24925   0.00000  Uiso   1.00
C571   C     0.80730   0.69145   0.22312   0.00000  Uiso   1.00
C572   C     0.85937   0.97522   0.27686   0.00000  Uiso   1.00
C573   C     0.85937   0.69149   0.27686   0.00000  Uiso   1.00
C574   C     0.80731   0.97517   0.22312   0.00000  Uiso   1.00
C575   C     0.83392   0.83337   0.16454   0.00000  Uiso   1.00
C576   C     0.83296   0.83338   0.33541   0.00000  Uiso   1.00
C577   C     0.87145   0.83252   0.40556   0.00000  Uiso   1.00
C578   C     0.79975   0.85231   0.09404   0.00000  Uiso   1.00
C579   C     0.83336   0.83400   0.38364   0.00000  Uiso   1.00
C580   C     0.83423   0.83409   0.11619   0.00000  Uiso   1.00
C581   C     0.79606   0.83888   0.40740   0.00000  Uiso   1.00
C582   C     0.86956   0.81924   0.09256   0.00000  Uiso   1.00
C583   C     0.79735   0.84786   0.45354   0.00000  Uiso   1.00
C584   C     0.87201   0.82746   0.04624   0.00000  Uiso   1.00
C585   C     0.83491   0.84008   0.47638   0.00000  Uiso   1.00
C586   C     0.83546   0.84000   0.02335   0.00000  Uiso   1.00
C587   C     0.87183   0.83182   0.45235   0.00000  Uiso   1.00
C588   C     0.79926   0.85189   0.04728   0.00000  Uiso   1.00
C589   C     0.76236   0.86369   0.47784   0.00000  Uiso   1.00
C590   C     0.90946   0.82313   0.02176   0.00000  Uiso   1.00
Cu591  Cu    0.83333   0.88022   0.25000   0.00000  Uiso   1.00
Cu592  Cu    0.83333   0.78645   0.25000   0.00000  Uiso   1.00
H593   H     0.70395   0.75753   0.25066   0.00000  Uiso   1.00
H594   H     0.96272   0.90915   0.24872   0.00000  Uiso   1.00
H595   H     0.96263   0.75756   0.25139   0.00000  Uiso   1.00
H596   H     0.70405   0.90912   0.24792   0.00000  Uiso   1.00
N597   N     0.83333   0.95069   0.25000   0.00000  Uiso   1.00
N598   N     0.83333   0.71598   0.25000   0.00000  Uiso   1.00
O599   O     0.77321   0.87291   0.24999   0.00000  Uiso   1.00
O600   O     0.89345   0.79375   0.25000   0.00000  Uiso   1.00
O601   O     0.89345   0.87291   0.25000   0.00000  Uiso   1.00
O602   O     0.77321   0.79375   0.24999   0.00000  Uiso   1.00
O603   O     0.83332   0.87293   0.18513   0.00000  Uiso   1.00
O604   O     0.83334   0.79373   0.31487   0.00000  Uiso   1.00
O605   O     0.83334   0.87293   0.31487   0.00000  Uiso   1.00
O606   O     0.83332   0.79373   0.18513   0.00000  Uiso   1.00
C607   C     0.91017   0.83113   0.37867   0.00000  Uiso   1.00
H608   H     0.91225   0.80874   0.34967   0.00000  Uiso   1.00
O609   O     0.93911   0.85684   0.38728   0.00000  Uiso   1.00
C610   C     0.76404   0.86979   0.12066   0.00000  Uiso   1.00
H611   H     0.75279   0.84972   0.14879   0.00000  Uiso   1.00
O612   O     0.74857   0.90785   0.11291   0.00000  Uiso   1.00
C613   C     0.75611   0.82822   0.38548   0.00000  Uiso   1.00
H614   H     0.73249   0.80913   0.40359   0.00000  Uiso   1.00
O615   O     0.74855   0.84188   0.34811   0.00000  Uiso   1.00
C616   C     0.90164   0.79086   0.11522   0.00000  Uiso   1.00
H617   H     0.91458   0.76050   0.09857   0.00000  Uiso   1.00
O618   O     0.91509   0.80202   0.15140   0.00000  Uiso   1.00
C619   C     0.72625   0.88627   0.45641   0.00000  Uiso   1.00
H620   H     0.72949   0.90279   0.42420   0.00000  Uiso   1.00
O621   O     0.69268   0.88761   0.47488   0.00000  Uiso   1.00
C622   C     0.95078   0.82415   0.04287   0.00000  Uiso   1.00
H623   H     0.95513   0.84190   0.07428   0.00000  Uiso   1.00
O624   O     0.98061   0.80599   0.02496   0.00000  Uiso   1.00
H625   H     0.73562   0.87336   0.04158   0.00000  Uiso   1.00
H626   H     0.93702   0.81774   0.45789   0.00000  Uiso   1.00
H627   H     0.78645   0.71012   0.20159   0.00000  Uiso   1.00
H628   H     0.88023   0.95654   0.29839   0.00000  Uiso   1.00
H629   H     0.88023   0.71020   0.29839   0.00000  Uiso   1.00
H630   H     0.78646   0.95646   0.20158   0.00000  Uiso   1.00
C631   C     0.08737   0.16666   0.74936   0.00000  Uiso   1.00
C632   C     0.24597   0.16668   0.75026   0.00000  Uiso   1.00
C633   C     0.09674   0.19692   0.52402   0.00000  Uiso   1.00
C634   C     0.24176   0.15690   0.97556   0.00000  Uiso   1.00
C635   C     0.02127   0.12412   0.75018   0.00000  Uiso   1.00
C636   C     0.31206   0.20922   0.74916   0.00000  Uiso   1.00
C637   C     0.31201   0.12414   0.75064   0.00000  Uiso   1.00
C638   C     0.02133   0.20920   0.74867   0.00000  Uiso   1.00
C639   C     0.29059   0.16669   0.75013   0.00000  Uiso   1.00
C640   C     0.04275   0.16665   0.74925   0.00000  Uiso   1.00
C641   C     0.14064   0.02478   0.72312   0.00000  Uiso   1.00
C642   C     0.19270   0.30855   0.77686   0.00000  Uiso   1.00
C643   C     0.19271   0.02482   0.77686   0.00000  Uiso   1.00
C644   C     0.14064   0.30851   0.72312   0.00000  Uiso   1.00
C645   C     0.16725   0.16670   0.66454   0.00000  Uiso   1.00
C646   C     0.16630   0.16671   0.83541   0.00000  Uiso   1.00
C647   C     0.20478   0.16586   0.90556   0.00000  Uiso   1.00
C648   C     0.13308   0.18564   0.59404   0.00000  Uiso   1.00
C649   C     0.16670   0.16733   0.88364   0.00000  Uiso   1.00
C650   C     0.16756   0.16743   0.61619   0.00000  Uiso   1.00
C651   C     0.12940   0.17222   0.90740   0.00000  Uiso   1.00
C652   C     0.20289   0.15257   0.59256   0.00000  Uiso   1.00
C653   C     0.13068   0.18119   0.95354   0.00000  Uiso   1.00
C654   C     0.20534   0.16079   0.54624   0.00000  Uiso   1.00
C655   C     0.16824   0.17341   0.97638   0.00000  Uiso   1.00
C656   C     0.16879   0.17333   0.52335   0.00000  Uiso   1.00
C657   C     0.20516   0.16515   0.95235   0.00000  Uiso   1.00
C658   C     0.13260   0.18523   0.54728   0.00000  Uiso   1.00
C659   C     0.09569   0.19702   0.97784   0.00000  Uiso   1.00
C660   C     0.24279   0.15646   0.52176   0.00000  Uiso   1.00
Cu661  Cu    0.16667   0.21355   0.75000   0.00000  Uiso   1.00
Cu662  Cu    0.16667   0.11978   0.75000   0.00000  Uiso   1.00
H663   H     0.03729   0.09086   0.75066   0.00000  Uiso   1.00
H664   H     0.29605   0.24248   0.74872   0.00000  Uiso   1.00
H665   H     0.29596   0.09089   0.75139   0.00000  Uiso   1.00
H666   H     0.03738   0.24245   0.74792   0.00000  Uiso   1.00
N667   N     0.16667   0.28402   0.75000   0.00000  Uiso   1.00
N668   N     0.16667   0.04931   0.75000   0.00000  Uiso   1.00
O669   O     0.10655   0.20625   0.74999   0.00000  Uiso   1.00
O670   O     0.22679   0.12709   0.75000   0.00000  Uiso   1.00
O671   O     0.22679   0.20625   0.75000   0.00000  Uiso   1.00
O672   O     0.10655   0.12709   0.74999   0.00000  Uiso   1.00
O673   O     0.16666   0.20627   0.68513   0.00000  Uiso   1.00
O674   O     0.16668   0.12707   0.81487   0.00000  Uiso   1.00
O675   O     0.16668   0.20627   0.81487   0.00000  Uiso   1.00
O676   O     0.16666   0.12707   0.68513   0.00000  Uiso   1.00
C677   C     0.24351   0.16446   0.87867   0.00000  Uiso   1.00
H678   H     0.24558   0.14208   0.84967   0.00000  Uiso   1.00
O679   O     0.27244   0.19017   0.88728   0.00000  Uiso   1.00
C680   C     0.09737   0.20312   0.62066   0.00000  Uiso   1.00
H681   H     0.08613   0.18305   0.64879   0.00000  Uiso   1.00
O682   O     0.08190   0.24118   0.61291   0.00000  Uiso   1.00
C683   C     0.08945   0.16155   0.88548   0.00000  Uiso   1.00
H684   H     0.06582   0.14246   0.90359   0.00000  Uiso   1.00
O685   O     0.08189   0.17521   0.84811   0.00000  Uiso   1.00
C686   C     0.23498   0.12419   0.61522   0.00000  Uiso   1.00
H687   H     0.24792   0.09383   0.59857   0.00000  Uiso   1.00
O688   O     0.24842   0.13535   0.65140   0.00000  Uiso   1.00
C689   C     0.05959   0.21960   0.95641   0.00000  Uiso   1.00
H690   H     0.06283   0.23612   0.92420   0.00000  Uiso   1.00
O691   O     0.02601   0.22095   0.97488   0.00000  Uiso   1.00
C692   C     0.28411   0.15749   0.54287   0.00000  Uiso   1.00
H693   H     0.28846   0.17523   0.57428   0.00000  Uiso   1.00
O694   O     0.31394   0.13932   0.52496   0.00000  Uiso   1.00
H695   H     0.06895   0.20669   0.54158   0.00000  Uiso   1.00
H696   H     0.27035   0.15108   0.95789   0.00000  Uiso   1.00
H697   H     0.11979   0.04345   0.70159   0.00000  Uiso   1.00
H698   H     0.21356   0.28988   0.79839   0.00000  Uiso   1.00
H699   H     0.21357   0.04353   0.79839   0.00000  Uiso   1.00
H700   H     0.11979   0.28980   0.70158   0.00000  Uiso   1.00
C701   C     0.42070   0.16666   0.74936   0.00000  Uiso   1.00
C702   C     0.57930   0.16668   0.75026   0.00000  Uiso   1.00
C703   C     0.43007   0.19692   0.52402   0.00000  Uiso   1.00
C704   C     0.57509   0.15690   0.97556   0.00000  Uiso   1.00
C705   C     0.35461   0.12412   0.75018   0.00000  Uiso   1.00
C706   C     0.64540   0.20922   0.74916   0.00000  Uiso   1.00
C707   C     0.64535   0.12414   0.75064   0.00000  Uiso   1.00
C708   C     0.35466   0.20920   0.74867   0.00000  Uiso   1.00
C709   C     0.62392   0.16669   0.75013   0.00000  Uiso   1.00
C710   C     0.37608   0.16665   0.74925   0.00000  Uiso   1.00
C711   C     0.47397   0.02478   0.72312   0.00000  Uiso   1.00
C712   C     0.52604   0.30855   0.77686   0.00000  Uiso   1.00
C713   C     0.52604   0.02482   0.77686   0.00000  Uiso   1.00
C714   C     0.47397   0.30851   0.72312   0.00000  Uiso   1.00
C715   C     0.50058   0.16670   0.66454   0.00000  Uiso   1.00
C716   C     0.49963   0.16671   0.83541   0.00000  Uiso   1.00
C717   C     0.53811   0.16586   0.90556   0.00000  Uiso   1.00
C718   C     0.46642   0.18564   0.59404   0.00000  Uiso   1.00
C719   C     0.50003   0.16733   0.88364   0.00000  Uiso   1.00
C720   C     0.50090   0.16743   0.61619   0.00000  Uiso   1.00
C721   C     0.46273   0.17222   0.90740   0.00000  Uiso   1.00
C722   C     0.53622   0.15257   0.59256   0.00000  Uiso   1.00
C723   C     0.46402   0.18119   0.95354   0.00000  Uiso   1.00
C724   C     0.53868   0.16079   0.54624   0.00000  Uiso   1.00
C725   C     0.50158   0.17341   0.97638   0.00000  Uiso   1.00
C726   C     0.50213   0.17333   0.52335   0.00000  Uiso   1.00
C727   C     0.53849   0.16515   0.95235   0.00000  Uiso   1.00
C728   C     0.46593   0.18523   0.54728   0.00000  Uiso   1.00
C729   C     0.42903   0.19702   0.97784   0.00000  Uiso   1.00
C730   C     0.57612   0.15646   0.52176   0.00000  Uiso   1.00
Cu731  Cu    0.50000   0.21355   0.75000   0.00000  Uiso   1.00
Cu732  Cu    0.50000   0.11978   0.75000   0.00000  Uiso   1.00
H733   H     0.37062   0.09086   0.75066   0.00000  Uiso   1.00
H734   H     0.62938   0.24248   0.74872   0.00000  Uiso   1.00
H735   H     0.62929   0.09089   0.75139   0.00000  Uiso   1.00
H736   H     0.37071   0.24245   0.74792   0.00000  Uiso   1.00
N737   N     0.50000   0.28402   0.75000   0.00000  Uiso   1.00
N738   N     0.50000   0.04931   0.75000   0.00000  Uiso   1.00
O739   O     0.43988   0.20625   0.74999   0.00000  Uiso   1.00
O740   O     0.56012   0.12709   0.75000   0.00000  Uiso   1.00
O741   O     0.56012   0.20625   0.75000   0.00000  Uiso   1.00
O742   O     0.43988   0.12709   0.74999   0.00000  Uiso   1.00
O743   O     0.49999   0.20627   0.68513   0.00000  Uiso   1.00
O744   O     0.50001   0.12707   0.81487   0.00000  Uiso   1.00
O745   O     0.50001   0.20627   0.81487   0.00000  Uiso   1.00
O746   O     0.49999   0.12707   0.68513   0.00000  Uiso   1.00
C747   C     0.57684   0.16446   0.87867   0.00000  Uiso   1.00
H748   H     0.57891   0.14208   0.84967   0.00000  Uiso   1.00
O749   O     0.60577   0.19017   0.88728   0.00000  Uiso   1.00
C750   C     0.43070   0.20312   0.62066   0.00000  Uiso   1.00
H751   H     0.41946   0.18305   0.64879   0.00000  Uiso   1.00
O752   O     0.41524   0.24118   0.61291   0.00000  Uiso   1.00
C753   C     0.42278   0.16155   0.88548   0.00000  Uiso   1.00
H754   H     0.39915   0.14246   0.90359   0.00000  Uiso   1.00
O755   O     0.41522   0.17521   0.84811   0.00000  Uiso   1.00
C756   C     0.56831   0.12419   0.61522   0.00000  Uiso   1.00
H757   H     0.58125   0.09383   0.59857   0.00000  Uiso   1.00
O758   O     0.58176   0.13535   0.65140   0.00000  Uiso   1.00
C759   C     0.39292   0.21960   0.95641   0.00000  Uiso   1.00
H760   H     0.39616   0.23612   0.92420   0.00000  Uiso   1.00
O761   O     0.35934   0.22095   0.97488   0.00000  Uiso   1.00
C762   C     0.61744   0.15749   0.54287   0.00000  Uiso   1.00
H763   H     0.62179   0.17523   0.57428   0.00000  Uiso   1.00
O764   O     0.64728   0.13932   0.52496   0.00000  Uiso   1.00
H765   H     0.40228   0.20669   0.54158   0.00000  Uiso   1.00
H766   H     0.60369   0.15108   0.95789   0.00000  Uiso   1.00
H767   H     0.45312   0.04345   0.70159   0.00000  Uiso   1.00
H768   H     0.54690   0.28988   0.79839   0.00000  Uiso   1.00
H769   H     0.54690   0.04353   0.79839   0.00000  Uiso   1.00
H770   H     0.45313   0.28980   0.70158   0.00000  Uiso   1.00
C771   C     0.75404   0.16666   0.74936   0.00000  Uiso   1.00
C772   C     0.91264   0.16668   0.75026   0.00000  Uiso   1.00
C773   C     0.76341   0.19692   0.52402   0.00000  Uiso   1.00
C774   C     0.90842   0.15690   0.97556   0.00000  Uiso   1.00
C775   C     0.68794   0.12412   0.75018   0.00000  Uiso   1.00
C776   C     0.97873   0.20922   0.74916   0.00000  Uiso   1.00
C777   C     0.97868   0.12414   0.75064   0.00000  Uiso   1.00
C778   C     0.68799   0.20920   0.74867   0.00000  Uiso   1.00
C779   C     0.95725   0.16669   0.75013   0.00000  Uiso   1.00
C780   C     0.70942   0.16665   0.74925   0.00000  Uiso   1.00
C781   C     0.80730   0.02478   0.72312   0.00000  Uiso   1.00
C782   C     0.85937   0.30855   0.77686   0.00000  Uiso   1.00
C783   C     0.85937   0.02482   0.77686   0.00000  Uiso   1.00
C784   C     0.80731   0.30851   0.72312   0.00000  Uiso   1.00
C785   C     0.83392   0.16670   0.66454   0.00000  Uiso   1.00
C786   C     0.83296   0.16671   0.83541   0.00000  Uiso   1.00
C787   C     0.87145   0.16586   0.90556   0.00000  Uiso   1.00
C788   C     0.79975   0.18564   0.59404   0.00000  Uiso   1.00
C789   C     0.83336   0.16733   0.88364   0.00000  Uiso   1.00
C790   C     0.83423   0.16743   0.61619   0.00000  Uiso   1.00
C791   C     0.79606   0.17222   0.90740   0.00000  Uiso   1.00
C792   C     0.86956   0.15257   0.59256   0.00000  Uiso   1.00
C793   C     0.79735   0.18119   0.95354   0.00000  Uiso   1.00
C794   C     0.87201   0.16079   0.54624   0.00000  Uiso   1.00
C795   C     0.83491   0.17341   0.97638   0.00000  Uiso   1.00
C796   C     0.83546   0.17333   0.52335   0.00000  Uiso   1.00
C797   C     0.87183   0.16515   0.95235   0.00000  Uiso   1.00
C798   C     0.79926   0.18523   0.54728   0.00000  Uiso   1.00
C799   C     0.76236   0.19702   0.97784   0.00000  Uiso   1.00
C800   C     0.90946   0.15646   0.52176   0.00000  Uiso   1.00
Cu801  Cu    0.83333   0.21355   0.75000   0.00000  Uiso   1.00
Cu802  Cu    0.83333   0.11978   0.75000   0.00000  Uiso   1.00
H803   H     0.70395   0.09086   0.75066   0.00000  Uiso   1.00
H804   H     0.96272   0.24248   0.74872   0.00000  Uiso   1.00
H805   H     0.96263   0.09089   0.75139   0.00000  Uiso   1.00
H806   H     0.70405   0.24245   0.74792   0.00000  Uiso   1.00
N807   N     0.83333   0.28402   0.75000   0.00000  Uiso   1.00
N808   N     0.83333   0.04931   0.75000   0.00000  Uiso   1.00
O809   O     0.77321   0.20625   0.74999   0.00000  Uiso   1.00
O810   O     0.89345   0.12709   0.75000   0.00000  Uiso   1.00
O811   O     0.89345   0.20625   0.75000   0.00000  Uiso   1.00
O812   O     0.77321   0.12709   0.74999   0.00000  Uiso   1.00
O813   O     0.83332   0.20627   0.68513   0.00000  Uiso   1.00
O814   O     0.83334   0.12707   0.81487   0.00000  Uiso   1.00
O815   O     0.83334   0.20627   0.81487   0.00000  Uiso   1.00
O816   O     0.83332   0.12707   0.68513   0.00000  Uiso   1.00
C817   C     0.91017   0.16446   0.87867   0.00000  Uiso   1.00
H818   H     0.91225   0.14208   0.84967   0.00000  Uiso   1.00
O819   O     0.93911   0.19017   0.88728   0.00000  Uiso   1.00
C820   C     0.76404   0.20312   0.62066   0.00000  Uiso   1.00
H821   H     0.75279   0.18305   0.64879   0.00000  Uiso   1.00
O822   O     0.74857   0.24118   0.61291   0.00000  Uiso   1.00
C823   C     0.75611   0.16155   0.88548   0.00000  Uiso   1.00
H824   H     0.73249   0.14246   0.90359   0.00000  Uiso   1.00
O825   O     0.74855   0.17521   0.84811   0.00000  Uiso   1.00
C826   C     0.90164   0.12419   0.61522   0.00000  Uiso   1.00
H827   H     0.91458   0.09383   0.59857   0.00000  Uiso   1.00
O828   O     0.91509   0.13535   0.65140   0.00000  Uiso   1.00
C829   C     0.72625   0.21960   0.95641   0.00000  Uiso   1.00
H830   H     0.72949   0.23612   0.92420   0.00000  Uiso   1.00
O831   O     0.69268   0.22095   0.97488   0.00000  Uiso   1.00
C832   C     0.95078   0.15749   0.54287   0.00000  Uiso   1.00
H833   H     0.95513   0.17523   0.57428   0.00000  Uiso   1.00
O834   O     0.98061   0.13932   0.52496   0.00000  Uiso   1.00
H835   H     0.73562   0.20669   0.54158   0.00000  Uiso   1.00
H836   H     0.93702   0.15108   0.95789   0.00000  Uiso   1.00
H837   H     0.78645   0.04345   0.70159   0.00000  Uiso   1.00
H838   H     0.88023   0.28988   0.79839   0.00000  Uiso   1.00
H839   H     0.88023   0.04353   0.79839   0.00000  Uiso   1.00
H840   H     0.78646   0.28980   0.70158   0.00000  Uiso   1.00
C841   C     0.08737   0.49999   0.74936   0.00000  Uiso   1.00
C842   C     0.24597   0.50002   0.75026   0.00000  Uiso   1.00
C843   C     0.09674   0.53026   0.52402   0.00000  Uiso   1.00
C844   C     0.24176   0.49023   0.97556   0.00000  Uiso   1.00
C845   C     0.02127   0.45745   0.75018   0.00000  Uiso   1.00
C846   C     0.31206   0.54256   0.74916   0.00000  Uiso   1.00
C847   C     0.31201   0.45747   0.75064   0.00000  Uiso   1.00
C848   C     0.02133   0.54254   0.74867   0.00000  Uiso   1.00
C849   C     0.29059   0.50002   0.75013   0.00000  Uiso   1.00
C850   C     0.04275   0.49999   0.74925   0.00000  Uiso   1.00
C851   C     0.14064   0.35811   0.72312   0.00000  Uiso   1.00
C852   C     0.19270   0.64188   0.77686   0.00000  Uiso   1.00
C853   C     0.19271   0.35816   0.77686   0.00000  Uiso   1.00
C854   C     0.14064   0.64184   0.72312   0.00000  Uiso   1.00
C855   C     0.16725   0.50004   0.66454   0.00000  Uiso   1.00
C856   C     0.16630   0.50005   0.83541   0.00000  Uiso   1.00
C857   C     0.20478   0.49919   0.90556   0.00000  Uiso   1.00
C858   C     0.13308   0.51898   0.59404   0.00000  Uiso   1.00
C859   C     0.16670   0.50066   0.88364   0.00000  Uiso   1.00
C860   C     0.16756   0.50076   0.61619   0.00000  Uiso   1.00
C861   C     0.12940   0.50555   0.90740   0.00000  Uiso   1.00
C862   C     0.20289   0.48591   0.59256   0.00000  Uiso   1.00
C863   C     0.13068   0.51452   0.95354   0.00000  Uiso   1.00
C864   C     0.20534   0.49413   0.54624   0.00000  Uiso   1.00
C865   C     0.16824   0.50675   0.97638   0.00000  Uiso   1.00
C866   C     0.16879   0.50666   0.52335   0.00000  Uiso   1.00
C867   C     0.20516   0.49849   0.95235   0.00000  Uiso   1.00
C868   C     0.13260   0.51856   0.54728   0.00000  Uiso   1.00
C869   C     0.09569   0.53036   0.97784   0.00000  Uiso   1.00
C870   C     0.24279   0.48979   0.52176   0.00000  Uiso   1.00
Cu871  Cu    0.16667   0.54689   0.75000   0.00000  Uiso   1.00
Cu872  Cu    0.16667   0.45311   0.75000   0.00000  Uiso   1.00
H873   H     0.03729   0.42420   0.75066   0.00000  Uiso   1.00
H874   H     0.29605   0.57581   0.74872   0.00000  Uiso   1.00
H875   H     0.29596   0.42422   0.75139   0.00000  Uiso   1.00
H876   H     0.03738   0.57578   0.74792   0.00000  Uiso   1.00
N877   N     0.16667   0.61736   0.75000   0.00000  Uiso   1.00
N878   N     0.16667   0.38264   0.75000   0.00000  Uiso   1.00
O879   O     0.10655   0.53958   0.74999   0.00000  Uiso   1.00
O880   O     0.22679   0.46042   0.75000   0.00000  Uiso   1.00
O881   O     0.22679   0.53958   0.75000   0.00000  Uiso   1.00
O882   O     0.10655   0.46042   0.74999   0.00000  Uiso   1.00
O883   O     0.16666   0.53960   0.68513   0.00000  Uiso   1.00
O884   O     0.16668   0.46040   0.81487   0.00000  Uiso   1.00
O885   O     0.16668   0.53960   0.81487   0.00000  Uiso   1.00
O886   O     0.16666   0.46040   0.68513   0.00000  Uiso   1.00
C887   C     0.24351   0.49780   0.87867   0.00000  Uiso   1.00
H888   H     0.24558   0.47541   0.84967   0.00000  Uiso   1.00
O889   O     0.27244   0.52351   0.88728   0.00000  Uiso   1.00
C890   C     0.09737   0.53645   0.62066   0.00000  Uiso   1.00
H891   H     0.08613   0.51639   0.64879   0.00000  Uiso   1.00
O892   O     0.08190   0.57452   0.61291   0.00000  Uiso   1.00
C893   C     0.08945   0.49488   0.88548   0.00000  Uiso   1.00
H894   H     0.06582   0.47580   0.90359   0.00000  Uiso   1.00
O895   O     0.08189   0.50855   0.84811   0.00000  Uiso   1.00
C896   C     0.23498   0.45752   0.61522   0.00000  Uiso   1.00
H897   H     0.24792   0.42717   0.59857   0.00000  Uiso   1.00
O898   O     0.24842   0.46869   0.65140   0.00000  Uiso   1.00
C899   C     0.05959   0.55294   0.95641   0.00000  Uiso   1.00
H900   H     0.06283   0.56945   0.92420   0.00000  Uiso   1.00
O901   O     0.02601   0.55428   0.97488   0.00000  Uiso   1.00
C902   C     0.28411   0.49082   0.54287   0.00000  Uiso   1.00
H903   H     0.28846   0.50857   0.57428   0.00000  Uiso   1.00
O904   O     0.31394   0.47266   0.52496   0.00000  Uiso   1.00
H905   H     0.06895   0.54003   0.54158   0.00000  Uiso   1.00
H906   H     0.27035   0.48441   0.95789   0.00000  Uiso   1.00
H907   H     0.11979   0.37678   0.70159   0.00000  Uiso   1.00
H908   H     0.21356   0.62321   0.79839   0.00000  Uiso   1.00
H909   H     0.21357   0.37687   0.79839   0.00000  Uiso   1.00
H910   H     0.11979   0.62313   0.70158   0.00000  Uiso   1.00
C911   C     0.42070   0.49999   0.74936   0.00000  Uiso   1.00
C912   C     0.57930   0.50002   0.75026   0.00000  Uiso   1.00
C913   C     0.43007   0.53026   0.52402   0.00000  Uiso   1.00
C914   C     0.57509   0.49023   0.97556   0.00000  Uiso   1.00
C915   C     0.35461   0.45745   0.75018   0.00000  Uiso   1.00
C916   C     0.64540   0.54256   0.74916   0.00000  Uiso   1.00
C917   C     0.64535   0.45747   0.75064   0.00000  Uiso   1.00
C918   C     0.35466   0.54254   0.74867   0.00000  Uiso   1.00
C919   C     0.62392   0.50002   0.75013   0.00000  Uiso   1.00
C920   C     0.37608   0.49999   0.74925   0.00000  Uiso   1.00
C921   C     0.47397   0.35811   0.72312   0.00000  Uiso   1.00
C922   C     0.52604   0.64188   0.77686   0.00000  Uiso   1.00
C923   C     0.52604   0.35816   0.77686   0.00000  Uiso   1.00
C924   C     0.47397   0.64184   0.72312   0.00000  Uiso   1.00
C925   C     0.50058   0.50004   0.66454   0.00000  Uiso   1.00
C926   C     0.49963   0.50005   0.83541   0.00000  Uiso   1.00
C927   C     0.53811   0.49919   0.90556   0.00000  Uiso   1.00
C928   C     0.46642   0.51898   0.59404   0.00000  Uiso   1.00
C929   C     0.50003   0.50066   0.88364   0.00000  Uiso   1.00
C930   C     0.50090   0.50076   0.61619   0.00000  Uiso   1.00
C931   C     0.46273   0.50555   0.90740   0.00000  Uiso   1.00
C932   C     0.53622   0.48591   0.59256   0.00000  Uiso   1.00
C933   C     0.46402   0.51452   0.95354   0.00000  Uiso   1.00
C934   C     0.53868   0.49413   0.54624   0.00000  Uiso   1.00
C935   C     0.50158   0.50675   0.97638   0.00000  Uiso   1.00
C936   C     0.50213   0.50666   0.52335   0.00000  Uiso   1.00
C937   C     0.53849   0.49849   0.95235   0.00000  Uiso   1.00
C938   C     0.46593   0.51856   0.54728   0.00000  Uiso   1.00
C939   C     0.42903   0.53036   0.97784   0.00000  Uiso   1.00
C940   C     0.57612   0.48979   0.52176   0.00000  Uiso   1.00
Cu941  Cu    0.50000   0.54689   0.75000   0.00000  Uiso   1.00
Cu942  Cu    0.50000   0.45311   0.75000   0.00000  Uiso   1.00
H943   H     0.37062   0.42420   0.75066   0.00000  Uiso   1.00
H944   H     0.62938   0.57581   0.74872   0.00000  Uiso   1.00
H945   H     0.62929   0.42422   0.75139   0.00000  Uiso   1.00
H946   H     0.37071   0.57578   0.74792   0.00000  Uiso   1.00
N947   N     0.50000   0.61736   0.75000   0.00000  Uiso   1.00
N948   N     0.50000   0.38264   0.75000   0.00000  Uiso   1.00
O949   O     0.43988   0.53958   0.74999   0.00000  Uiso   1.00
O950   O     0.56012   0.46042   0.75000   0.00000  Uiso   1.00
O951   O     0.56012   0.53958   0.75000   0.00000  Uiso   1.00
O952   O     0.43988   0.46042   0.74999   0.00000  Uiso   1.00
O953   O     0.49999   0.53960   0.68513   0.00000  Uiso   1.00
O954   O     0.50001   0.46040   0.81487   0.00000  Uiso   1.00
O955   O     0.50001   0.53960   0.81487   0.00000  Uiso   1.00
O956   O     0.49999   0.46040   0.68513   0.00000  Uiso   1.00
C957   C     0.57684   0.49780   0.87867   0.00000  Uiso   1.00
H958   H     0.57891   0.47541   0.84967   0.00000  Uiso   1.00
O959   O     0.60577   0.52351   0.88728   0.00000  Uiso   1.00
C960   C     0.43070   0.53645   0.62066   0.00000  Uiso   1.00
H961   H     0.41946   0.51639   0.64879   0.00000  Uiso   1.00
O962   O     0.41524   0.57452   0.61291   0.00000  Uiso   1.00
C963   C     0.42278   0.49488   0.88548   0.00000  Uiso   1.00
H964   H     0.39915   0.47580   0.90359   0.00000  Uiso   1.00
O965   O     0.41522   0.50855   0.84811   0.00000  Uiso   1.00
C966   C     0.56831   0.45752   0.61522   0.00000  Uiso   1.00
H967   H     0.58125   0.42717   0.59857   0.00000  Uiso   1.00
O968   O     0.58176   0.46869   0.65140   0.00000  Uiso   1.00
C969   C     0.39292   0.55294   0.95641   0.00000  Uiso   1.00
H970   H     0.39616   0.56945   0.92420   0.00000  Uiso   1.00
O971   O     0.35934   0.55428   0.97488   0.00000  Uiso   1.00
C972   C     0.61744   0.49082   0.54287   0.00000  Uiso   1.00
H973   H     0.62179   0.50857   0.57428   0.00000  Uiso   1.00
O974   O     0.64728   0.47266   0.52496   0.00000  Uiso   1.00
H975   H     0.40228   0.54003   0.54158   0.00000  Uiso   1.00
H976   H     0.60369   0.48441   0.95789   0.00000  Uiso   1.00
H977   H     0.45312   0.37678   0.70159   0.00000  Uiso   1.00
H978   H     0.54690   0.62321   0.79839   0.00000  Uiso   1.00
H979   H     0.54690   0.37687   0.79839   0.00000  Uiso   1.00
H980   H     0.45313   0.62313   0.70158   0.00000  Uiso   1.00
C981   C     0.75404   0.49999   0.74936   0.00000  Uiso   1.00
C982   C     0.91264   0.50002   0.75026   0.00000  Uiso   1.00
C983   C     0.76341   0.53026   0.52402   0.00000  Uiso   1.00
C984   C     0.90842   0.49023   0.97556   0.00000  Uiso   1.00
C985   C     0.68794   0.45745   0.75018   0.00000  Uiso   1.00
C986   C     0.97873   0.54256   0.74916   0.00000  Uiso   1.00
C987   C     0.97868   0.45747   0.75064   0.00000  Uiso   1.00
C988   C     0.68799   0.54254   0.74867   0.00000  Uiso   1.00
C989   C     0.95725   0.50002   0.75013   0.00000  Uiso   1.00
C990   C     0.70942   0.49999   0.74925   0.00000  Uiso   1.00
C991   C     0.80730   0.35811   0.72312   0.00000  Uiso   1.00
C992   C     0.85937   0.64188   0.77686   0.00000  Uiso   1.00
C993   C     0.85937   0.35816   0.77686   0.00000  Uiso   1.00
C994   C     0.80731   0.64184   0.72312   0.00000  Uiso   1.00
C995   C     0.83392   0.50004   0.66454   0.00000  Uiso   1.00
C996   C     0.83296   0.50005   0.83541   0.00000  Uiso   1.00
C997   C     0.87145   0.49919   0.90556   0.00000  Uiso   1.00
C998   C     0.79975   0.51898   0.59404   0.00000  Uiso   1.00
C999   C     0.83336   0.50066   0.88364   0.00000  Uiso   1.00
C1000  C     0.83423   0.50076   0.61619   0.00000  Uiso   1.00
C1001  C     0.79606   0.50555   0.90740   0.00000  Uiso   1.00
C1002  C     0.86956   0.48591   0.59256   0.00000  Uiso   1.00
C1003  C     0.79735   0.51452   0.95354   0.00000  Uiso   1.00
C1004  C     0.87201   0.49413   0.54624   0.00000  Uiso   1.00
C1005  C     0.83491   0.50675   0.97638   0.00000  Uiso   1.00
C1006  C     0.83546   0.50666   0.52335   0.00000  Uiso   1.00
C1007  C     0.87183   0.49849   0.95235   0.00000  Uiso   1.00
C1008  C     0.79926   0.51856   0.54728   0.00000  Uiso   1.00
C1009  C     0.76236   0.53036   0.97784   0.00000  Uiso   1.00
C1010  C     0.90946   0.48979   0.52176   0.00000  Uiso   1.00
Cu1011 Cu    0.83333   0.54689   0.75000   0.00000  Uiso   1.00
Cu1012 Cu    0.83333   0.45311   0.75000   0.00000  Uiso   1.00
H1013  H     0.70395   0.42420   0.75066   0.00000  Uiso   1.00
H1014  H     0.96272   0.57581   0.74872   0.00000  Uiso   1.00
H1015  H     0.96263   0.42422   0.75139   0.00000  Uiso   1.00
H1016  H     0.70405   0.57578   0.74792   0.00000  Uiso   1.00
N1017  N     0.83333   0.61736   0.75000   0.00000  Uiso   1.00
N1018  N     0.83333   0.38264   0.75000   0.00000  Uiso   1.00
O1019  O     0.77321   0.53958   0.74999   0.00000  Uiso   1.00
O1020  O     0.89345   0.46042   0.75000   0.00000  Uiso   1.00
O1021  O     0.89345   0.53958   0.75000   0.00000  Uiso   1.00
O1022  O     0.77321   0.46042   0.74999   0.00000  Uiso   1.00
O1023  O     0.83332   0.53960   0.68513   0.00000  Uiso   1.00
O1024  O     0.83334   0.46040   0.81487   0.00000  Uiso   1.00
O1025  O     0.83334   0.53960   0.81487   0.00000  Uiso   1.00
O1026  O     0.83332   0.46040   0.68513   0.00000  Uiso   1.00
C1027  C     0.91017   0.49780   0.87867   0.00000  Uiso   1.00
H1028  H     0.91225   0.47541   0.84967   0.00000  Uiso   1.00
O1029  O     0.93911   0.52351   0.88728   0.00000  Uiso   1.00
C1030  C     0.76404   0.53645   0.62066   0.00000  Uiso   1.00
H1031  H     0.75279   0.51639   0.64879   0.00000  Uiso   1.00
O1032  O     0.74857   0.57452   0.61291   0.00000  Uiso   1.00
C1033  C     0.75611   0.49488   0.88548   0.00000  Uiso   1.00
H1034  H     0.73249   0.47580   0.90359   0.00000  Uiso   1.00
O1035  O     0.74855   0.50855   0.84811   0.00000  Uiso   1.00
C1036  C     0.90164   0.45752   0.61522   0.00000  Uiso   1.00
H1037  H     0.91458   0.42717   0.59857   0.00000  Uiso   1.00
O1038  O     0.91509   0.46869   0.65140   0.00000  Uiso   1.00
C1039  C     0.72625   0.55294   0.95641   0.00000  Uiso   1.00
H1040  H     0.72949   0.56945   0.92420   0.00000  Uiso   1.00
O1041  O     0.69268   0.55428   0.97488   0.00000  Uiso   1.00
C1042  C     0.95078   0.49082   0.54287   0.00000  Uiso   1.00
H1043  H     0.95513   0.50857   0.57428   0.00000  Uiso   1.00
O1044  O     0.98061   0.47266   0.52496   0.00000  Uiso   1.00
H1045  H     0.73562   0.54003   0.54158   0.00000  Uiso   1.00
H1046  H     0.93702   0.48441   0.95789   0.00000  Uiso   1.00
H1047  H     0.78645   0.37678   0.70159   0.00000  Uiso   1.00
H1048  H     0.88023   0.62321   0.79839   0.00000  Uiso   1.00
H1049  H     0.88023   0.37687   0.79839   0.00000  Uiso   1.00
H1050  H     0.78646   0.62313   0.70158   0.00000  Uiso   1.00
C1051  C     0.08737   0.83332   0.74936   0.00000  Uiso   1.00
C1052  C     0.24597   0.83335   0.75026   0.00000  Uiso   1.00
C1053  C     0.09674   0.86359   0.52402   0.00000  Uiso   1.00
C1054  C     0.24176   0.82356   0.97556   0.00000  Uiso   1.00
C1055  C     0.02127   0.79079   0.75018   0.00000  Uiso   1.00
C1056  C     0.31206   0.87589   0.74916   0.00000  Uiso   1.00
C1057  C     0.31201   0.79081   0.75064   0.00000  Uiso   1.00
C1058  C     0.02133   0.87587   0.74867   0.00000  Uiso   1.00
C1059  C     0.29059   0.83336   0.75013   0.00000  Uiso   1.00
C1060  C     0.04275   0.83332   0.74925   0.00000  Uiso   1.00
C1061  C     0.14064   0.69145   0.72312   0.00000  Uiso   1.00
C1062  C     0.19270   0.97522   0.77686   0.00000  Uiso   1.00
C1063  C     0.19271   0.69149   0.77686   0.00000  Uiso   1.00
C1064  C     0.14064   0.97517   0.72312   0.00000  Uiso   1.00
C1065  C     0.16725   0.83337   0.66454   0.00000  Uiso   1.00
C1066  C     0.16630   0.83338   0.83541   0.00000  Uiso   1.00
C1067  C     0.20478   0.83252   0.90556   0.00000  Uiso   1.00
C1068  C     0.13308   0.85231   0.59404   0.00000  Uiso   1.00
C1069  C     0.16670   0.83400   0.88364   0.00000  Uiso   1.00
C1070  C     0.16756   0.83409   0.61619   0.00000  Uiso   1.00
C1071  C     0.12940   0.83888   0.90740   0.00000  Uiso   1.00
C1072  C     0.20289   0.81924   0.59256   0.00000  Uiso   1.00
C1073  C     0.13068   0.84786   0.95354   0.00000  Uiso   1.00
C1074  C     0.20534   0.82746   0.54624   0.00000  Uiso   1.00
C1075  C     0.16824   0.84008   0.97638   0.00000  Uiso   1.00
C1076  C     0.16879   0.84000   0.52335   0.00000  Uiso   1.00
C1077  C     0.20516   0.83182   0.95235   0.00000  Uiso   1.00
C1078  C     0.13260   0.85189   0.54728   0.00000  Uiso   1.00
C1079  C     0.09569   0.86369   0.97784   0.00000  Uiso   1.00
C1080  C     0.24279   0.82313   0.52176   0.00000  Uiso   1.00
Cu1081 Cu    0.16667   0.88022   0.75000   0.00000  Uiso   1.00
Cu1082 Cu    0.16667   0.78645   0.75000   0.00000  Uiso   1.00
H1083  H     0.03729   0.75753   0.75066   0.00000  Uiso   1.00
H1084  H     0.29605   0.90915   0.74872   0.00000  Uiso   1.00
H1085  H     0.29596   0.75756   0.75139   0.00000  Uiso   1.00
H1086  H     0.03738   0.90912   0.74792   0.00000  Uiso   1.00
N1087  N     0.16667   0.95069   0.75000   0.00000  Uiso   1.00
N1088  N     0.16667   0.71598   0.75000   0.00000  Uiso   1.00
O1089  O     0.10655   0.87291   0.74999   0.00000  Uiso   1.00
O1090  O     0.22679   0.79375   0.75000   0.00000  Uiso   1.00
O1091  O     0.22679   0.87291   0.75000   0.00000  Uiso   1.00
O1092  O     0.10655   0.79375   0.74999   0.00000  Uiso   1.00
O1093  O     0.16666   0.87293   0.68513   0.00000  Uiso   1.00
O1094  O     0.16668   0.79373   0.81487   0.00000  Uiso   1.00
O1095  O     0.16668   0.87293   0.81487   0.00000  Uiso   1.00
O1096  O     0.16666   0.79373   0.68513   0.00000  Uiso   1.00
C1097  C     0.24351   0.83113   0.87867   0.00000  Uiso   1.00
H1098  H     0.24558   0.80874   0.84967   0.00000  Uiso   1.00
O1099  O     0.27244   0.85684   0.88728   0.00000  Uiso   1.00
C1100  C     0.09737   0.86979   0.62066   0.00000  Uiso   1.00
H1101  H     0.08613   0.84972   0.64879   0.00000  Uiso   1.00
O1102  O     0.08190   0.90785   0.61291   0.00000  Uiso   1.00
C1103  C     0.08945   0.82822   0.88548   0.00000  Uiso   1.00
H1104  H     0.06582   0.80913   0.90359   0.00000  Uiso   1.00
O1105  O     0.08189   0.84188   0.84811   0.00000  Uiso   1.00
C1106  C     0.23498   0.79086   0.61522   0.00000  Uiso   1.00
H1107  H     0.24792   0.76050   0.59857   0.00000  Uiso   1.00
O1108  O     0.24842   0.80202   0.65140   0.00000  Uiso   1.00
C1109  C     0.05959   0.88627   0.95641   0.00000  Uiso   1.00
H1110  H     0.06283   0.90279   0.92420   0.00000  Uiso   1.00
O1111  O     0.02601   0.88761   0.97488   0.00000  Uiso   1.00
C1112  C     0.28411   0.82415   0.54287   0.00000  Uiso   1.00
H1113  H     0.28846   0.84190   0.57428   0.00000  Uiso   1.00
O1114  O     0.31394   0.80599   0.52496   0.00000  Uiso   1.00
H1115  H     0.06895   0.87336   0.54158   0.00000  Uiso   1.00
H1116  H     0.27035   0.81774   0.95789   0.00000  Uiso   1.00
H1117  H     0.11979   0.71012   0.70159   0.00000  Uiso   1.00
H1118  H     0.21356   0.95654   0.79839   0.00000  Uiso   1.00
H1119  H     0.21357   0.71020   0.79839   0.00000  Uiso   1.00
H1120  H     0.11979   0.95646   0.70158   0.00000  Uiso   1.00
C1121  C     0.42070   0.83332   0.74936   0.00000  Uiso   1.00
C1122  C     0.57930   0.83335   0.75026   0.00000  Uiso   1.00
C1123  C     0.43007   0.86359   0.52402   0.00000  Uiso   1.00
C1124  C     0.57509   0.82356   0.97556   0.00000  Uiso   1.00
C1125  C     0.35461   0.79079   0.75018   0.00000  Uiso   1.00
C1126  C     0.64540   0.87589   0.74916   0.00000  Uiso   1.00
C1127  C     0.64535   0.79081   0.75064   0.00000  Uiso   1.00
C1128  C     0.35466   0.87587   0.74867   0.00000  Uiso   1.00
C1129  C     0.62392   0.83336   0.75013   0.00000  Uiso   1.00
C1130  C     0.37608   0.83332   0.74925   0.00000  Uiso   1.00
C1131  C     0.47397   0.69145   0.72312   0.00000  Uiso   1.00
C1132  C     0.52604   0.97522   0.77686   0.00000  Uiso   1.00
C1133  C     0.52604   0.69149   0.77686   0.00000  Uiso   1.00
C1134  C     0.47397   0.97517   0.72312   0.00000  Uiso   1.00
C1135  C     0.50058   0.83337   0.66454   0.00000  Uiso   1.00
C1136  C     0.49963   0.83338   0.83541   0.00000  Uiso   1.00
C1137  C     0.53811   0.83252   0.90556   0.00000  Uiso   1.00
C1138  C     0.46642   0.85231   0.59404   0.00000  Uiso   1.00
C1139  C     0.50003   0.83400   0.88364   0.00000  Uiso   1.00
C1140  C     0.50090   0.83409   0.61619   0.00000  Uiso   1.00
C1141  C     0.46273   0.83888   0.90740   0.00000  Uiso   1.00
C1142  C     0.53622   0.81924   0.59256   0.00000  Uiso   1.00
C1143  C     0.46402   0.84786   0.95354   0.00000  Uiso   1.00
C1144  C     0.53868   0.82746   0.54624   0.00000  Uiso   1.00
C1145  C     0.50158   0.84008   0.97638   0.00000  Uiso   1.00
C1146  C     0.50213   0.84000   0.52335   0.00000  Uiso   1.00
C1147  C     0.53849   0.83182   0.95235   0.00000  Uiso   1.00
C1148  C     0.46593   0.85189   0.54728   0.00000  Uiso   1.00
C1149  C     0.42903   0.86369   0.97784   0.00000  Uiso   1.00
C1150  C     0.57612   0.82313   0.52176   0.00000  Uiso   1.00
Cu1151 Cu    0.50000   0.88022   0.75000   0.00000  Uiso   1.00
Cu1152 Cu    0.50000   0.78645   0.75000   0.00000  Uiso   1.00
H1153  H     0.37062   0.75753   0.75066   0.00000  Uiso   1.00
H1154  H     0.62938   0.90915   0.74872   0.00000  Uiso   1.00
H1155  H     0.62929   0.75756   0.75139   0.00000  Uiso   1.00
H1156  H     0.37071   0.90912   0.74792   0.00000  Uiso   1.00
N1157  N     0.50000   0.95069   0.75000   0.00000  Uiso   1.00
N1158  N     0.50000   0.71598   0.75000   0.00000  Uiso   1.00
O1159  O     0.43988   0.87291   0.74999   0.00000  Uiso   1.00
O1160  O     0.56012   0.79375   0.75000   0.00000  Uiso   1.00
O1161  O     0.56012   0.87291   0.75000   0.00000  Uiso   1.00
O1162  O     0.43988   0.79375   0.74999   0.00000  Uiso   1.00
O1163  O     0.49999   0.87293   0.68513   0.00000  Uiso   1.00
O1164  O     0.50001   0.79373   0.81487   0.00000  Uiso   1.00
O1165  O     0.50001   0.87293   0.81487   0.00000  Uiso   1.00
O1166  O     0.49999   0.79373   0.68513   0.00000  Uiso   1.00
C1167  C     0.57684   0.83113   0.87867   0.00000  Uiso   1.00
H1168  H     0.57891   0.80874   0.84967   0.00000  Uiso   1.00
O1169  O     0.60577   0.85684   0.88728   0.00000  Uiso   1.00
C1170  C     0.43070   0.86979   0.62066   0.00000  Uiso   1.00
H1171  H     0.41946   0.84972   0.64879   0.00000  Uiso   1.00
O1172  O     0.41524   0.90785   0.61291   0.00000  Uiso   1.00
C1173  C     0.42278   0.82822   0.88548   0.00000  Uiso   1.00
H1174  H     0.39915   0.80913   0.90359   0.00000  Uiso   1.00
O1175  O     0.41522   0.84188   0.84811   0.00000  Uiso   1.00
C1176  C     0.56831   0.79086   0.61522   0.00000  Uiso   1.00
H1177  H     0.58125   0.76050   0.59857   0.00000  Uiso   1.00
O1178  O     0.58176   0.80202   0.65140   0.00000  Uiso   1.00
C1179  C     0.39292   0.88627   0.95641   0.00000  Uiso   1.00
H1180  H     0.39616   0.90279   0.92420   0.00000  Uiso   1.00
O1181  O     0.35934   0.88761   0.97488   0.00000  Uiso   1.00
C1182  C     0.61744   0.82415   0.54287   0.00000  Uiso   1.00
H1183  H     0.62179   0.84190   0.57428   0.00000  Uiso   1.00
O1184  O     0.64728   0.80599   0.52496   0.00000  Uiso   1.00
H1185  H     0.40228   0.87336   0.54158   0.00000  Uiso   1.00
H1186  H     0.60369   0.81774   0.95789   0.00000  Uiso   1.00
H1187  H     0.45312   0.71012   0.70159   0.00000  Uiso   1.00
H1188  H     0.54690   0.95654   0.79839   0.00000  Uiso   1.00
H1189  H     0.54690   0.71020   0.79839   0.00000  Uiso   1.00
H1190  H     0.45313   0.95646   0.70158   0.00000  Uiso   1.00
C1191  C     0.75404   0.83332   0.74936   0.00000  Uiso   1.00
C1192  C     0.91264   0.83335   0.75026   0.00000  Uiso   1.00
C1193  C     0.76341   0.86359   0.52402   0.00000  Uiso   1.00
C1194  C     0.90842   0.82356   0.97556   0.00000  Uiso   1.00
C1195  C     0.68794   0.79079   0.75018   0.00000  Uiso   1.00
C1196  C     0.97873   0.87589   0.74916   0.00000  Uiso   1.00
C1197  C     0.97868   0.79081   0.75064   0.00000  Uiso   1.00
C1198  C     0.68799   0.87587   0.74867   0.00000  Uiso   1.00
C1199  C     0.95725   0.83336   0.75013   0.00000  Uiso   1.00
C1200  C     0.70942   0.83332   0.74925   0.00000  Uiso   1.00
C1201  C     0.80730   0.69145   0.72312   0.00000  Uiso   1.00
C1202  C     0.85937   0.97522   0.77686   0.00000  Uiso   1.00
C1203  C     0.85937   0.69149   0.77686   0.00000  Uiso   1.00
C1204  C     0.80731   0.97517   0.72312   0.00000  Uiso   1.00
C1205  C     0.83392   0.83337   0.66454   0.00000  Uiso   1.00
C1206  C     0.83296   0.83338   0.83541   0.00000  Uiso   1.00
C1207  C     0.87145   0.83252   0.90556   0.00000  Uiso   1.00
C1208  C     0.79975   0.85231   0.59404   0.00000  Uiso   1.00
C1209  C     0.83336   0.83400   0.88364   0.00000  Uiso   1.00
C1210  C     0.83423   0.83409   0.61619   0.00000  Uiso   1.00
C1211  C     0.79606   0.83888   0.90740   0.00000  Uiso   1.00
C1212  C     0.86956   0.81924   0.59256   0.00000  Uiso   1.00
C1213  C     0.79735   0.84786   0.95354   0.00000  Uiso   1.00
C1214  C     0.87201   0.82746   0.54624   0.00000  Uiso   1.00
C1215  C     0.83491   0.84008   0.97638   0.00000  Uiso   1.00
C1216  C     0.83546   0.84000   0.52335   0.00000  Uiso   1.00
C1217  C     0.87183   0.83182   0.95235   0.00000  Uiso   1.00
C1218  C     0.79926   0.85189   0.54728   0.00000  Uiso   1.00
C1219  C     0.76236   0.86369   0.97784   0.00000  Uiso   1.00
C1220  C     0.90946   0.82313   0.52176   0.00000  Uiso   1.00
Cu1221 Cu    0.83333   0.88022   0.75000   0.00000  Uiso   1.00
Cu1222 Cu    0.83333   0.78645   0.75000   0.00000  Uiso   1.00
H1223  H     0.70395   0.75753   0.75066   0.00000  Uiso   1.00
H1224  H     0.96272   0.90915   0.74872   0.00000  Uiso   1.00
H1225  H     0.96263   0.75756   0.75139   0.00000  Uiso   1.00
H1226  H     0.70405   0.90912   0.74792   0.00000  Uiso   1.00
N1227  N     0.83333   0.95069   0.75000   0.00000  Uiso   1.00
N1228  N     0.83333   0.71598   0.75000   0.00000  Uiso   1.00
O1229  O     0.77321   0.87291   0.74999   0.00000  Uiso   1.00
O1230  O     0.89345   0.79375   0.75000   0.00000  Uiso   1.00
O1231  O     0.89345   0.87291   0.75000   0.00000  Uiso   1.00
O1232  O     0.77321   0.79375   0.74999   0.00000  Uiso   1.00
O1233  O     0.83332   0.87293   0.68513   0.00000  Uiso   1.00
O1234  O     0.83334   0.79373   0.81487   0.00000  Uiso   1.00
O1235  O     0.83334   0.87293   0.81487   0.00000  Uiso   1.00
O1236  O     0.83332   0.79373   0.68513   0.00000  Uiso   1.00
C1237  C     0.91017   0.83113   0.87867   0.00000  Uiso   1.00
H1238  H     0.91225   0.80874   0.84967   0.00000  Uiso   1.00
O1239  O     0.93911   0.85684   0.88728   0.00000  Uiso   1.00
C1240  C     0.76404   0.86979   0.62066   0.00000  Uiso   1.00
H1241  H     0.75279   0.84972   0.64879   0.00000  Uiso   1.00
O1242  O     0.74857   0.90785   0.61291   0.00000  Uiso   1.00
C1243  C     0.75611   0.82822   0.88548   0.00000  Uiso   1.00
H1244  H     0.73249   0.80913   0.90359   0.00000  Uiso   1.00
O1245  O     0.74855   0.84188   0.84811   0.00000  Uiso   1.00
C1246  C     0.90164   0.79086   0.61522   0.00000  Uiso   1.00
H1247  H     0.91458   0.76050   0.59857   0.00000  Uiso   1.00
O1248  O     0.91509   0.80202   0.65140   0.00000  Uiso   1.00
C1249  C     0.72625   0.88627   0.95641   0.00000  Uiso   1.00
H1250  H     0.72949   0.90279   0.92420   0.00000  Uiso   1.00
O1251  O     0.69268   0.88761   0.97488   0.00000  Uiso   1.00
C1252  C     0.95078   0.82415   0.54287   0.00000  Uiso   1.00
H1253  H     0.95513   0.84190   0.57428   0.00000  Uiso   1.00
O1254  O     0.98061   0.80599   0.52496   0.00000  Uiso   1.00
H1255  H     0.73562   0.87336   0.54158   0.00000  Uiso   1.00
H1256  H     0.93702   0.81774   0.95789   0.00000  Uiso   1.00
H1257  H     0.78645   0.71012   0.70159   0.00000  Uiso   1.00
H1258  H     0.88023   0.95654   0.79839   0.00000  Uiso   1.00
H1259  H     0.88023   0.71020   0.79839   0.00000  Uiso   1.00
H1260  H     0.78646   0.95646   0.70158   0.00000  Uiso   1.00
loop_
_geom_bond_atom_site_label_1
_geom_bond_atom_site_label_2
_geom_bond_distance
_geom_bond_site_symmetry_2
_ccdc_geom_bond_type
C1     O39     1.291   .     A
C1     O42     1.291   .     A
C1     C10     1.448   .     S
C2     O41     1.291   .     A
C2     O40     1.291   .     A
C2     C9      1.448   .     S
C3     H65     1.080   .     S
C3     C28     1.403   .     A
C3     C659    1.393   1_554 S
C4     C27     1.402   .     A
C4     H66     1.080   .     S
C4     C660    1.394   .     S
C5     C10     1.401   .     A
C5     H33     1.083   .     S
C5     C147    1.383   1_455 S
C6     C9      1.401   .     A
C6     H34     1.083   .     S
C6     C78     1.383   .     S
C7     C9      1.401   .     A
C7     H35     1.083   .     S
C7     C75     1.383   .     S
C8     C10     1.401   .     A
C8     H36     1.083   .     S
C8     C146    1.383   1_455 S
C11    N38     1.367   .     A
C11    H67     1.082   .     S
C11    C434    1.417   1_545 S
C12    H68     1.082   .     S
C12    N37     1.367   .     A
C12    C223    1.417   .     S
C13    N38     1.367   .     A
C13    H69     1.082   .     S
C13    C432    1.417   1_545 S
C14    H70     1.082   .     S
C14    N37     1.367   .     A
C14    C221    1.417   .     S
C15    O43     1.290   .     A
C15    C20     1.458   .     S
C15    O46     1.292   .     A
C16    O45     1.289   .     A
C16    O44     1.291   .     A
C16    C19     1.455   .     S
C17    C19     1.406   .     A
C17    C27     1.412   .     A
C17    C47     1.492   .     S
C18    C20     1.407   .     A
C18    C28     1.410   .     A
C18    C50     1.492   .     S
C19    C21     1.410   .     A
C20    C22     1.412   .     A
C21    C53     1.491   .     S
C21    C23     1.416   .     A
C22    C24     1.418   .     A
C22    C56     1.490   .     S
C23    C25     1.422   .     A
C23    C29     1.422   .     A
C24    C26     1.422   .     A
C24    C30     1.424   .     A
C25    C27     1.416   .     A
C25    C656    1.417   .     S
C26    C28     1.417   .     A
C26    C655    1.417   1_554 S
C29    C59     1.489   .     S
C29    C633    1.393   .     S
C30    C62     1.488   .     S
C30    C634    1.394   1_554 S
Cu31   O41     1.963   .     S
Cu31   O45     1.968   .     S
Cu31   N37     2.013   .     S
Cu31   O43     1.967   .     S
Cu31   Cu32    2.679   .     S
Cu31   O39     1.962   .     S
Cu32   N38     2.013   .     S
Cu32   O44     1.967   .     S
Cu32   O42     1.963   .     S
Cu32   O40     1.962   .     S
Cu32   O46     1.968   .     S
C47    H48     1.085   .     S
C47    O49     1.221   .     D
C50    O52     1.221   .     D
C50    H51     1.085   .     S
C53    O55     1.219   .     D
C53    H54     1.085   .     S
C56    O58     1.220   .     D
C56    H57     1.085   .     S
C59    H60     1.084   .     S
C59    O61     1.221   .     D
C62    H63     1.084   .     S
C62    O64     1.222   .     D
C71    O109    1.291   .     A
C71    O112    1.291   .     A
C71    C80     1.448   .     S
C72    O111    1.291   .     A
C72    O110    1.291   .     A
C72    C79     1.448   .     S
C73    H135    1.080   .     S
C73    C98     1.403   .     A
C73    C729    1.393   1_554 S
C74    C97     1.402   .     A
C74    H136    1.080   .     S
C74    C730    1.394   .     S
C75    C80     1.401   .     A
C75    H103    1.083   .     S
C76    C79     1.401   .     A
C76    H104    1.083   .     S
C76    C148    1.383   .     S
C77    C79     1.401   .     A
C77    H105    1.083   .     S
C77    C145    1.383   .     S
C78    C80     1.401   .     A
C78    H106    1.083   .     S
C81    N108    1.367   .     A
C81    H137    1.082   .     S
C81    C504    1.417   1_545 S
C82    H138    1.082   .     S
C82    N107    1.367   .     A
C82    C293    1.417   .     S
C83    N108    1.367   .     A
C83    H139    1.082   .     S
C83    C502    1.417   1_545 S
C84    H140    1.082   .     S
C84    N107    1.367   .     A
C84    C291    1.417   .     S
C85    O113    1.290   .     A
C85    C90     1.458   .     S
C85    O116    1.292   .     A
C86    O115    1.289   .     A
C86    O114    1.291   .     A
C86    C89     1.455   .     S
C87    C89     1.406   .     A
C87    C97     1.412   .     A
C87    C117    1.492   .     S
C88    C90     1.407   .     A
C88    C98     1.410   .     A
C88    C120    1.492   .     S
C89    C91     1.410   .     A
C90    C92     1.412   .     A
C91    C123    1.491   .     S
C91    C93     1.416   .     A
C92    C94     1.418   .     A
C92    C126    1.490   .     S
C93    C95     1.422   .     A
C93    C99     1.422   .     A
C94    C96     1.422   .     A
C94    C100    1.424   .     A
C95    C97     1.416   .     A
C95    C726    1.417   .     S
C96    C98     1.417   .     A
C96    C725    1.417   1_554 S
C99    C129    1.489   .     S
C99    C703    1.393   .     S
C100   C132    1.488   .     S
C100   C704    1.394   1_554 S
Cu101  O111    1.963   .     S
Cu101  O115    1.968   .     S
Cu101  N107    2.013   .     S
Cu101  O113    1.967   .     S
Cu101  Cu102   2.679   .     S
Cu101  O109    1.962   .     S
Cu102  N108    2.013   .     S
Cu102  O114    1.967   .     S
Cu102  O112    1.963   .     S
Cu102  O110    1.962   .     S
Cu102  O116    1.968   .     S
C117   H118    1.085   .     S
C117   O119    1.221   .     D
C120   O122    1.221   .     D
C120   H121    1.085   .     S
C123   O125    1.219   .     D
C123   H124    1.085   .     S
C126   O128    1.220   .     D
C126   H127    1.085   .     S
C129   H130    1.084   .     S
C129   O131    1.221   .     D
C132   H133    1.084   .     S
C132   O134    1.222   .     D
C141   O179    1.291   .     A
C141   O182    1.291   .     A
C141   C150    1.448   .     S
C142   O181    1.291   .     A
C142   O180    1.291   .     A
C142   C149    1.448   .     S
C143   H205    1.080   .     S
C143   C168    1.403   .     A
C143   C799    1.393   1_554 S
C144   C167    1.402   .     A
C144   H206    1.080   .     S
C144   C800    1.394   .     S
C145   C150    1.401   .     A
C145   H173    1.083   .     S
C146   C149    1.401   .     A
C146   H174    1.083   .     S
C146   C8      1.383   1_655 S
C147   C149    1.401   .     A
C147   H175    1.083   .     S
C147   C5      1.383   1_655 S
C148   C150    1.401   .     A
C148   H176    1.083   .     S
C151   N178    1.367   .     A
C151   H207    1.082   .     S
C151   C574    1.417   1_545 S
C152   H208    1.082   .     S
C152   N177    1.367   .     A
C152   C363    1.417   .     S
C153   N178    1.367   .     A
C153   H209    1.082   .     S
C153   C572    1.417   1_545 S
C154   H210    1.082   .     S
C154   N177    1.367   .     A
C154   C361    1.417   .     S
C155   O183    1.290   .     A
C155   C160    1.458   .     S
C155   O186    1.292   .     A
C156   O185    1.289   .     A
C156   O184    1.291   .     A
C156   C159    1.455   .     S
C157   C159    1.406   .     A
C157   C167    1.412   .     A
C157   C187    1.492   .     S
C158   C160    1.407   .     A
C158   C168    1.410   .     A
C158   C190    1.492   .     S
C159   C161    1.410   .     A
C160   C162    1.412   .     A
C161   C193    1.491   .     S
C161   C163    1.416   .     A
C162   C164    1.418   .     A
C162   C196    1.490   .     S
C163   C165    1.422   .     A
C163   C169    1.422   .     A
C164   C166    1.422   .     A
C164   C170    1.424   .     A
C165   C167    1.416   .     A
C165   C796    1.417   .     S
C166   C168    1.417   .     A
C166   C795    1.417   1_554 S
C169   C199    1.489   .     S
C169   C773    1.393   .     S
C170   C202    1.488   .     S
C170   C774    1.394   1_554 S
Cu171  O181    1.963   .     S
Cu171  O185    1.968   .     S
Cu171  N177    2.013   .     S
Cu171  O183    1.967   .     S
Cu171  Cu172   2.679   .     S
Cu171  O179    1.962   .     S
Cu172  N178    2.013   .     S
Cu172  O184    1.967   .     S
Cu172  O182    1.963   .     S
Cu172  O180    1.962   .     S
Cu172  O186    1.968   .     S
C187   H188    1.085   .     S
C187   O189    1.221   .     D
C190   O192    1.221   .     D
C190   H191    1.085   .     S
C193   O195    1.219   .     D
C193   H194    1.085   .     S
C196   O198    1.220   .     D
C196   H197    1.085   .     S
C199   H200    1.084   .     S
C199   O201    1.221   .     D
C202   H203    1.084   .     S
C202   O204    1.222   .     D
C211   O249    1.291   .     A
C211   O252    1.291   .     A
C211   C220    1.448   .     S
C212   O251    1.291   .     A
C212   O250    1.291   .     A
C212   C219    1.448   .     S
C213   H275    1.080   .     S
C213   C238    1.403   .     A
C213   C869    1.393   1_554 S
C214   C237    1.402   .     A
C214   H276    1.080   .     S
C214   C870    1.394   .     S
C215   C220    1.401   .     A
C215   H243    1.083   .     S
C215   C357    1.383   1_455 S
C216   C219    1.401   .     A
C216   H244    1.083   .     S
C216   C288    1.383   .     S
C217   C219    1.401   .     A
C217   H245    1.083   .     S
C217   C285    1.383   .     S
C218   C220    1.401   .     A
C218   H246    1.083   .     S
C218   C356    1.383   1_455 S
C221   N248    1.367   .     A
C221   H277    1.082   .     S
C222   H278    1.082   .     S
C222   N247    1.367   .     A
C222   C433    1.417   .     S
C223   N248    1.367   .     A
C223   H279    1.082   .     S
C224   H280    1.082   .     S
C224   N247    1.367   .     A
C224   C431    1.417   .     S
C225   O253    1.290   .     A
C225   C230    1.458   .     S
C225   O256    1.292   .     A
C226   O255    1.289   .     A
C226   O254    1.291   .     A
C226   C229    1.455   .     S
C227   C229    1.406   .     A
C227   C237    1.412   .     A
C227   C257    1.492   .     S
C228   C230    1.407   .     A
C228   C238    1.410   .     A
C228   C260    1.492   .     S
C229   C231    1.410   .     A
C230   C232    1.412   .     A
C231   C263    1.491   .     S
C231   C233    1.416   .     A
C232   C234    1.418   .     A
C232   C266    1.490   .     S
C233   C235    1.422   .     A
C233   C239    1.422   .     A
C234   C236    1.422   .     A
C234   C240    1.424   .     A
C235   C237    1.416   .     A
C235   C866    1.417   .     S
C236   C238    1.417   .     A
C236   C865    1.417   1_554 S
C239   C269    1.489   .     S
C239   C843    1.393   .     S
C240   C272    1.488   .     S
C240   C844    1.394   1_554 S
Cu241  O251    1.963   .     S
Cu241  O255    1.968   .     S
Cu241  N247    2.013   .     S
Cu241  O253    1.967   .     S
Cu241  Cu242   2.679   .     S
Cu241  O249    1.962   .     S
Cu242  N248    2.013   .     S
Cu242  O254    1.967   .     S
Cu242  O252    1.963   .     S
Cu242  O250    1.962   .     S
Cu242  O256    1.968   .     S
C257   H258    1.085   .     S
C257   O259    1.221   .     D
C260   O262    1.221   .     D
C260   H261    1.085   .     S
C263   O265    1.219   .     D
C263   H264    1.085   .     S
C266   O268    1.220   .     D
C266   H267    1.085   .     S
C269   H270    1.084   .     S
C269   O271    1.221   .     D
C272   H273    1.084   .     S
C272   O274    1.222   .     D
C281   O319    1.291   .     A
C281   O322    1.291   .     A
C281   C290    1.448   .     S
C282   O321    1.291   .     A
C282   O320    1.291   .     A
C282   C289    1.448   .     S
C283   H345    1.080   .     S
C283   C308    1.403   .     A
C283   C939    1.393   1_554 S
C284   C307    1.402   .     A
C284   H346    1.080   .     S
C284   C940    1.394   .     S
C285   C290    1.401   .     A
C285   H313    1.083   .     S
C286   C289    1.401   .     A
C286   H314    1.083   .     S
C286   C358    1.383   .     S
C287   C289    1.401   .     A
C287   H315    1.083   .     S
C287   C355    1.383   .     S
C288   C290    1.401   .     A
C288   H316    1.083   .     S
C291   N318    1.367   .     A
C291   H347    1.082   .     S
C292   H348    1.082   .     S
C292   N317    1.367   .     A
C292   C503    1.417   .     S
C293   N318    1.367   .     A
C293   H349    1.082   .     S
C294   H350    1.082   .     S
C294   N317    1.367   .     A
C294   C501    1.417   .     S
C295   O323    1.290   .     A
C295   C300    1.458   .     S
C295   O326    1.292   .     A
C296   O325    1.289   .     A
C296   O324    1.291   .     A
C296   C299    1.455   .     S
C297   C299    1.406   .     A
C297   C307    1.412   .     A
C297   C327    1.492   .     S
C298   C300    1.407   .     A
C298   C308    1.410   .     A
C298   C330    1.492   .     S
C299   C301    1.410   .     A
C300   C302    1.412   .     A
C301   C333    1.491   .     S
C301   C303    1.416   .     A
C302   C304    1.418   .     A
C302   C336    1.490   .     S
C303   C305    1.422   .     A
C303   C309    1.422   .     A
C304   C306    1.422   .     A
C304   C310    1.424   .     A
C305   C307    1.416   .     A
C305   C936    1.417   .     S
C306   C308    1.417   .     A
C306   C935    1.417   1_554 S
C309   C339    1.489   .     S
C309   C913    1.393   .     S
C310   C342    1.488   .     S
C310   C914    1.394   1_554 S
Cu311  O321    1.963   .     S
Cu311  O325    1.968   .     S
Cu311  N317    2.013   .     S
Cu311  O323    1.967   .     S
Cu311  Cu312   2.679   .     S
Cu311  O319    1.962   .     S
Cu312  N318    2.013   .     S
Cu312  O324    1.967   .     S
Cu312  O322    1.963   .     S
Cu312  O320    1.962   .     S
Cu312  O326    1.968   .     S
C327   H328    1.085   .     S
C327   O329    1.221   .     D
C330   O332    1.221   .     D
C330   H331    1.085   .     S
C333   O335    1.219   .     D
C333   H334    1.085   .     S
C336   O338    1.220   .     D
C336   H337    1.085   .     S
C339   H340    1.084   .     S
C339   O341    1.221   .     D
C342   H343    1.084   .     S
C342   O344    1.222   .     D
C351   O389    1.291   .     A
C351   O392    1.291   .     A
C351   C360    1.448   .     S
C352   O391    1.291   .     A
C352   O390    1.291   .     A
C352   C359    1.448   .     S
C353   H415    1.080   .     S
C353   C378    1.403   .     A
C353   C1009   1.393   1_554 S
C354   C377    1.402   .     A
C354   H416    1.080   .     S
C354   C1010   1.394   .     S
C355   C360    1.401   .     A
C355   H383    1.083   .     S
C356   C359    1.401   .     A
C356   H384    1.083   .     S
C356   C218    1.383   1_655 S
C357   C359    1.401   .     A
C357   H385    1.083   .     S
C357   C215    1.383   1_655 S
C358   C360    1.401   .     A
C358   H386    1.083   .     S
C361   N388    1.367   .     A
C361   H417    1.082   .     S
C362   H418    1.082   .     S
C362   N387    1.367   .     A
C362   C573    1.417   .     S
C363   N388    1.367   .     A
C363   H419    1.082   .     S
C364   H420    1.082   .     S
C364   N387    1.367   .     A
C364   C571    1.417   .     S
C365   O393    1.290   .     A
C365   C370    1.458   .     S
C365   O396    1.292   .     A
C366   O395    1.289   .     A
C366   O394    1.291   .     A
C366   C369    1.455   .     S
C367   C369    1.406   .     A
C367   C377    1.412   .     A
C367   C397    1.492   .     S
C368   C370    1.407   .     A
C368   C378    1.410   .     A
C368   C400    1.492   .     S
C369   C371    1.410   .     A
C370   C372    1.412   .     A
C371   C403    1.491   .     S
C371   C373    1.416   .     A
C372   C374    1.418   .     A
C372   C406    1.490   .     S
C373   C375    1.422   .     A
C373   C379    1.422   .     A
C374   C376    1.422   .     A
C374   C380    1.424   .     A
C375   C377    1.416   .     A
C375   C1006   1.417   .     S
C376   C378    1.417   .     A
C376   C1005   1.417   1_554 S
C379   C409    1.489   .     S
C379   C983    1.393   .     S
C380   C412    1.488   .     S
C380   C984    1.394   1_554 S
Cu381  O391    1.963   .     S
Cu381  O395    1.968   .     S
Cu381  N387    2.013   .     S
Cu381  O393    1.967   .     S
Cu381  Cu382   2.679   .     S
Cu381  O389    1.962   .     S
Cu382  N388    2.013   .     S
Cu382  O394    1.967   .     S
Cu382  O392    1.963   .     S
Cu382  O390    1.962   .     S
Cu382  O396    1.968   .     S
C397   H398    1.085   .     S
C397   O399    1.221   .     D
C400   O402    1.221   .     D
C400   H401    1.085   .     S
C403   O405    1.219   .     D
C403   H404    1.085   .     S
C406   O408    1.220   .     D
C406   H407    1.085   .     S
C409   H410    1.084   .     S
C409   O411    1.221   .     D
C412   H413    1.084   .     S
C412   O414    1.222   .     D
C421   O459    1.291   .     A
C421   O462    1.291   .     A
C421   C430    1.448   .     S
C422   O461    1.291   .     A
C422   O460    1.291   .     A
C422   C429    1.448   .     S
C423   H485    1.080   .     S
C423   C448    1.403   .     A
C423   C1079   1.393   1_554 S
C424   C447    1.402   .     A
C424   H486    1.080   .     S
C424   C1080   1.394   .     S
C425   C430    1.401   .     A
C425   H453    1.083   .     S
C425   C567    1.383   1_455 S
C426   C429    1.401   .     A
C426   H454    1.083   .     S
C426   C498    1.383   .     S
C427   C429    1.401   .     A
C427   H455    1.083   .     S
C427   C495    1.383   .     S
C428   C430    1.401   .     A
C428   H456    1.083   .     S
C428   C566    1.383   1_455 S
C431   N458    1.367   .     A
C431   H487    1.082   .     S
C432   H488    1.082   .     S
C432   N457    1.367   .     A
C432   C13     1.417   1_565 S
C433   N458    1.367   .     A
C433   H489    1.082   .     S
C434   H490    1.082   .     S
C434   N457    1.367   .     A
C434   C11     1.417   1_565 S
C435   O463    1.290   .     A
C435   C440    1.458   .     S
C435   O466    1.292   .     A
C436   O465    1.289   .     A
C436   O464    1.291   .     A
C436   C439    1.455   .     S
C437   C439    1.406   .     A
C437   C447    1.412   .     A
C437   C467    1.492   .     S
C438   C440    1.407   .     A
C438   C448    1.410   .     A
C438   C470    1.492   .     S
C439   C441    1.410   .     A
C440   C442    1.412   .     A
C441   C473    1.491   .     S
C441   C443    1.416   .     A
C442   C444    1.418   .     A
C442   C476    1.490   .     S
C443   C445    1.422   .     A
C443   C449    1.422   .     A
C444   C446    1.422   .     A
C444   C450    1.424   .     A
C445   C447    1.416   .     A
C445   C1076   1.417   .     S
C446   C448    1.417   .     A
C446   C1075   1.417   1_554 S
C449   C479    1.489   .     S
C449   C1053   1.393   .     S
C450   C482    1.488   .     S
C450   C1054   1.394   1_554 S
Cu451  O461    1.963   .     S
Cu451  O465    1.968   .     S
Cu451  N457    2.013   .     S
Cu451  O463    1.967   .     S
Cu451  Cu452   2.679   .     S
Cu451  O459    1.962   .     S
Cu452  N458    2.013   .     S
Cu452  O464    1.967   .     S
Cu452  O462    1.963   .     S
Cu452  O460    1.962   .     S
Cu452  O466    1.968   .     S
C467   H468    1.085   .     S
C467   O469    1.221   .     D
C470   O472    1.221   .     D
C470   H471    1.085   .     S
C473   O475    1.219   .     D
C473   H474    1.085   .     S
C476   O478    1.220   .     D
C476   H477    1.085   .     S
C479   H480    1.084   .     S
C479   O481    1.221   .     D
C482   H483    1.084   .     S
C482   O484    1.222   .     D
C491   O529    1.291   .     A
C491   O532    1.291   .     A
C491   C500    1.448   .     S
C492   O531    1.291   .     A
C492   O530    1.291   .     A
C492   C499    1.448   .     S
C493   H555    1.080   .     S
C493   C518    1.403   .     A
C493   C1149   1.393   1_554 S
C494   C517    1.402   .     A
C494   H556    1.080   .     S
C494   C1150   1.394   .     S
C495   C500    1.401   .     A
C495   H523    1.083   .     S
C496   C499    1.401   .     A
C496   H524    1.083   .     S
C496   C568    1.383   .     S
C497   C499    1.401   .     A
C497   H525    1.083   .     S
C497   C565    1.383   .     S
C498   C500    1.401   .     A
C498   H526    1.083   .     S
C501   N528    1.367   .     A
C501   H557    1.082   .     S
C502   H558    1.082   .     S
C502   N527    1.367   .     A
C502   C83     1.417   1_565 S
C503   N528    1.367   .     A
C503   H559    1.082   .     S
C504   H560    1.082   .     S
C504   N527    1.367   .     A
C504   C81     1.417   1_565 S
C505   O533    1.290   .     A
C505   C510    1.458   .     S
C505   O536    1.292   .     A
C506   O535    1.289   .     A
C506   O534    1.291   .     A
C506   C509    1.455   .     S
C507   C509    1.406   .     A
C507   C517    1.412   .     A
C507   C537    1.492   .     S
C508   C510    1.407   .     A
C508   C518    1.410   .     A
C508   C540    1.492   .     S
C509   C511    1.410   .     A
C510   C512    1.412   .     A
C511   C543    1.491   .     S
C511   C513    1.416   .     A
C512   C514    1.418   .     A
C512   C546    1.490   .     S
C513   C515    1.422   .     A
C513   C519    1.422   .     A
C514   C516    1.422   .     A
C514   C520    1.424   .     A
C515   C517    1.416   .     A
C515   C1146   1.417   .     S
C516   C518    1.417   .     A
C516   C1145   1.417   1_554 S
C519   C549    1.489   .     S
C519   C1123   1.393   .     S
C520   C552    1.488   .     S
C520   C1124   1.394   1_554 S
Cu521  O531    1.963   .     S
Cu521  O535    1.968   .     S
Cu521  N527    2.013   .     S
Cu521  O533    1.967   .     S
Cu521  Cu522   2.679   .     S
Cu521  O529    1.962   .     S
Cu522  N528    2.013   .     S
Cu522  O534    1.967   .     S
Cu522  O532    1.963   .     S
Cu522  O530    1.962   .     S
Cu522  O536    1.968   .     S
C537   H538    1.085   .     S
C537   O539    1.221   .     D
C540   O542    1.221   .     D
C540   H541    1.085   .     S
C543   O545    1.219   .     D
C543   H544    1.085   .     S
C546   O548    1.220   .     D
C546   H547    1.085   .     S
C549   H550    1.084   .     S
C549   O551    1.221   .     D
C552   H553    1.084   .     S
C552   O554    1.222   .     D
C561   O599    1.291   .     A
C561   O602    1.291   .     A
C561   C570    1.448   .     S
C562   O601    1.291   .     A
C562   O600    1.291   .     A
C562   C569    1.448   .     S
C563   H625    1.080   .     S
C563   C588    1.403   .     A
C563   C1219   1.393   1_554 S
C564   C587    1.402   .     A
C564   H626    1.080   .     S
C564   C1220   1.394   .     S
C565   C570    1.401   .     A
C565   H593    1.083   .     S
C566   C569    1.401   .     A
C566   H594    1.083   .     S
C566   C428    1.383   1_655 S
C567   C569    1.401   .     A
C567   H595    1.083   .     S
C567   C425    1.383   1_655 S
C568   C570    1.401   .     A
C568   H596    1.083   .     S
C571   N598    1.367   .     A
C571   H627    1.082   .     S
C572   H628    1.082   .     S
C572   N597    1.367   .     A
C572   C153    1.417   1_565 S
C573   N598    1.367   .     A
C573   H629    1.082   .     S
C574   H630    1.082   .     S
C574   N597    1.367   .     A
C574   C151    1.417   1_565 S
C575   O603    1.290   .     A
C575   C580    1.458   .     S
C575   O606    1.292   .     A
C576   O605    1.289   .     A
C576   O604    1.291   .     A
C576   C579    1.455   .     S
C577   C579    1.406   .     A
C577   C587    1.412   .     A
C577   C607    1.492   .     S
C578   C580    1.407   .     A
C578   C588    1.410   .     A
C578   C610    1.492   .     S
C579   C581    1.410   .     A
C580   C582    1.412   .     A
C581   C613    1.491   .     S
C581   C583    1.416   .     A
C582   C584    1.418   .     A
C582   C616    1.490   .     S
C583   C585    1.422   .     A
C583   C589    1.422   .     A
C584   C586    1.422   .     A
C584   C590    1.424   .     A
C585   C587    1.416   .     A
C585   C1216   1.417   .     S
C586   C588    1.417   .     A
C586   C1215   1.417   1_554 S
C589   C619    1.489   .     S
C589   C1193   1.393   .     S
C590   C622    1.488   .     S
C590   C1194   1.394   1_554 S
Cu591  O601    1.963   .     S
Cu591  O605    1.968   .     S
Cu591  N597    2.013   .     S
Cu591  O603    1.967   .     S
Cu591  Cu592   2.679   .     S
Cu591  O599    1.962   .     S
Cu592  N598    2.013   .     S
Cu592  O604    1.967   .     S
Cu592  O602    1.963   .     S
Cu592  O600    1.962   .     S
Cu592  O606    1.968   .     S
C607   H608    1.085   .     S
C607   O609    1.221   .     D
C610   O612    1.221   .     D
C610   H611    1.085   .     S
C613   O615    1.219   .     D
C613   H614    1.085   .     S
C616   O618    1.220   .     D
C616   H617    1.085   .     S
C619   H620    1.084   .     S
C619   O621    1.221   .     D
C622   H623    1.084   .     S
C622   O624    1.222   .     D
C631   O669    1.291   .     A
C631   O672    1.291   .     A
C631   C640    1.448   .     S
C632   O671    1.291   .     A
C632   O670    1.291   .     A
C632   C639    1.448   .     S
C633   H695    1.080   .     S
C633   C658    1.403   .     A
C634   C657    1.402   .     A
C634   H696    1.080   .     S
C634   C30     1.394   1_556 S
C635   C640    1.401   .     A
C635   H663    1.083   .     S
C635   C777    1.383   1_455 S
C636   C639    1.401   .     A
C636   H664    1.083   .     S
C636   C708    1.383   .     S
C637   C639    1.401   .     A
C637   H665    1.083   .     S
C637   C705    1.383   .     S
C638   C640    1.401   .     A
C638   H666    1.083   .     S
C638   C776    1.383   1_455 S
C641   N668    1.367   .     A
C641   H697    1.082   .     S
C641   C1064   1.417   1_545 S
C642   H698    1.082   .     S
C642   N667    1.367   .     A
C642   C853    1.417   .     S
C643   N668    1.367   .     A
C643   H699    1.082   .     S
C643   C1062   1.417   1_545 S
C644   H700    1.082   .     S
C644   N667    1.367   .     A
C644   C851    1.417   .     S
C645   O673    1.290   .     A
C645   C650    1.458   .     S
C645   O676    1.292   .     A
C646   O675    1.289   .     A
C646   O674    1.291   .     A
C646   C649    1.455   .     S
C647   C649    1.406   .     A
C647   C657    1.412   .     A
C647   C677    1.492   .     S
C648   C650    1.407   .     A
C648   C658    1.410   .     A
C648   C680    1.492   .     S
C649   C651    1.410   .     A
C650   C652    1.412   .     A
C651   C683    1.491   .     S
C651   C653    1.416   .     A
C652   C654    1.418   .     A
C652   C686    1.490   .     S
C653   C655    1.422   .     A
C653   C659    1.422   .     A
C654   C656    1.422   .     A
C654   C660    1.424   .     A
C655   C657    1.416   .     A
C655   C26     1.417   1_556 S
C656   C658    1.417   .     A
C659   C689    1.489   .     S
C659   C3      1.393   1_556 S
C660   C692    1.488   .     S
Cu661  O671    1.963   .     S
Cu661  O675    1.968   .     S
Cu661  N667    2.013   .     S
Cu661  O673    1.967   .     S
Cu661  Cu662   2.679   .     S
Cu661  O669    1.962   .     S
Cu662  N668    2.013   .     S
Cu662  O674    1.967   .     S
Cu662  O672    1.963   .     S
Cu662  O670    1.962   .     S
Cu662  O676    1.968   .     S
C677   H678    1.085   .     S
C677   O679    1.221   .     D
C680   O682    1.221   .     D
C680   H681    1.085   .     S
C683   O685    1.219   .     D
C683   H684    1.085   .     S
C686   O688    1.220   .     D
C686   H687    1.085   .     S
C689   H690    1.084   .     S
C689   O691    1.221   .     D
C692   H693    1.084   .     S
C692   O694    1.222   .     D
C701   O739    1.291   .     A
C701   O742    1.291   .     A
C701   C710    1.448   .     S
C702   O741    1.291   .     A
C702   O740    1.291   .     A
C702   C709    1.448   .     S
C703   H765    1.080   .     S
C703   C728    1.403   .     A
C704   C727    1.402   .     A
C704   H766    1.080   .     S
C704   C100    1.394   1_556 S
C705   C710    1.401   .     A
C705   H733    1.083   .     S
C706   C709    1.401   .     A
C706   H734    1.083   .     S
C706   C778    1.383   .     S
C707   C709    1.401   .     A
C707   H735    1.083   .     S
C707   C775    1.383   .     S
C708   C710    1.401   .     A
C708   H736    1.083   .     S
C711   N738    1.367   .     A
C711   H767    1.082   .     S
C711   C1134   1.417   1_545 S
C712   H768    1.082   .     S
C712   N737    1.367   .     A
C712   C923    1.417   .     S
C713   N738    1.367   .     A
C713   H769    1.082   .     S
C713   C1132   1.417   1_545 S
C714   H770    1.082   .     S
C714   N737    1.367   .     A
C714   C921    1.417   .     S
C715   O743    1.290   .     A
C715   C720    1.458   .     S
C715   O746    1.292   .     A
C716   O745    1.289   .     A
C716   O744    1.291   .     A
C716   C719    1.455   .     S
C717   C719    1.406   .     A
C717   C727    1.412   .     A
C717   C747    1.492   .     S
C718   C720    1.407   .     A
C718   C728    1.410   .     A
C718   C750    1.492   .     S
C719   C721    1.410   .     A
C720   C722    1.412   .     A
C721   C753    1.491   .     S
C721   C723    1.416   .     A
C722   C724    1.418   .     A
C722   C756    1.490   .     S
C723   C725    1.422   .     A
C723   C729    1.422   .     A
C724   C726    1.422   .     A
C724   C730    1.424   .     A
C725   C727    1.416   .     A
C725   C96     1.417   1_556 S
C726   C728    1.417   .     A
C729   C759    1.489   .     S
C729   C73     1.393   1_556 S
C730   C762    1.488   .     S
Cu731  O741    1.963   .     S
Cu731  O745    1.968   .     S
Cu731  N737    2.013   .     S
Cu731  O743    1.967   .     S
Cu731  Cu732   2.679   .     S
Cu731  O739    1.962   .     S
Cu732  N738    2.013   .     S
Cu732  O744    1.967   .     S
Cu732  O742    1.963   .     S
Cu732  O740    1.962   .     S
Cu732  O746    1.968   .     S
C747   H748    1.085   .     S
C747   O749    1.221   .     D
C750   O752    1.221   .     D
C750   H751    1.085   .     S
C753   O755    1.219   .     D
C753   H754    1.085   .     S
C756   O758    1.220   .     D
C756   H757    1.085   .     S
C759   H760    1.084   .     S
C759   O761    1.221   .     D
C762   H763    1.084   .     S
C762   O764    1.222   .     D
C771   O809    1.291   .     A
C771   O812    1.291   .     A
C771   C780    1.448   .     S
C772   O811    1.291   .     A
C772   O810    1.291   .     A
C772   C779    1.448   .     S
C773   H835    1.080   .     S
C773   C798    1.403   .     A
C774   C797    1.402   .     A
C774   H836    1.080   .     S
C774   C170    1.394   1_556 S
C775   C780    1.401   .     A
C775   H803    1.083   .     S
C776   C779    1.401   .     A
C776   H804    1.083   .     S
C776   C638    1.383   1_655 S
C777   C779    1.401   .     A
C777   H805    1.083   .     S
C777   C635    1.383   1_655 S
C778   C780    1.401   .     A
C778   H806    1.083   .     S
C781   N808    1.367   .     A
C781   H837    1.082   .     S
C781   C1204   1.417   1_545 S
C782   H838    1.082   .     S
C782   N807    1.367   .     A
C782   C993    1.417   .     S
C783   N808    1.367   .     A
C783   H839    1.082   .     S
C783   C1202   1.417   1_545 S
C784   H840    1.082   .     S
C784   N807    1.367   .     A
C784   C991    1.417   .     S
C785   O813    1.290   .     A
C785   C790    1.458   .     S
C785   O816    1.292   .     A
C786   O815    1.289   .     A
C786   O814    1.291   .     A
C786   C789    1.455   .     S
C787   C789    1.406   .     A
C787   C797    1.412   .     A
C787   C817    1.492   .     S
C788   C790    1.407   .     A
C788   C798    1.410   .     A
C788   C820    1.492   .     S
C789   C791    1.410   .     A
C790   C792    1.412   .     A
C791   C823    1.491   .     S
C791   C793    1.416   .     A
C792   C794    1.418   .     A
C792   C826    1.490   .     S
C793   C795    1.422   .     A
C793   C799    1.422   .     A
C794   C796    1.422   .     A
C794   C800    1.424   .     A
C795   C797    1.416   .     A
C795   C166    1.417   1_556 S
C796   C798    1.417   .     A
C799   C829    1.489   .     S
C799   C143    1.393   1_556 S
C800   C832    1.488   .     S
Cu801  O811    1.963   .     S
Cu801  O815    1.968   .     S
Cu801  N807    2.013   .     S
Cu801  O813    1.967   .     S
Cu801  Cu802   2.679   .     S
Cu801  O809    1.962   .     S
Cu802  N808    2.013   .     S
Cu802  O814    1.967   .     S
Cu802  O812    1.963   .     S
Cu802  O810    1.962   .     S
Cu802  O816    1.968   .     S
C817   H818    1.085   .     S
C817   O819    1.221   .     D
C820   O822    1.221   .     D
C820   H821    1.085   .     S
C823   O825    1.219   .     D
C823   H824    1.085   .     S
C826   O828    1.220   .     D
C826   H827    1.085   .     S
C829   H830    1.084   .     S
C829   O831    1.221   .     D
C832   H833    1.084   .     S
C832   O834    1.222   .     D
C841   O879    1.291   .     A
C841   O882    1.291   .     A
C841   C850    1.448   .     S
C842   O881    1.291   .     A
C842   O880    1.291   .     A
C842   C849    1.448   .     S
C843   H905    1.080   .     S
C843   C868    1.403   .     A
C844   C867    1.402   .     A
C844   H906    1.080   .     S
C844   C240    1.394   1_556 S
C845   C850    1.401   .     A
C845   H873    1.083   .     S
C845   C987    1.383   1_455 S
C846   C849    1.401   .     A
C846   H874    1.083   .     S
C846   C918    1.383   .     S
C847   C849    1.401   .     A
C847   H875    1.083   .     S
C847   C915    1.383   .     S
C848   C850    1.401   .     A
C848   H876    1.083   .     S
C848   C986    1.383   1_455 S
C851   N878    1.367   .     A
C851   H907    1.082   .     S
C852   H908    1.082   .     S
C852   N877    1.367   .     A
C852   C1063   1.417   .     S
C853   N878    1.367   .     A
C853   H909    1.082   .     S
C854   H910    1.082   .     S
C854   N877    1.367   .     A
C854   C1061   1.417   .     S
C855   O883    1.290   .     A
C855   C860    1.458   .     S
C855   O886    1.292   .     A
C856   O885    1.289   .     A
C856   O884    1.291   .     A
C856   C859    1.455   .     S
C857   C859    1.406   .     A
C857   C867    1.412   .     A
C857   C887    1.492   .     S
C858   C860    1.407   .     A
C858   C868    1.410   .     A
C858   C890    1.492   .     S
C859   C861    1.410   .     A
C860   C862    1.412   .     A
C861   C893    1.491   .     S
C861   C863    1.416   .     A
C862   C864    1.418   .     A
C862   C896    1.490   .     S
C863   C865    1.422   .     A
C863   C869    1.422   .     A
C864   C866    1.422   .     A
C864   C870    1.424   .     A
C865   C867    1.416   .     A
C865   C236    1.417   1_556 S
C866   C868    1.417   .     A
C869   C899    1.489   .     S
C869   C213    1.393   1_556 S
C870   C902    1.488   .     S
Cu871  O881    1.963   .     S
Cu871  O885    1.968   .     S
Cu871  N877    2.013   .     S
Cu871  O883    1.967   .     S
Cu871  Cu872   2.679   .     S
Cu871  O879    1.962   .     S
Cu872  N878    2.013   .     S
Cu872  O884    1.967   .     S
Cu872  O882    1.963   .     S
Cu872  O880    1.962   .     S
Cu872  O886    1.968   .     S
C887   H888    1.085   .     S
C887   O889    1.221   .     D
C890   O892    1.221   .     D
C890   H891    1.085   .     S
C893   O895    1.219   .     D
C893   H894    1.085   .     S
C896   O898    1.220   .     D
C896   H897    1.085   .     S
C899   H900    1.084   .     S
C899   O901    1.221   .     D
C902   H903    1.084   .     S
C902   O904    1.222   .     D
C911   O949    1.291   .     A
C911   O952    1.291   .     A
C911   C920    1.448   .     S
C912   O951    1.291   .     A
C912   O950    1.291   .     A
C912   C919    1.448   .     S
C913   H975    1.080   .     S
C913   C938    1.403   .     A
C914   C937    1.402   .     A
C914   H976    1.080   .     S
C914   C310    1.394   1_556 S
C915   C920    1.401   .     A
C915   H943    1.083   .     S
C916   C919    1.401   .     A
C916   H944    1.083   .     S
C916   C988    1.383   .     S
C917   C919    1.401   .     A
C917   H945    1.083   .     S
C917   C985    1.383   .     S
C918   C920    1.401   .     A
C918   H946    1.083   .     S
C921   N948    1.367   .     A
C921   H977    1.082   .     S
C922   H978    1.082   .     S
C922   N947    1.367   .     A
C922   C1133   1.417   .     S
C923   N948    1.367   .     A
C923   H979    1.082   .     S
C924   H980    1.082   .     S
C924   N947    1.367   .     A
C924   C1131   1.417   .     S
C925   O953    1.290   .     A
C925   C930    1.458   .     S
C925   O956    1.292   .     A
C926   O955    1.289   .     A
C926   O954    1.291   .     A
C926   C929    1.455   .     S
C927   C929    1.406   .     A
C927   C937    1.412   .     A
C927   C957    1.492   .     S
C928   C930    1.407   .     A
C928   C938    1.410   .     A
C928   C960    1.492   .     S
C929   C931    1.410   .     A
C930   C932    1.412   .     A
C931   C963    1.491   .     S
C931   C933    1.416   .     A
C932   C934    1.418   .     A
C932   C966    1.490   .     S
C933   C935    1.422   .     A
C933   C939    1.422   .     A
C934   C936    1.422   .     A
C934   C940    1.424   .     A
C935   C937    1.416   .     A
C935   C306    1.417   1_556 S
C936   C938    1.417   .     A
C939   C969    1.489   .     S
C939   C283    1.393   1_556 S
C940   C972    1.488   .     S
Cu941  O951    1.963   .     S
Cu941  O955    1.968   .     S
Cu941  N947    2.013   .     S
Cu941  O953    1.967   .     S
Cu941  Cu942   2.679   .     S
Cu941  O949    1.962   .     S
Cu942  N948    2.013   .     S
Cu942  O954    1.967   .     S
Cu942  O952    1.963   .     S
Cu942  O950    1.962   .     S
Cu942  O956    1.968   .     S
C957   H958    1.085   .     S
C957   O959    1.221   .     D
C960   O962    1.221   .     D
C960   H961    1.085   .     S
C963   O965    1.219   .     D
C963   H964    1.085   .     S
C966   O968    1.220   .     D
C966   H967    1.085   .     S
C969   H970    1.084   .     S
C969   O971    1.221   .     D
C972   H973    1.084   .     S
C972   O974    1.222   .     D
C981   O1019   1.291   .     A
C981   O1022   1.291   .     A
C981   C990    1.448   .     S
C982   O1021   1.291   .     A
C982   O1020   1.291   .     A
C982   C989    1.448   .     S
C983   H1045   1.080   .     S
C983   C1008   1.403   .     A
C984   C1007   1.402   .     A
C984   H1046   1.080   .     S
C984   C380    1.394   1_556 S
C985   C990    1.401   .     A
C985   H1013   1.083   .     S
C986   C989    1.401   .     A
C986   H1014   1.083   .     S
C986   C848    1.383   1_655 S
C987   C989    1.401   .     A
C987   H1015   1.083   .     S
C987   C845    1.383   1_655 S
C988   C990    1.401   .     A
C988   H1016   1.083   .     S
C991   N1018   1.367   .     A
C991   H1047   1.082   .     S
C992   H1048   1.082   .     S
C992   N1017   1.367   .     A
C992   C1203   1.417   .     S
C993   N1018   1.367   .     A
C993   H1049   1.082   .     S
C994   H1050   1.082   .     S
C994   N1017   1.367   .     A
C994   C1201   1.417   .     S
C995   O1023   1.290   .     A
C995   C1000   1.458   .     S
C995   O1026   1.292   .     A
C996   O1025   1.289   .     A
C996   O1024   1.291   .     A
C996   C999    1.455   .     S
C997   C999    1.406   .     A
C997   C1007   1.412   .     A
C997   C1027   1.492   .     S
C998   C1000   1.407   .     A
C998   C1008   1.410   .     A
C998   C1030   1.492   .     S
C999   C1001   1.410   .     A
C1000  C1002   1.412   .     A
C1001  C1033   1.491   .     S
C1001  C1003   1.416   .     A
C1002  C1004   1.418   .     A
C1002  C1036   1.490   .     S
C1003  C1005   1.422   .     A
C1003  C1009   1.422   .     A
C1004  C1006   1.422   .     A
C1004  C1010   1.424   .     A
C1005  C1007   1.416   .     A
C1005  C376    1.417   1_556 S
C1006  C1008   1.417   .     A
C1009  C1039   1.489   .     S
C1009  C353    1.393   1_556 S
C1010  C1042   1.488   .     S
Cu1011 O1021   1.963   .     S
Cu1011 O1025   1.968   .     S
Cu1011 N1017   2.013   .     S
Cu1011 O1023   1.967   .     S
Cu1011 Cu1012  2.679   .     S
Cu1011 O1019   1.962   .     S
Cu1012 N1018   2.013   .     S
Cu1012 O1024   1.967   .     S
Cu1012 O1022   1.963   .     S
Cu1012 O1020   1.962   .     S
Cu1012 O1026   1.968   .     S
C1027  H1028   1.085   .     S
C1027  O1029   1.221   .     D
C1030  O1032   1.221   .     D
C1030  H1031   1.085   .     S
C1033  O1035   1.219   .     D
C1033  H1034   1.085   .     S
C1036  O1038   1.220   .     D
C1036  H1037   1.085   .     S
C1039  H1040   1.084   .     S
C1039  O1041   1.221   .     D
C1042  H1043   1.084   .     S
C1042  O1044   1.222   .     D
C1051  O1089   1.291   .     A
C1051  O1092   1.291   .     A
C1051  C1060   1.448   .     S
C1052  O1091   1.291   .     A
C1052  O1090   1.291   .     A
C1052  C1059   1.448   .     S
C1053  H1115   1.080   .     S
C1053  C1078   1.403   .     A
C1054  C1077   1.402   .     A
C1054  H1116   1.080   .     S
C1054  C450    1.394   1_556 S
C1055  C1060   1.401   .     A
C1055  H1083   1.083   .     S
C1055  C1197   1.383   1_455 S
C1056  C1059   1.401   .     A
C1056  H1084   1.083   .     S
C1056  C1128   1.383   .     S
C1057  C1059   1.401   .     A
C1057  H1085   1.083   .     S
C1057  C1125   1.383   .     S
C1058  C1060   1.401   .     A
C1058  H1086   1.083   .     S
C1058  C1196   1.383   1_455 S
C1061  N1088   1.367   .     A
C1061  H1117   1.082   .     S
C1062  H1118   1.082   .     S
C1062  N1087   1.367   .     A
C1062  C643    1.417   1_565 S
C1063  N1088   1.367   .     A
C1063  H1119   1.082   .     S
C1064  H1120   1.082   .     S
C1064  N1087   1.367   .     A
C1064  C641    1.417   1_565 S
C1065  O1093   1.290   .     A
C1065  C1070   1.458   .     S
C1065  O1096   1.292   .     A
C1066  O1095   1.289   .     A
C1066  O1094   1.291   .     A
C1066  C1069   1.455   .     S
C1067  C1069   1.406   .     A
C1067  C1077   1.412   .     A
C1067  C1097   1.492   .     S
C1068  C1070   1.407   .     A
C1068  C1078   1.410   .     A
C1068  C1100   1.492   .     S
C1069  C1071   1.410   .     A
C1070  C1072   1.412   .     A
C1071  C1103   1.491   .     S
C1071  C1073   1.416   .     A
C1072  C1074   1.418   .     A
C1072  C1106   1.490   .     S
C1073  C1075   1.422   .     A
C1073  C1079   1.422   .     A
C1074  C1076   1.422   .     A
C1074  C1080   1.424   .     A
C1075  C1077   1.416   .     A
C1075  C446    1.417   1_556 S
C1076  C1078   1.417   .     A
C1079  C1109   1.489   .     S
C1079  C423    1.393   1_556 S
C1080  C1112   1.488   .     S
Cu1081 O1091   1.963   .     S
Cu1081 O1095   1.968   .     S
Cu1081 N1087   2.013   .     S
Cu1081 O1093   1.967   .     S
Cu1081 Cu1082  2.679   .     S
Cu1081 O1089   1.962   .     S
Cu1082 N1088   2.013   .     S
Cu1082 O1094   1.967   .     S
Cu1082 O1092   1.963   .     S
Cu1082 O1090   1.962   .     S
Cu1082 O1096   1.968   .     S
C1097  H1098   1.085   .     S
C1097  O1099   1.221   .     D
C1100  O1102   1.221   .     D
C1100  H1101   1.085   .     S
C1103  O1105   1.219   .     D
C1103  H1104   1.085   .     S
C1106  O1108   1.220   .     D
C1106  H1107   1.085   .     S
C1109  H1110   1.084   .     S
C1109  O1111   1.221   .     D
C1112  H1113   1.084   .     S
C1112  O1114   1.222   .     D
C1121  O1159   1.291   .     A
C1121  O1162   1.291   .     A
C1121  C1130   1.448   .     S
C1122  O1161   1.291   .     A
C1122  O1160   1.291   .     A
C1122  C1129   1.448   .     S
C1123  H1185   1.080   .     S
C1123  C1148   1.403   .     A
C1124  C1147   1.402   .     A
C1124  H1186   1.080   .     S
C1124  C520    1.394   1_556 S
C1125  C1130   1.401   .     A
C1125  H1153   1.083   .     S
C1126  C1129   1.401   .     A
C1126  H1154   1.083   .     S
C1126  C1198   1.383   .     S
C1127  C1129   1.401   .     A
C1127  H1155   1.083   .     S
C1127  C1195   1.383   .     S
C1128  C1130   1.401   .     A
C1128  H1156   1.083   .     S
C1131  N1158   1.367   .     A
C1131  H1187   1.082   .     S
C1132  H1188   1.082   .     S
C1132  N1157   1.367   .     A
C1132  C713    1.417   1_565 S
C1133  N1158   1.367   .     A
C1133  H1189   1.082   .     S
C1134  H1190   1.082   .     S
C1134  N1157   1.367   .     A
C1134  C711    1.417   1_565 S
C1135  O1163   1.290   .     A
C1135  C1140   1.458   .     S
C1135  O1166   1.292   .     A
C1136  O1165   1.289   .     A
C1136  O1164   1.291   .     A
C1136  C1139   1.455   .     S
C1137  C1139   1.406   .     A
C1137  C1147   1.412   .     A
C1137  C1167   1.492   .     S
C1138  C1140   1.407   .     A
C1138  C1148   1.410   .     A
C1138  C1170   1.492   .     S
C1139  C1141   1.410   .     A
C1140  C1142   1.412   .     A
C1141  C1173   1.491   .     S
C1141  C1143   1.416   .     A
C1142  C1144   1.418   .     A
C1142  C1176   1.490   .     S
C1143  C1145   1.422   .     A
C1143  C1149   1.422   .     A
C1144  C1146   1.422   .     A
C1144  C1150   1.424   .     A
C1145  C1147   1.416   .     A
C1145  C516    1.417   1_556 S
C1146  C1148   1.417   .     A
C1149  C1179   1.489   .     S
C1149  C493    1.393   1_556 S
C1150  C1182   1.488   .     S
Cu1151 O1161   1.963   .     S
Cu1151 O1165   1.968   .     S
Cu1151 N1157   2.013   .     S
Cu1151 O1163   1.967   .     S
Cu1151 Cu1152  2.679   .     S
Cu1151 O1159   1.962   .     S
Cu1152 N1158   2.013   .     S
Cu1152 O1164   1.967   .     S
Cu1152 O1162   1.963   .     S
Cu1152 O1160   1.962   .     S
Cu1152 O1166   1.968   .     S
C1167  H1168   1.085   .     S
C1167  O1169   1.221   .     D
C1170  O1172   1.221   .     D
C1170  H1171   1.085   .     S
C1173  O1175   1.219   .     D
C1173  H1174   1.085   .     S
C1176  O1178   1.220   .     D
C1176  H1177   1.085   .     S
C1179  H1180   1.084   .     S
C1179  O1181   1.221   .     D
C1182  H1183   1.084   .     S
C1182  O1184   1.222   .     D
C1191  O1229   1.291   .     A
C1191  O1232   1.291   .     A
C1191  C1200   1.448   .     S
C1192  O1231   1.291   .     A
C1192  O1230   1.291   .     A
C1192  C1199   1.448   .     S
C1193  H1255   1.080   .     S
C1193  C1218   1.403   .     A
C1194  C1217   1.402   .     A
C1194  H1256   1.080   .     S
C1194  C590    1.394   1_556 S
C1195  C1200   1.401   .     A
C1195  H1223   1.083   .     S
C1196  C1199   1.401   .     A
C1196  H1224   1.083   .     S
C1196  C1058   1.383   1_655 S
C1197  C1199   1.401   .     A
C1197  H1225   1.083   .     S
C1197  C1055   1.383   1_655 S
C1198  C1200   1.401   .     A
C1198  H1226   1.083   .     S
C1201  N1228   1.367   .     A
C1201  H1257   1.082   .     S
C1202  H1258   1.082   .     S
C1202  N1227   1.367   .     A
C1202  C783    1.417   1_565 S
C1203  N1228   1.367   .     A
C1203  H1259   1.082   .     S
C1204  H1260   1.082   .     S
C1204  N1227   1.367   .     A
C1204  C781    1.417   1_565 S
C1205  O1233   1.290   .     A
C1205  C1210   1.458   .     S
C1205  O1236   1.292   .     A
C1206  O1235   1.289   .     A
C1206  O1234   1.291   .     A
C1206  C1209   1.455   .     S
C1207  C1209   1.406   .     A
C1207  C1217   1.412   .     A
C1207  C1237   1.492   .     S
C1208  C1210   1.407   .     A
C1208  C1218   1.410   .     A
C1208  C1240   1.492   .     S
C1209  C1211   1.410   .     A
C1210  C1212   1.412   .     A
C1211  C1243   1.491   .     S
C1211  C1213   1.416   .     A
C1212  C1214   1.418   .     A
C1212  C1246   1.490   .     S
C1213  C1215   1.422   .     A
C1213  C1219   1.422   .     A
C1214  C1216   1.422   .     A
C1214  C1220   1.424   .     A
C1215  C1217   1.416   .     A
C1215  C586    1.417   1_556 S
C1216  C1218   1.417   .     A
C1219  C1249   1.489   .     S
C1219  C563    1.393   1_556 S
C1220  C1252   1.488   .     S
Cu1221 O1231   1.963   .     S
Cu1221 O1235   1.968   .     S
Cu1221 N1227   2.013   .     S
Cu1221 O1233   1.967   .     S
Cu1221 Cu1222  2.679   .     S
Cu1221 O1229   1.962   .     S
Cu1222 N1228   2.013   .     S
Cu1222 O1234   1.967   .     S
Cu1222 O1232   1.963   .     S
Cu1222 O1230   1.962   .     S
Cu1222 O1236   1.968   .     S
C1237  H1238   1.085   .     S
C1237  O1239   1.221   .     D
C1240  O1242   1.221   .     D
C1240  H1241   1.085   .     S
C1243  O1245   1.219   .     D
C1243  H1244   1.085   .     S
C1246  O1248   1.220   .     D
C1246  H1247   1.085   .     S
C1249  H1250   1.084   .     S
C1249  O1251   1.221   .     D
C1252  H1253   1.084   .     S
C1252  O1254   1.222   .     D
