data_str_m3_o10_o17_pcu_sym.122
_audit_creation_date              2020-01-03
_audit_creation_method            'Materials Studio'
_symmetry_space_group_name_H-M    'P1'
_symmetry_Int_Tables_number       1
_symmetry_cell_setting            triclinic
loop_
_symmetry_equiv_pos_as_xyz
  x,y,z
_cell_length_a                    23.2642
_cell_length_b                    25.7692
_cell_length_c                    29.8313
_cell_angle_alpha                 90.1972
_cell_angle_beta                  86.4707
_cell_angle_gamma                 93.7442
loop_
_atom_site_label
_atom_site_type_symbol
_atom_site_fract_x
_atom_site_fract_y
_atom_site_fract_z
_atom_site_U_iso_or_equiv
_atom_site_adp_type
_atom_site_occupancy
C1     C     0.18200   0.26493   0.24927   0.00000  Uiso   1.00
C2     C     0.19627   0.20990   0.40605   0.00000  Uiso   1.00
C3     C     0.16386   0.16420   0.11602   0.00000  Uiso   1.00
C4     C     0.17020   0.16727   0.38385   0.00000  Uiso   1.00
C5     C     0.19125   0.20606   0.09244   0.00000  Uiso   1.00
C6     C     0.14364   0.12443   0.40692   0.00000  Uiso   1.00
C7     C     0.19219   0.20708   0.04623   0.00000  Uiso   1.00
C8     C     0.14219   0.12325   0.45331   0.00000  Uiso   1.00
C9     C     0.16596   0.16487   0.02330   0.00000  Uiso   1.00
C10    C     0.16754   0.16579   0.47646   0.00000  Uiso   1.00
C11    C     0.13888   0.12158   0.04713   0.00000  Uiso   1.00
C12    C     0.15142   0.06843   0.25233   0.00000  Uiso   1.00
C13    C     0.19404   0.20952   0.45283   0.00000  Uiso   1.00
C14    C     0.21848   0.24995   0.02274   0.00000  Uiso   1.00
C15    C     0.11537   0.08050   0.47683   0.00000  Uiso   1.00
C16    C     0.15435   0.04868   0.13768   0.00000  Uiso   1.00
C17    C     0.19812   0.02490   0.10424   0.00000  Uiso   1.00
C18    C     0.24864   0.00596   0.12878   0.00000  Uiso   1.00
C19    C     0.27381   0.24813   0.36348   0.00000  Uiso   1.00
C20    C     0.31762   0.28595   0.38496   0.00000  Uiso   1.00
C21    C     0.04315   0.28721   0.35925   0.00000  Uiso   1.00
C22    C     0.21787   0.25189   0.47647   0.00000  Uiso   1.00
C23    C     0.11360   0.07966   0.02348   0.00000  Uiso   1.00
C24    C     0.19009   0.31946   0.24994   0.00000  Uiso   1.00
C25    C     0.14344   0.01390   0.25351   0.00000  Uiso   1.00
C26    C     0.16792   0.16769   0.33635   0.00000  Uiso   1.00
C27    C     0.16556   0.16627   0.16361   0.00000  Uiso   1.00
C28    C     0.13904   0.12052   0.09404   0.00000  Uiso   1.00
H29    H     0.21165   0.23799   0.11044   0.00000  Uiso   1.00
H30    H     0.32887   0.20596   0.28304   0.00000  Uiso   1.00
H31    H     0.13037   0.01624   0.15663   0.00000  Uiso   1.00
H32    H     0.17735   0.07165   0.16290   0.00000  Uiso   1.00
H33    H     0.17578   0.32543   0.08676   0.00000  Uiso   1.00
H34    H     0.21617   0.05369   0.07871   0.00000  Uiso   1.00
H35    H     0.27239   0.03931   0.14464   0.00000  Uiso   1.00
H36    H     0.27920   0.32065   0.10472   0.00000  Uiso   1.00
H37    H     0.23291   0.31081   0.15530   0.00000  Uiso   1.00
H38    H     0.27336   0.25814   0.32738   0.00000  Uiso   1.00
H39    H     0.28852   0.20784   0.36574   0.00000  Uiso   1.00
H40    H     0.12380   0.09223   0.38855   0.00000  Uiso   1.00
H41    H     0.30176   0.32572   0.38548   0.00000  Uiso   1.00
H42    H     0.32302   0.27364   0.41999   0.00000  Uiso   1.00
H43    H     0.06064   0.24815   0.35958   0.00000  Uiso   1.00
H44    H     0.07371   0.31531   0.37539   0.00000  Uiso   1.00
H45    H     0.03948   0.29952   0.32397   0.00000  Uiso   1.00
H46    H     0.23944   0.28216   0.03997   0.00000  Uiso   1.00
H47    H     0.09578   0.04773   0.45914   0.00000  Uiso   1.00
H48    H     0.23646   0.28658   0.45948   0.00000  Uiso   1.00
H49    H     0.09277   0.04600   0.04084   0.00000  Uiso   1.00
H50    H     0.23415   0.00324   0.24703   0.00000  Uiso   1.00
H51    H     0.09940   0.33014   0.25623   0.00000  Uiso   1.00
H52    H     0.00461   0.12755   0.21668   0.00000  Uiso   1.00
N53    N     0.31678   0.15265   0.23783   0.00000  Uiso   1.00
N54    N     0.01656   0.18068   0.26217   0.00000  Uiso   1.00
O55    O     0.12975   0.24619   0.25298   0.00000  Uiso   1.00
O56    O     0.21745   0.25432   0.38272   0.00000  Uiso   1.00
O57    O     0.20358   0.08714   0.24701   0.00000  Uiso   1.00
O58    O     0.22613   0.23721   0.24518   0.00000  Uiso   1.00
O59    O     0.10720   0.09613   0.25481   0.00000  Uiso   1.00
O60    O     0.11847   0.17117   0.31997   0.00000  Uiso   1.00
O61    O     0.21486   0.16216   0.18002   0.00000  Uiso   1.00
O62    O     0.21485   0.16219   0.31217   0.00000  Uiso   1.00
O63    O     0.11848   0.17115   0.18782   0.00000  Uiso   1.00
O64    O     0.11306   0.07759   0.11728   0.00000  Uiso   1.00
Zn65   Zn    0.10231   0.17266   0.25521   0.00000  Uiso   1.00
Zn66   Zn    0.23102   0.16067   0.24479   0.00000  Uiso   1.00
C67    C     0.51533   0.26493   0.24927   0.00000  Uiso   1.00
C68    C     0.52960   0.20990   0.40605   0.00000  Uiso   1.00
C69    C     0.49720   0.16420   0.11602   0.00000  Uiso   1.00
C70    C     0.50353   0.16727   0.38385   0.00000  Uiso   1.00
C71    C     0.52459   0.20606   0.09244   0.00000  Uiso   1.00
C72    C     0.47697   0.12443   0.40692   0.00000  Uiso   1.00
C73    C     0.52552   0.20708   0.04623   0.00000  Uiso   1.00
C74    C     0.47552   0.12325   0.45331   0.00000  Uiso   1.00
C75    C     0.49929   0.16487   0.02330   0.00000  Uiso   1.00
C76    C     0.50087   0.16579   0.47646   0.00000  Uiso   1.00
C77    C     0.47221   0.12158   0.04713   0.00000  Uiso   1.00
C78    C     0.48475   0.06843   0.25233   0.00000  Uiso   1.00
C79    C     0.52737   0.20952   0.45283   0.00000  Uiso   1.00
C80    C     0.55182   0.24995   0.02274   0.00000  Uiso   1.00
C81    C     0.44870   0.08050   0.47683   0.00000  Uiso   1.00
C82    C     0.48768   0.04868   0.13768   0.00000  Uiso   1.00
C83    C     0.53145   0.02490   0.10424   0.00000  Uiso   1.00
C84    C     0.58198   0.00596   0.12878   0.00000  Uiso   1.00
C85    C     0.60715   0.24813   0.36348   0.00000  Uiso   1.00
C86    C     0.65096   0.28595   0.38496   0.00000  Uiso   1.00
C87    C     0.37649   0.28721   0.35925   0.00000  Uiso   1.00
C88    C     0.55121   0.25189   0.47647   0.00000  Uiso   1.00
C89    C     0.44693   0.07966   0.02348   0.00000  Uiso   1.00
C90    C     0.52342   0.31946   0.24994   0.00000  Uiso   1.00
C91    C     0.47677   0.01390   0.25351   0.00000  Uiso   1.00
C92    C     0.50125   0.16769   0.33635   0.00000  Uiso   1.00
C93    C     0.49889   0.16627   0.16361   0.00000  Uiso   1.00
C94    C     0.47237   0.12052   0.09404   0.00000  Uiso   1.00
H95    H     0.54498   0.23799   0.11044   0.00000  Uiso   1.00
H96    H     0.66220   0.20596   0.28304   0.00000  Uiso   1.00
H97    H     0.46370   0.01624   0.15663   0.00000  Uiso   1.00
H98    H     0.51068   0.07165   0.16290   0.00000  Uiso   1.00
H99    H     0.50912   0.32543   0.08676   0.00000  Uiso   1.00
H100   H     0.54951   0.05369   0.07871   0.00000  Uiso   1.00
H101   H     0.60572   0.03931   0.14464   0.00000  Uiso   1.00
H102   H     0.61254   0.32065   0.10472   0.00000  Uiso   1.00
H103   H     0.56624   0.31081   0.15530   0.00000  Uiso   1.00
H104   H     0.60669   0.25814   0.32738   0.00000  Uiso   1.00
H105   H     0.62185   0.20784   0.36574   0.00000  Uiso   1.00
H106   H     0.45713   0.09223   0.38855   0.00000  Uiso   1.00
H107   H     0.63510   0.32572   0.38548   0.00000  Uiso   1.00
H108   H     0.65635   0.27364   0.41999   0.00000  Uiso   1.00
H109   H     0.39397   0.24815   0.35958   0.00000  Uiso   1.00
H110   H     0.40705   0.31531   0.37539   0.00000  Uiso   1.00
H111   H     0.37281   0.29952   0.32397   0.00000  Uiso   1.00
H112   H     0.57278   0.28216   0.03997   0.00000  Uiso   1.00
H113   H     0.42911   0.04773   0.45914   0.00000  Uiso   1.00
H114   H     0.56979   0.28658   0.45948   0.00000  Uiso   1.00
H115   H     0.42611   0.04600   0.04084   0.00000  Uiso   1.00
H116   H     0.56748   0.00324   0.24703   0.00000  Uiso   1.00
H117   H     0.43273   0.33014   0.25623   0.00000  Uiso   1.00
H118   H     0.33794   0.12755   0.21668   0.00000  Uiso   1.00
N119   N     0.65011   0.15265   0.23783   0.00000  Uiso   1.00
N120   N     0.34989   0.18068   0.26217   0.00000  Uiso   1.00
O121   O     0.46308   0.24619   0.25298   0.00000  Uiso   1.00
O122   O     0.55079   0.25432   0.38272   0.00000  Uiso   1.00
O123   O     0.53692   0.08714   0.24701   0.00000  Uiso   1.00
O124   O     0.55946   0.23721   0.24518   0.00000  Uiso   1.00
O125   O     0.44054   0.09613   0.25481   0.00000  Uiso   1.00
O126   O     0.45181   0.17117   0.31997   0.00000  Uiso   1.00
O127   O     0.54819   0.16216   0.18002   0.00000  Uiso   1.00
O128   O     0.54819   0.16219   0.31217   0.00000  Uiso   1.00
O129   O     0.45181   0.17115   0.18782   0.00000  Uiso   1.00
O130   O     0.44639   0.07759   0.11728   0.00000  Uiso   1.00
Zn131  Zn    0.43565   0.17266   0.25521   0.00000  Uiso   1.00
Zn132  Zn    0.56435   0.16067   0.24479   0.00000  Uiso   1.00
C133   C     0.84866   0.26493   0.24927   0.00000  Uiso   1.00
C134   C     0.86293   0.20990   0.40605   0.00000  Uiso   1.00
C135   C     0.83053   0.16420   0.11602   0.00000  Uiso   1.00
C136   C     0.83686   0.16727   0.38385   0.00000  Uiso   1.00
C137   C     0.85792   0.20606   0.09244   0.00000  Uiso   1.00
C138   C     0.81030   0.12443   0.40692   0.00000  Uiso   1.00
C139   C     0.85885   0.20708   0.04623   0.00000  Uiso   1.00
C140   C     0.80886   0.12325   0.45331   0.00000  Uiso   1.00
C141   C     0.83263   0.16487   0.02330   0.00000  Uiso   1.00
C142   C     0.83420   0.16579   0.47646   0.00000  Uiso   1.00
C143   C     0.80554   0.12158   0.04713   0.00000  Uiso   1.00
C144   C     0.81808   0.06843   0.25233   0.00000  Uiso   1.00
C145   C     0.86071   0.20952   0.45283   0.00000  Uiso   1.00
C146   C     0.88515   0.24995   0.02274   0.00000  Uiso   1.00
C147   C     0.78204   0.08050   0.47683   0.00000  Uiso   1.00
C148   C     0.82101   0.04868   0.13768   0.00000  Uiso   1.00
C149   C     0.86478   0.02490   0.10424   0.00000  Uiso   1.00
C150   C     0.91531   0.00596   0.12878   0.00000  Uiso   1.00
C151   C     0.94048   0.24813   0.36348   0.00000  Uiso   1.00
C152   C     0.98429   0.28595   0.38496   0.00000  Uiso   1.00
C153   C     0.70982   0.28721   0.35925   0.00000  Uiso   1.00
C154   C     0.88454   0.25189   0.47647   0.00000  Uiso   1.00
C155   C     0.78027   0.07966   0.02348   0.00000  Uiso   1.00
C156   C     0.85675   0.31946   0.24994   0.00000  Uiso   1.00
C157   C     0.81010   0.01390   0.25351   0.00000  Uiso   1.00
C158   C     0.83458   0.16769   0.33635   0.00000  Uiso   1.00
C159   C     0.83223   0.16627   0.16361   0.00000  Uiso   1.00
C160   C     0.80570   0.12052   0.09404   0.00000  Uiso   1.00
H161   H     0.87831   0.23799   0.11044   0.00000  Uiso   1.00
H162   H     0.99553   0.20596   0.28304   0.00000  Uiso   1.00
H163   H     0.79703   0.01624   0.15663   0.00000  Uiso   1.00
H164   H     0.84402   0.07165   0.16290   0.00000  Uiso   1.00
H165   H     0.84245   0.32543   0.08676   0.00000  Uiso   1.00
H166   H     0.88284   0.05369   0.07871   0.00000  Uiso   1.00
H167   H     0.93906   0.03931   0.14464   0.00000  Uiso   1.00
H168   H     0.94587   0.32065   0.10472   0.00000  Uiso   1.00
H169   H     0.89958   0.31081   0.15530   0.00000  Uiso   1.00
H170   H     0.94003   0.25814   0.32738   0.00000  Uiso   1.00
H171   H     0.95518   0.20784   0.36574   0.00000  Uiso   1.00
H172   H     0.79046   0.09223   0.38855   0.00000  Uiso   1.00
H173   H     0.96843   0.32572   0.38548   0.00000  Uiso   1.00
H174   H     0.98969   0.27364   0.41999   0.00000  Uiso   1.00
H175   H     0.72730   0.24815   0.35958   0.00000  Uiso   1.00
H176   H     0.74038   0.31531   0.37539   0.00000  Uiso   1.00
H177   H     0.70615   0.29952   0.32397   0.00000  Uiso   1.00
H178   H     0.90611   0.28216   0.03997   0.00000  Uiso   1.00
H179   H     0.76244   0.04773   0.45914   0.00000  Uiso   1.00
H180   H     0.90312   0.28658   0.45948   0.00000  Uiso   1.00
H181   H     0.75944   0.04600   0.04084   0.00000  Uiso   1.00
H182   H     0.90082   0.00324   0.24703   0.00000  Uiso   1.00
H183   H     0.76606   0.33014   0.25623   0.00000  Uiso   1.00
H184   H     0.67128   0.12755   0.21668   0.00000  Uiso   1.00
N185   N     0.98344   0.15265   0.23783   0.00000  Uiso   1.00
N186   N     0.68322   0.18068   0.26217   0.00000  Uiso   1.00
O187   O     0.79642   0.24619   0.25298   0.00000  Uiso   1.00
O188   O     0.88412   0.25432   0.38272   0.00000  Uiso   1.00
O189   O     0.87025   0.08714   0.24701   0.00000  Uiso   1.00
O190   O     0.89280   0.23721   0.24518   0.00000  Uiso   1.00
O191   O     0.77387   0.09613   0.25481   0.00000  Uiso   1.00
O192   O     0.78514   0.17117   0.31997   0.00000  Uiso   1.00
O193   O     0.88153   0.16216   0.18002   0.00000  Uiso   1.00
O194   O     0.88152   0.16219   0.31217   0.00000  Uiso   1.00
O195   O     0.78515   0.17115   0.18782   0.00000  Uiso   1.00
O196   O     0.77973   0.07759   0.11728   0.00000  Uiso   1.00
Zn197  Zn    0.76898   0.17266   0.25521   0.00000  Uiso   1.00
Zn198  Zn    0.89769   0.16067   0.24479   0.00000  Uiso   1.00
C199   C     0.18200   0.59827   0.24927   0.00000  Uiso   1.00
C200   C     0.19627   0.54323   0.40605   0.00000  Uiso   1.00
C201   C     0.16386   0.49753   0.11602   0.00000  Uiso   1.00
C202   C     0.17020   0.50060   0.38385   0.00000  Uiso   1.00
C203   C     0.19125   0.53939   0.09244   0.00000  Uiso   1.00
C204   C     0.14364   0.45776   0.40692   0.00000  Uiso   1.00
C205   C     0.19219   0.54041   0.04623   0.00000  Uiso   1.00
C206   C     0.14219   0.45658   0.45331   0.00000  Uiso   1.00
C207   C     0.16596   0.49820   0.02330   0.00000  Uiso   1.00
C208   C     0.16754   0.49912   0.47646   0.00000  Uiso   1.00
C209   C     0.13888   0.45491   0.04713   0.00000  Uiso   1.00
C210   C     0.15142   0.40176   0.25233   0.00000  Uiso   1.00
C211   C     0.19404   0.54285   0.45283   0.00000  Uiso   1.00
C212   C     0.21848   0.58328   0.02274   0.00000  Uiso   1.00
C213   C     0.11537   0.41383   0.47683   0.00000  Uiso   1.00
C214   C     0.15435   0.38202   0.13768   0.00000  Uiso   1.00
C215   C     0.19812   0.35824   0.10424   0.00000  Uiso   1.00
C216   C     0.24864   0.33929   0.12878   0.00000  Uiso   1.00
C217   C     0.27381   0.58147   0.36348   0.00000  Uiso   1.00
C218   C     0.31762   0.61928   0.38496   0.00000  Uiso   1.00
C219   C     0.04315   0.62054   0.35925   0.00000  Uiso   1.00
C220   C     0.21787   0.58522   0.47647   0.00000  Uiso   1.00
C221   C     0.11360   0.41300   0.02348   0.00000  Uiso   1.00
C222   C     0.19009   0.65279   0.24994   0.00000  Uiso   1.00
C223   C     0.14344   0.34724   0.25351   0.00000  Uiso   1.00
C224   C     0.16792   0.50102   0.33635   0.00000  Uiso   1.00
C225   C     0.16556   0.49960   0.16361   0.00000  Uiso   1.00
C226   C     0.13904   0.45386   0.09404   0.00000  Uiso   1.00
H227   H     0.21165   0.57132   0.11044   0.00000  Uiso   1.00
H228   H     0.32887   0.53929   0.28304   0.00000  Uiso   1.00
H229   H     0.13037   0.34957   0.15663   0.00000  Uiso   1.00
H230   H     0.17735   0.40498   0.16290   0.00000  Uiso   1.00
H231   H     0.17578   0.65876   0.08676   0.00000  Uiso   1.00
H232   H     0.21617   0.38702   0.07871   0.00000  Uiso   1.00
H233   H     0.27239   0.37264   0.14464   0.00000  Uiso   1.00
H234   H     0.27920   0.65398   0.10472   0.00000  Uiso   1.00
H235   H     0.23291   0.64414   0.15530   0.00000  Uiso   1.00
H236   H     0.27336   0.59148   0.32738   0.00000  Uiso   1.00
H237   H     0.28852   0.54117   0.36574   0.00000  Uiso   1.00
H238   H     0.12380   0.42557   0.38855   0.00000  Uiso   1.00
H239   H     0.30176   0.65906   0.38548   0.00000  Uiso   1.00
H240   H     0.32302   0.60697   0.41999   0.00000  Uiso   1.00
H241   H     0.06064   0.58149   0.35958   0.00000  Uiso   1.00
H242   H     0.07371   0.64864   0.37539   0.00000  Uiso   1.00
H243   H     0.03948   0.63286   0.32397   0.00000  Uiso   1.00
H244   H     0.23944   0.61550   0.03997   0.00000  Uiso   1.00
H245   H     0.09578   0.38107   0.45914   0.00000  Uiso   1.00
H246   H     0.23646   0.61991   0.45948   0.00000  Uiso   1.00
H247   H     0.09277   0.37933   0.04084   0.00000  Uiso   1.00
H248   H     0.23415   0.33657   0.24703   0.00000  Uiso   1.00
H249   H     0.09940   0.66347   0.25623   0.00000  Uiso   1.00
H250   H     0.00461   0.46089   0.21668   0.00000  Uiso   1.00
N251   N     0.31678   0.48598   0.23783   0.00000  Uiso   1.00
N252   N     0.01656   0.51402   0.26217   0.00000  Uiso   1.00
O253   O     0.12975   0.57952   0.25298   0.00000  Uiso   1.00
O254   O     0.21745   0.58766   0.38272   0.00000  Uiso   1.00
O255   O     0.20358   0.42048   0.24701   0.00000  Uiso   1.00
O256   O     0.22613   0.57054   0.24518   0.00000  Uiso   1.00
O257   O     0.10720   0.42946   0.25481   0.00000  Uiso   1.00
O258   O     0.11847   0.50450   0.31997   0.00000  Uiso   1.00
O259   O     0.21486   0.49550   0.18002   0.00000  Uiso   1.00
O260   O     0.21485   0.49552   0.31217   0.00000  Uiso   1.00
O261   O     0.11848   0.50448   0.18782   0.00000  Uiso   1.00
O262   O     0.11306   0.41093   0.11728   0.00000  Uiso   1.00
Zn263  Zn    0.10231   0.50600   0.25521   0.00000  Uiso   1.00
Zn264  Zn    0.23102   0.49400   0.24479   0.00000  Uiso   1.00
C265   C     0.51533   0.59827   0.24927   0.00000  Uiso   1.00
C266   C     0.52960   0.54323   0.40605   0.00000  Uiso   1.00
C267   C     0.49720   0.49753   0.11602   0.00000  Uiso   1.00
C268   C     0.50353   0.50060   0.38385   0.00000  Uiso   1.00
C269   C     0.52459   0.53939   0.09244   0.00000  Uiso   1.00
C270   C     0.47697   0.45776   0.40692   0.00000  Uiso   1.00
C271   C     0.52552   0.54041   0.04623   0.00000  Uiso   1.00
C272   C     0.47552   0.45658   0.45331   0.00000  Uiso   1.00
C273   C     0.49929   0.49820   0.02330   0.00000  Uiso   1.00
C274   C     0.50087   0.49912   0.47646   0.00000  Uiso   1.00
C275   C     0.47221   0.45491   0.04713   0.00000  Uiso   1.00
C276   C     0.48475   0.40176   0.25233   0.00000  Uiso   1.00
C277   C     0.52737   0.54285   0.45283   0.00000  Uiso   1.00
C278   C     0.55182   0.58328   0.02274   0.00000  Uiso   1.00
C279   C     0.44870   0.41383   0.47683   0.00000  Uiso   1.00
C280   C     0.48768   0.38202   0.13768   0.00000  Uiso   1.00
C281   C     0.53145   0.35824   0.10424   0.00000  Uiso   1.00
C282   C     0.58198   0.33929   0.12878   0.00000  Uiso   1.00
C283   C     0.60715   0.58147   0.36348   0.00000  Uiso   1.00
C284   C     0.65096   0.61928   0.38496   0.00000  Uiso   1.00
C285   C     0.37649   0.62054   0.35925   0.00000  Uiso   1.00
C286   C     0.55121   0.58522   0.47647   0.00000  Uiso   1.00
C287   C     0.44693   0.41300   0.02348   0.00000  Uiso   1.00
C288   C     0.52342   0.65279   0.24994   0.00000  Uiso   1.00
C289   C     0.47677   0.34724   0.25351   0.00000  Uiso   1.00
C290   C     0.50125   0.50102   0.33635   0.00000  Uiso   1.00
C291   C     0.49889   0.49960   0.16361   0.00000  Uiso   1.00
C292   C     0.47237   0.45386   0.09404   0.00000  Uiso   1.00
H293   H     0.54498   0.57132   0.11044   0.00000  Uiso   1.00
H294   H     0.66220   0.53929   0.28304   0.00000  Uiso   1.00
H295   H     0.46370   0.34957   0.15663   0.00000  Uiso   1.00
H296   H     0.51068   0.40498   0.16290   0.00000  Uiso   1.00
H297   H     0.50912   0.65876   0.08676   0.00000  Uiso   1.00
H298   H     0.54951   0.38702   0.07871   0.00000  Uiso   1.00
H299   H     0.60572   0.37264   0.14464   0.00000  Uiso   1.00
H300   H     0.61254   0.65398   0.10472   0.00000  Uiso   1.00
H301   H     0.56624   0.64414   0.15530   0.00000  Uiso   1.00
H302   H     0.60669   0.59148   0.32738   0.00000  Uiso   1.00
H303   H     0.62185   0.54117   0.36574   0.00000  Uiso   1.00
H304   H     0.45713   0.42557   0.38855   0.00000  Uiso   1.00
H305   H     0.63510   0.65906   0.38548   0.00000  Uiso   1.00
H306   H     0.65635   0.60697   0.41999   0.00000  Uiso   1.00
H307   H     0.39397   0.58149   0.35958   0.00000  Uiso   1.00
H308   H     0.40705   0.64864   0.37539   0.00000  Uiso   1.00
H309   H     0.37281   0.63286   0.32397   0.00000  Uiso   1.00
H310   H     0.57278   0.61550   0.03997   0.00000  Uiso   1.00
H311   H     0.42911   0.38107   0.45914   0.00000  Uiso   1.00
H312   H     0.56979   0.61991   0.45948   0.00000  Uiso   1.00
H313   H     0.42611   0.37933   0.04084   0.00000  Uiso   1.00
H314   H     0.56748   0.33657   0.24703   0.00000  Uiso   1.00
H315   H     0.43273   0.66347   0.25623   0.00000  Uiso   1.00
H316   H     0.33794   0.46089   0.21668   0.00000  Uiso   1.00
N317   N     0.65011   0.48598   0.23783   0.00000  Uiso   1.00
N318   N     0.34989   0.51402   0.26217   0.00000  Uiso   1.00
O319   O     0.46308   0.57952   0.25298   0.00000  Uiso   1.00
O320   O     0.55079   0.58766   0.38272   0.00000  Uiso   1.00
O321   O     0.53692   0.42048   0.24701   0.00000  Uiso   1.00
O322   O     0.55946   0.57054   0.24518   0.00000  Uiso   1.00
O323   O     0.44054   0.42946   0.25481   0.00000  Uiso   1.00
O324   O     0.45181   0.50450   0.31997   0.00000  Uiso   1.00
O325   O     0.54819   0.49550   0.18002   0.00000  Uiso   1.00
O326   O     0.54819   0.49552   0.31217   0.00000  Uiso   1.00
O327   O     0.45181   0.50448   0.18782   0.00000  Uiso   1.00
O328   O     0.44639   0.41093   0.11728   0.00000  Uiso   1.00
Zn329  Zn    0.43565   0.50600   0.25521   0.00000  Uiso   1.00
Zn330  Zn    0.56435   0.49400   0.24479   0.00000  Uiso   1.00
C331   C     0.84866   0.59827   0.24927   0.00000  Uiso   1.00
C332   C     0.86293   0.54323   0.40605   0.00000  Uiso   1.00
C333   C     0.83053   0.49753   0.11602   0.00000  Uiso   1.00
C334   C     0.83686   0.50060   0.38385   0.00000  Uiso   1.00
C335   C     0.85792   0.53939   0.09244   0.00000  Uiso   1.00
C336   C     0.81030   0.45776   0.40692   0.00000  Uiso   1.00
C337   C     0.85885   0.54041   0.04623   0.00000  Uiso   1.00
C338   C     0.80886   0.45658   0.45331   0.00000  Uiso   1.00
C339   C     0.83263   0.49820   0.02330   0.00000  Uiso   1.00
C340   C     0.83420   0.49912   0.47646   0.00000  Uiso   1.00
C341   C     0.80554   0.45491   0.04713   0.00000  Uiso   1.00
C342   C     0.81808   0.40176   0.25233   0.00000  Uiso   1.00
C343   C     0.86071   0.54285   0.45283   0.00000  Uiso   1.00
C344   C     0.88515   0.58328   0.02274   0.00000  Uiso   1.00
C345   C     0.78204   0.41383   0.47683   0.00000  Uiso   1.00
C346   C     0.82101   0.38202   0.13768   0.00000  Uiso   1.00
C347   C     0.86478   0.35824   0.10424   0.00000  Uiso   1.00
C348   C     0.91531   0.33929   0.12878   0.00000  Uiso   1.00
C349   C     0.94048   0.58147   0.36348   0.00000  Uiso   1.00
C350   C     0.98429   0.61928   0.38496   0.00000  Uiso   1.00
C351   C     0.70982   0.62054   0.35925   0.00000  Uiso   1.00
C352   C     0.88454   0.58522   0.47647   0.00000  Uiso   1.00
C353   C     0.78027   0.41300   0.02348   0.00000  Uiso   1.00
C354   C     0.85675   0.65279   0.24994   0.00000  Uiso   1.00
C355   C     0.81010   0.34724   0.25351   0.00000  Uiso   1.00
C356   C     0.83458   0.50102   0.33635   0.00000  Uiso   1.00
C357   C     0.83223   0.49960   0.16361   0.00000  Uiso   1.00
C358   C     0.80570   0.45386   0.09404   0.00000  Uiso   1.00
H359   H     0.87831   0.57132   0.11044   0.00000  Uiso   1.00
H360   H     0.99553   0.53929   0.28304   0.00000  Uiso   1.00
H361   H     0.79703   0.34957   0.15663   0.00000  Uiso   1.00
H362   H     0.84402   0.40498   0.16290   0.00000  Uiso   1.00
H363   H     0.84245   0.65876   0.08676   0.00000  Uiso   1.00
H364   H     0.88284   0.38702   0.07871   0.00000  Uiso   1.00
H365   H     0.93906   0.37264   0.14464   0.00000  Uiso   1.00
H366   H     0.94587   0.65398   0.10472   0.00000  Uiso   1.00
H367   H     0.89958   0.64414   0.15530   0.00000  Uiso   1.00
H368   H     0.94003   0.59148   0.32738   0.00000  Uiso   1.00
H369   H     0.95518   0.54117   0.36574   0.00000  Uiso   1.00
H370   H     0.79046   0.42557   0.38855   0.00000  Uiso   1.00
H371   H     0.96843   0.65906   0.38548   0.00000  Uiso   1.00
H372   H     0.98969   0.60697   0.41999   0.00000  Uiso   1.00
H373   H     0.72730   0.58149   0.35958   0.00000  Uiso   1.00
H374   H     0.74038   0.64864   0.37539   0.00000  Uiso   1.00
H375   H     0.70615   0.63286   0.32397   0.00000  Uiso   1.00
H376   H     0.90611   0.61550   0.03997   0.00000  Uiso   1.00
H377   H     0.76244   0.38107   0.45914   0.00000  Uiso   1.00
H378   H     0.90312   0.61991   0.45948   0.00000  Uiso   1.00
H379   H     0.75944   0.37933   0.04084   0.00000  Uiso   1.00
H380   H     0.90082   0.33657   0.24703   0.00000  Uiso   1.00
H381   H     0.76606   0.66347   0.25623   0.00000  Uiso   1.00
H382   H     0.67128   0.46089   0.21668   0.00000  Uiso   1.00
N383   N     0.98344   0.48598   0.23783   0.00000  Uiso   1.00
N384   N     0.68322   0.51402   0.26217   0.00000  Uiso   1.00
O385   O     0.79642   0.57952   0.25298   0.00000  Uiso   1.00
O386   O     0.88412   0.58766   0.38272   0.00000  Uiso   1.00
O387   O     0.87025   0.42048   0.24701   0.00000  Uiso   1.00
O388   O     0.89280   0.57054   0.24518   0.00000  Uiso   1.00
O389   O     0.77387   0.42946   0.25481   0.00000  Uiso   1.00
O390   O     0.78514   0.50450   0.31997   0.00000  Uiso   1.00
O391   O     0.88153   0.49550   0.18002   0.00000  Uiso   1.00
O392   O     0.88152   0.49552   0.31217   0.00000  Uiso   1.00
O393   O     0.78515   0.50448   0.18782   0.00000  Uiso   1.00
O394   O     0.77973   0.41093   0.11728   0.00000  Uiso   1.00
Zn395  Zn    0.76898   0.50600   0.25521   0.00000  Uiso   1.00
Zn396  Zn    0.89769   0.49400   0.24479   0.00000  Uiso   1.00
C397   C     0.18200   0.93160   0.24927   0.00000  Uiso   1.00
C398   C     0.19627   0.87656   0.40605   0.00000  Uiso   1.00
C399   C     0.16386   0.83087   0.11602   0.00000  Uiso   1.00
C400   C     0.17020   0.83394   0.38385   0.00000  Uiso   1.00
C401   C     0.19125   0.87273   0.09244   0.00000  Uiso   1.00
C402   C     0.14364   0.79109   0.40692   0.00000  Uiso   1.00
C403   C     0.19219   0.87374   0.04623   0.00000  Uiso   1.00
C404   C     0.14219   0.78991   0.45331   0.00000  Uiso   1.00
C405   C     0.16596   0.83154   0.02330   0.00000  Uiso   1.00
C406   C     0.16754   0.83246   0.47646   0.00000  Uiso   1.00
C407   C     0.13888   0.78824   0.04713   0.00000  Uiso   1.00
C408   C     0.15142   0.73509   0.25233   0.00000  Uiso   1.00
C409   C     0.19404   0.87618   0.45283   0.00000  Uiso   1.00
C410   C     0.21848   0.91662   0.02274   0.00000  Uiso   1.00
C411   C     0.11537   0.74716   0.47683   0.00000  Uiso   1.00
C412   C     0.15435   0.71535   0.13768   0.00000  Uiso   1.00
C413   C     0.19812   0.69157   0.10424   0.00000  Uiso   1.00
C414   C     0.24864   0.67263   0.12878   0.00000  Uiso   1.00
C415   C     0.27381   0.91480   0.36348   0.00000  Uiso   1.00
C416   C     0.31762   0.95261   0.38496   0.00000  Uiso   1.00
C417   C     0.04315   0.95387   0.35925   0.00000  Uiso   1.00
C418   C     0.21787   0.91856   0.47647   0.00000  Uiso   1.00
C419   C     0.11360   0.74633   0.02348   0.00000  Uiso   1.00
C420   C     0.19009   0.98612   0.24994   0.00000  Uiso   1.00
C421   C     0.14344   0.68057   0.25351   0.00000  Uiso   1.00
C422   C     0.16792   0.83435   0.33635   0.00000  Uiso   1.00
C423   C     0.16556   0.83293   0.16361   0.00000  Uiso   1.00
C424   C     0.13904   0.78719   0.09404   0.00000  Uiso   1.00
H425   H     0.21165   0.90466   0.11044   0.00000  Uiso   1.00
H426   H     0.32887   0.87262   0.28304   0.00000  Uiso   1.00
H427   H     0.13037   0.68290   0.15663   0.00000  Uiso   1.00
H428   H     0.17735   0.73831   0.16290   0.00000  Uiso   1.00
H429   H     0.17578   0.99210   0.08676   0.00000  Uiso   1.00
H430   H     0.21617   0.72036   0.07871   0.00000  Uiso   1.00
H431   H     0.27239   0.70597   0.14464   0.00000  Uiso   1.00
H432   H     0.27920   0.98731   0.10472   0.00000  Uiso   1.00
H433   H     0.23291   0.97747   0.15530   0.00000  Uiso   1.00
H434   H     0.27336   0.92481   0.32738   0.00000  Uiso   1.00
H435   H     0.28852   0.87451   0.36574   0.00000  Uiso   1.00
H436   H     0.12380   0.75890   0.38855   0.00000  Uiso   1.00
H437   H     0.30176   0.99239   0.38548   0.00000  Uiso   1.00
H438   H     0.32302   0.94031   0.41999   0.00000  Uiso   1.00
H439   H     0.06064   0.91482   0.35958   0.00000  Uiso   1.00
H440   H     0.07371   0.98198   0.37539   0.00000  Uiso   1.00
H441   H     0.03948   0.96619   0.32397   0.00000  Uiso   1.00
H442   H     0.23944   0.94883   0.03997   0.00000  Uiso   1.00
H443   H     0.09578   0.71440   0.45914   0.00000  Uiso   1.00
H444   H     0.23646   0.95325   0.45948   0.00000  Uiso   1.00
H445   H     0.09277   0.71267   0.04084   0.00000  Uiso   1.00
H446   H     0.23415   0.66991   0.24703   0.00000  Uiso   1.00
H447   H     0.09940   0.99680   0.25623   0.00000  Uiso   1.00
H448   H     0.00461   0.79422   0.21668   0.00000  Uiso   1.00
N449   N     0.31678   0.81932   0.23783   0.00000  Uiso   1.00
N450   N     0.01656   0.84735   0.26217   0.00000  Uiso   1.00
O451   O     0.12975   0.91286   0.25298   0.00000  Uiso   1.00
O452   O     0.21745   0.92099   0.38272   0.00000  Uiso   1.00
O453   O     0.20358   0.75381   0.24701   0.00000  Uiso   1.00
O454   O     0.22613   0.90387   0.24518   0.00000  Uiso   1.00
O455   O     0.10720   0.76279   0.25481   0.00000  Uiso   1.00
O456   O     0.11847   0.83784   0.31997   0.00000  Uiso   1.00
O457   O     0.21486   0.82883   0.18002   0.00000  Uiso   1.00
O458   O     0.21485   0.82885   0.31217   0.00000  Uiso   1.00
O459   O     0.11848   0.83781   0.18782   0.00000  Uiso   1.00
O460   O     0.11306   0.74426   0.11728   0.00000  Uiso   1.00
Zn461  Zn    0.10231   0.83933   0.25521   0.00000  Uiso   1.00
Zn462  Zn    0.23102   0.82734   0.24479   0.00000  Uiso   1.00
C463   C     0.51533   0.93160   0.24927   0.00000  Uiso   1.00
C464   C     0.52960   0.87656   0.40605   0.00000  Uiso   1.00
C465   C     0.49720   0.83087   0.11602   0.00000  Uiso   1.00
C466   C     0.50353   0.83394   0.38385   0.00000  Uiso   1.00
C467   C     0.52459   0.87273   0.09244   0.00000  Uiso   1.00
C468   C     0.47697   0.79109   0.40692   0.00000  Uiso   1.00
C469   C     0.52552   0.87374   0.04623   0.00000  Uiso   1.00
C470   C     0.47552   0.78991   0.45331   0.00000  Uiso   1.00
C471   C     0.49929   0.83154   0.02330   0.00000  Uiso   1.00
C472   C     0.50087   0.83246   0.47646   0.00000  Uiso   1.00
C473   C     0.47221   0.78824   0.04713   0.00000  Uiso   1.00
C474   C     0.48475   0.73509   0.25233   0.00000  Uiso   1.00
C475   C     0.52737   0.87618   0.45283   0.00000  Uiso   1.00
C476   C     0.55182   0.91662   0.02274   0.00000  Uiso   1.00
C477   C     0.44870   0.74716   0.47683   0.00000  Uiso   1.00
C478   C     0.48768   0.71535   0.13768   0.00000  Uiso   1.00
C479   C     0.53145   0.69157   0.10424   0.00000  Uiso   1.00
C480   C     0.58198   0.67263   0.12878   0.00000  Uiso   1.00
C481   C     0.60715   0.91480   0.36348   0.00000  Uiso   1.00
C482   C     0.65096   0.95261   0.38496   0.00000  Uiso   1.00
C483   C     0.37649   0.95387   0.35925   0.00000  Uiso   1.00
C484   C     0.55121   0.91856   0.47647   0.00000  Uiso   1.00
C485   C     0.44693   0.74633   0.02348   0.00000  Uiso   1.00
C486   C     0.52342   0.98612   0.24994   0.00000  Uiso   1.00
C487   C     0.47677   0.68057   0.25351   0.00000  Uiso   1.00
C488   C     0.50125   0.83435   0.33635   0.00000  Uiso   1.00
C489   C     0.49889   0.83293   0.16361   0.00000  Uiso   1.00
C490   C     0.47237   0.78719   0.09404   0.00000  Uiso   1.00
H491   H     0.54498   0.90466   0.11044   0.00000  Uiso   1.00
H492   H     0.66220   0.87262   0.28304   0.00000  Uiso   1.00
H493   H     0.46370   0.68290   0.15663   0.00000  Uiso   1.00
H494   H     0.51068   0.73831   0.16290   0.00000  Uiso   1.00
H495   H     0.50912   0.99210   0.08676   0.00000  Uiso   1.00
H496   H     0.54951   0.72036   0.07871   0.00000  Uiso   1.00
H497   H     0.60572   0.70597   0.14464   0.00000  Uiso   1.00
H498   H     0.61254   0.98731   0.10472   0.00000  Uiso   1.00
H499   H     0.56624   0.97747   0.15530   0.00000  Uiso   1.00
H500   H     0.60669   0.92481   0.32738   0.00000  Uiso   1.00
H501   H     0.62185   0.87451   0.36574   0.00000  Uiso   1.00
H502   H     0.45713   0.75890   0.38855   0.00000  Uiso   1.00
H503   H     0.63510   0.99239   0.38548   0.00000  Uiso   1.00
H504   H     0.65635   0.94031   0.41999   0.00000  Uiso   1.00
H505   H     0.39397   0.91482   0.35958   0.00000  Uiso   1.00
H506   H     0.40705   0.98198   0.37539   0.00000  Uiso   1.00
H507   H     0.37281   0.96619   0.32397   0.00000  Uiso   1.00
H508   H     0.57278   0.94883   0.03997   0.00000  Uiso   1.00
H509   H     0.42911   0.71440   0.45914   0.00000  Uiso   1.00
H510   H     0.56979   0.95325   0.45948   0.00000  Uiso   1.00
H511   H     0.42611   0.71267   0.04084   0.00000  Uiso   1.00
H512   H     0.56748   0.66991   0.24703   0.00000  Uiso   1.00
H513   H     0.43273   0.99680   0.25623   0.00000  Uiso   1.00
H514   H     0.33794   0.79422   0.21668   0.00000  Uiso   1.00
N515   N     0.65011   0.81932   0.23783   0.00000  Uiso   1.00
N516   N     0.34989   0.84735   0.26217   0.00000  Uiso   1.00
O517   O     0.46308   0.91286   0.25298   0.00000  Uiso   1.00
O518   O     0.55079   0.92099   0.38272   0.00000  Uiso   1.00
O519   O     0.53692   0.75381   0.24701   0.00000  Uiso   1.00
O520   O     0.55946   0.90387   0.24518   0.00000  Uiso   1.00
O521   O     0.44054   0.76279   0.25481   0.00000  Uiso   1.00
O522   O     0.45181   0.83784   0.31997   0.00000  Uiso   1.00
O523   O     0.54819   0.82883   0.18002   0.00000  Uiso   1.00
O524   O     0.54819   0.82885   0.31217   0.00000  Uiso   1.00
O525   O     0.45181   0.83781   0.18782   0.00000  Uiso   1.00
O526   O     0.44639   0.74426   0.11728   0.00000  Uiso   1.00
Zn527  Zn    0.43565   0.83933   0.25521   0.00000  Uiso   1.00
Zn528  Zn    0.56435   0.82734   0.24479   0.00000  Uiso   1.00
C529   C     0.84866   0.93160   0.24927   0.00000  Uiso   1.00
C530   C     0.86293   0.87656   0.40605   0.00000  Uiso   1.00
C531   C     0.83053   0.83087   0.11602   0.00000  Uiso   1.00
C532   C     0.83686   0.83394   0.38385   0.00000  Uiso   1.00
C533   C     0.85792   0.87273   0.09244   0.00000  Uiso   1.00
C534   C     0.81030   0.79109   0.40692   0.00000  Uiso   1.00
C535   C     0.85885   0.87374   0.04623   0.00000  Uiso   1.00
C536   C     0.80886   0.78991   0.45331   0.00000  Uiso   1.00
C537   C     0.83263   0.83154   0.02330   0.00000  Uiso   1.00
C538   C     0.83420   0.83246   0.47646   0.00000  Uiso   1.00
C539   C     0.80554   0.78824   0.04713   0.00000  Uiso   1.00
C540   C     0.81808   0.73509   0.25233   0.00000  Uiso   1.00
C541   C     0.86071   0.87618   0.45283   0.00000  Uiso   1.00
C542   C     0.88515   0.91662   0.02274   0.00000  Uiso   1.00
C543   C     0.78204   0.74716   0.47683   0.00000  Uiso   1.00
C544   C     0.82101   0.71535   0.13768   0.00000  Uiso   1.00
C545   C     0.86478   0.69157   0.10424   0.00000  Uiso   1.00
C546   C     0.91531   0.67263   0.12878   0.00000  Uiso   1.00
C547   C     0.94048   0.91480   0.36348   0.00000  Uiso   1.00
C548   C     0.98429   0.95261   0.38496   0.00000  Uiso   1.00
C549   C     0.70982   0.95387   0.35925   0.00000  Uiso   1.00
C550   C     0.88454   0.91856   0.47647   0.00000  Uiso   1.00
C551   C     0.78027   0.74633   0.02348   0.00000  Uiso   1.00
C552   C     0.85675   0.98612   0.24994   0.00000  Uiso   1.00
C553   C     0.81010   0.68057   0.25351   0.00000  Uiso   1.00
C554   C     0.83458   0.83435   0.33635   0.00000  Uiso   1.00
C555   C     0.83223   0.83293   0.16361   0.00000  Uiso   1.00
C556   C     0.80570   0.78719   0.09404   0.00000  Uiso   1.00
H557   H     0.87831   0.90466   0.11044   0.00000  Uiso   1.00
H558   H     0.99553   0.87262   0.28304   0.00000  Uiso   1.00
H559   H     0.79703   0.68290   0.15663   0.00000  Uiso   1.00
H560   H     0.84402   0.73831   0.16290   0.00000  Uiso   1.00
H561   H     0.84245   0.99210   0.08676   0.00000  Uiso   1.00
H562   H     0.88284   0.72036   0.07871   0.00000  Uiso   1.00
H563   H     0.93906   0.70597   0.14464   0.00000  Uiso   1.00
H564   H     0.94587   0.98731   0.10472   0.00000  Uiso   1.00
H565   H     0.89958   0.97747   0.15530   0.00000  Uiso   1.00
H566   H     0.94003   0.92481   0.32738   0.00000  Uiso   1.00
H567   H     0.95518   0.87451   0.36574   0.00000  Uiso   1.00
H568   H     0.79046   0.75890   0.38855   0.00000  Uiso   1.00
H569   H     0.96843   0.99239   0.38548   0.00000  Uiso   1.00
H570   H     0.98969   0.94031   0.41999   0.00000  Uiso   1.00
H571   H     0.72730   0.91482   0.35958   0.00000  Uiso   1.00
H572   H     0.74038   0.98198   0.37539   0.00000  Uiso   1.00
H573   H     0.70615   0.96619   0.32397   0.00000  Uiso   1.00
H574   H     0.90611   0.94883   0.03997   0.00000  Uiso   1.00
H575   H     0.76244   0.71440   0.45914   0.00000  Uiso   1.00
H576   H     0.90312   0.95325   0.45948   0.00000  Uiso   1.00
H577   H     0.75944   0.71267   0.04084   0.00000  Uiso   1.00
H578   H     0.90082   0.66991   0.24703   0.00000  Uiso   1.00
H579   H     0.76606   0.99680   0.25623   0.00000  Uiso   1.00
H580   H     0.67128   0.79422   0.21668   0.00000  Uiso   1.00
N581   N     0.98344   0.81932   0.23783   0.00000  Uiso   1.00
N582   N     0.68322   0.84735   0.26217   0.00000  Uiso   1.00
O583   O     0.79642   0.91286   0.25298   0.00000  Uiso   1.00
O584   O     0.88412   0.92099   0.38272   0.00000  Uiso   1.00
O585   O     0.87025   0.75381   0.24701   0.00000  Uiso   1.00
O586   O     0.89280   0.90387   0.24518   0.00000  Uiso   1.00
O587   O     0.77387   0.76279   0.25481   0.00000  Uiso   1.00
O588   O     0.78514   0.83784   0.31997   0.00000  Uiso   1.00
O589   O     0.88153   0.82883   0.18002   0.00000  Uiso   1.00
O590   O     0.88152   0.82885   0.31217   0.00000  Uiso   1.00
O591   O     0.78515   0.83781   0.18782   0.00000  Uiso   1.00
O592   O     0.77973   0.74426   0.11728   0.00000  Uiso   1.00
Zn593  Zn    0.76898   0.83933   0.25521   0.00000  Uiso   1.00
Zn594  Zn    0.89769   0.82734   0.24479   0.00000  Uiso   1.00
C595   C     0.18200   0.26493   0.74927   0.00000  Uiso   1.00
C596   C     0.19627   0.20990   0.90605   0.00000  Uiso   1.00
C597   C     0.16386   0.16420   0.61602   0.00000  Uiso   1.00
C598   C     0.17020   0.16727   0.88385   0.00000  Uiso   1.00
C599   C     0.19125   0.20606   0.59244   0.00000  Uiso   1.00
C600   C     0.14364   0.12443   0.90692   0.00000  Uiso   1.00
C601   C     0.19219   0.20708   0.54623   0.00000  Uiso   1.00
C602   C     0.14219   0.12325   0.95331   0.00000  Uiso   1.00
C603   C     0.16596   0.16487   0.52330   0.00000  Uiso   1.00
C604   C     0.16754   0.16579   0.97646   0.00000  Uiso   1.00
C605   C     0.13888   0.12158   0.54713   0.00000  Uiso   1.00
C606   C     0.15142   0.06843   0.75233   0.00000  Uiso   1.00
C607   C     0.19404   0.20952   0.95283   0.00000  Uiso   1.00
C608   C     0.21848   0.24995   0.52274   0.00000  Uiso   1.00
C609   C     0.11537   0.08050   0.97683   0.00000  Uiso   1.00
C610   C     0.15435   0.04868   0.63768   0.00000  Uiso   1.00
C611   C     0.19812   0.02490   0.60424   0.00000  Uiso   1.00
C612   C     0.24864   0.00596   0.62878   0.00000  Uiso   1.00
C613   C     0.27381   0.24813   0.86348   0.00000  Uiso   1.00
C614   C     0.31762   0.28595   0.88496   0.00000  Uiso   1.00
C615   C     0.04315   0.28721   0.85925   0.00000  Uiso   1.00
C616   C     0.21787   0.25189   0.97647   0.00000  Uiso   1.00
C617   C     0.11360   0.07966   0.52348   0.00000  Uiso   1.00
C618   C     0.19009   0.31946   0.74994   0.00000  Uiso   1.00
C619   C     0.14344   0.01390   0.75351   0.00000  Uiso   1.00
C620   C     0.16792   0.16769   0.83635   0.00000  Uiso   1.00
C621   C     0.16556   0.16627   0.66361   0.00000  Uiso   1.00
C622   C     0.13904   0.12052   0.59404   0.00000  Uiso   1.00
H623   H     0.21165   0.23799   0.61044   0.00000  Uiso   1.00
H624   H     0.32887   0.20596   0.78304   0.00000  Uiso   1.00
H625   H     0.13037   0.01624   0.65663   0.00000  Uiso   1.00
H626   H     0.17735   0.07165   0.66290   0.00000  Uiso   1.00
H627   H     0.17578   0.32543   0.58676   0.00000  Uiso   1.00
H628   H     0.21617   0.05369   0.57871   0.00000  Uiso   1.00
H629   H     0.27239   0.03931   0.64464   0.00000  Uiso   1.00
H630   H     0.27920   0.32065   0.60472   0.00000  Uiso   1.00
H631   H     0.23291   0.31081   0.65530   0.00000  Uiso   1.00
H632   H     0.27336   0.25814   0.82738   0.00000  Uiso   1.00
H633   H     0.28852   0.20784   0.86574   0.00000  Uiso   1.00
H634   H     0.12380   0.09223   0.88855   0.00000  Uiso   1.00
H635   H     0.30176   0.32572   0.88548   0.00000  Uiso   1.00
H636   H     0.32302   0.27364   0.91999   0.00000  Uiso   1.00
H637   H     0.06064   0.24815   0.85958   0.00000  Uiso   1.00
H638   H     0.07371   0.31531   0.87539   0.00000  Uiso   1.00
H639   H     0.03948   0.29952   0.82397   0.00000  Uiso   1.00
H640   H     0.23944   0.28216   0.53997   0.00000  Uiso   1.00
H641   H     0.09578   0.04773   0.95914   0.00000  Uiso   1.00
H642   H     0.23646   0.28658   0.95948   0.00000  Uiso   1.00
H643   H     0.09277   0.04600   0.54084   0.00000  Uiso   1.00
H644   H     0.23415   0.00324   0.74703   0.00000  Uiso   1.00
H645   H     0.09940   0.33014   0.75623   0.00000  Uiso   1.00
H646   H     0.00461   0.12755   0.71668   0.00000  Uiso   1.00
N647   N     0.31678   0.15265   0.73783   0.00000  Uiso   1.00
N648   N     0.01656   0.18068   0.76217   0.00000  Uiso   1.00
O649   O     0.12975   0.24619   0.75298   0.00000  Uiso   1.00
O650   O     0.21745   0.25432   0.88272   0.00000  Uiso   1.00
O651   O     0.20358   0.08714   0.74701   0.00000  Uiso   1.00
O652   O     0.22613   0.23721   0.74518   0.00000  Uiso   1.00
O653   O     0.10720   0.09613   0.75481   0.00000  Uiso   1.00
O654   O     0.11847   0.17117   0.81997   0.00000  Uiso   1.00
O655   O     0.21486   0.16216   0.68002   0.00000  Uiso   1.00
O656   O     0.21485   0.16219   0.81217   0.00000  Uiso   1.00
O657   O     0.11848   0.17115   0.68782   0.00000  Uiso   1.00
O658   O     0.11306   0.07759   0.61728   0.00000  Uiso   1.00
Zn659  Zn    0.10231   0.17266   0.75521   0.00000  Uiso   1.00
Zn660  Zn    0.23102   0.16067   0.74479   0.00000  Uiso   1.00
C661   C     0.51533   0.26493   0.74927   0.00000  Uiso   1.00
C662   C     0.52960   0.20990   0.90605   0.00000  Uiso   1.00
C663   C     0.49720   0.16420   0.61602   0.00000  Uiso   1.00
C664   C     0.50353   0.16727   0.88385   0.00000  Uiso   1.00
C665   C     0.52459   0.20606   0.59244   0.00000  Uiso   1.00
C666   C     0.47697   0.12443   0.90692   0.00000  Uiso   1.00
C667   C     0.52552   0.20708   0.54623   0.00000  Uiso   1.00
C668   C     0.47552   0.12325   0.95331   0.00000  Uiso   1.00
C669   C     0.49929   0.16487   0.52330   0.00000  Uiso   1.00
C670   C     0.50087   0.16579   0.97646   0.00000  Uiso   1.00
C671   C     0.47221   0.12158   0.54713   0.00000  Uiso   1.00
C672   C     0.48475   0.06843   0.75233   0.00000  Uiso   1.00
C673   C     0.52737   0.20952   0.95283   0.00000  Uiso   1.00
C674   C     0.55182   0.24995   0.52274   0.00000  Uiso   1.00
C675   C     0.44870   0.08050   0.97683   0.00000  Uiso   1.00
C676   C     0.48768   0.04868   0.63768   0.00000  Uiso   1.00
C677   C     0.53145   0.02490   0.60424   0.00000  Uiso   1.00
C678   C     0.58198   0.00596   0.62878   0.00000  Uiso   1.00
C679   C     0.60715   0.24813   0.86348   0.00000  Uiso   1.00
C680   C     0.65096   0.28595   0.88496   0.00000  Uiso   1.00
C681   C     0.37649   0.28721   0.85925   0.00000  Uiso   1.00
C682   C     0.55121   0.25189   0.97647   0.00000  Uiso   1.00
C683   C     0.44693   0.07966   0.52348   0.00000  Uiso   1.00
C684   C     0.52342   0.31946   0.74994   0.00000  Uiso   1.00
C685   C     0.47677   0.01390   0.75351   0.00000  Uiso   1.00
C686   C     0.50125   0.16769   0.83635   0.00000  Uiso   1.00
C687   C     0.49889   0.16627   0.66361   0.00000  Uiso   1.00
C688   C     0.47237   0.12052   0.59404   0.00000  Uiso   1.00
H689   H     0.54498   0.23799   0.61044   0.00000  Uiso   1.00
H690   H     0.66220   0.20596   0.78304   0.00000  Uiso   1.00
H691   H     0.46370   0.01624   0.65663   0.00000  Uiso   1.00
H692   H     0.51068   0.07165   0.66290   0.00000  Uiso   1.00
H693   H     0.50912   0.32543   0.58676   0.00000  Uiso   1.00
H694   H     0.54951   0.05369   0.57871   0.00000  Uiso   1.00
H695   H     0.60572   0.03931   0.64464   0.00000  Uiso   1.00
H696   H     0.61254   0.32065   0.60472   0.00000  Uiso   1.00
H697   H     0.56624   0.31081   0.65530   0.00000  Uiso   1.00
H698   H     0.60669   0.25814   0.82738   0.00000  Uiso   1.00
H699   H     0.62185   0.20784   0.86574   0.00000  Uiso   1.00
H700   H     0.45713   0.09223   0.88855   0.00000  Uiso   1.00
H701   H     0.63510   0.32572   0.88548   0.00000  Uiso   1.00
H702   H     0.65635   0.27364   0.91999   0.00000  Uiso   1.00
H703   H     0.39397   0.24815   0.85958   0.00000  Uiso   1.00
H704   H     0.40705   0.31531   0.87539   0.00000  Uiso   1.00
H705   H     0.37281   0.29952   0.82397   0.00000  Uiso   1.00
H706   H     0.57278   0.28216   0.53997   0.00000  Uiso   1.00
H707   H     0.42911   0.04773   0.95914   0.00000  Uiso   1.00
H708   H     0.56979   0.28658   0.95948   0.00000  Uiso   1.00
H709   H     0.42611   0.04600   0.54084   0.00000  Uiso   1.00
H710   H     0.56748   0.00324   0.74703   0.00000  Uiso   1.00
H711   H     0.43273   0.33014   0.75623   0.00000  Uiso   1.00
H712   H     0.33794   0.12755   0.71668   0.00000  Uiso   1.00
N713   N     0.65011   0.15265   0.73783   0.00000  Uiso   1.00
N714   N     0.34989   0.18068   0.76217   0.00000  Uiso   1.00
O715   O     0.46308   0.24619   0.75298   0.00000  Uiso   1.00
O716   O     0.55079   0.25432   0.88272   0.00000  Uiso   1.00
O717   O     0.53692   0.08714   0.74701   0.00000  Uiso   1.00
O718   O     0.55946   0.23721   0.74518   0.00000  Uiso   1.00
O719   O     0.44054   0.09613   0.75481   0.00000  Uiso   1.00
O720   O     0.45181   0.17117   0.81997   0.00000  Uiso   1.00
O721   O     0.54819   0.16216   0.68002   0.00000  Uiso   1.00
O722   O     0.54819   0.16219   0.81217   0.00000  Uiso   1.00
O723   O     0.45181   0.17115   0.68782   0.00000  Uiso   1.00
O724   O     0.44639   0.07759   0.61728   0.00000  Uiso   1.00
Zn725  Zn    0.43565   0.17266   0.75521   0.00000  Uiso   1.00
Zn726  Zn    0.56435   0.16067   0.74479   0.00000  Uiso   1.00
C727   C     0.84866   0.26493   0.74927   0.00000  Uiso   1.00
C728   C     0.86293   0.20990   0.90605   0.00000  Uiso   1.00
C729   C     0.83053   0.16420   0.61602   0.00000  Uiso   1.00
C730   C     0.83686   0.16727   0.88385   0.00000  Uiso   1.00
C731   C     0.85792   0.20606   0.59244   0.00000  Uiso   1.00
C732   C     0.81030   0.12443   0.90692   0.00000  Uiso   1.00
C733   C     0.85885   0.20708   0.54623   0.00000  Uiso   1.00
C734   C     0.80886   0.12325   0.95331   0.00000  Uiso   1.00
C735   C     0.83263   0.16487   0.52330   0.00000  Uiso   1.00
C736   C     0.83420   0.16579   0.97646   0.00000  Uiso   1.00
C737   C     0.80554   0.12158   0.54713   0.00000  Uiso   1.00
C738   C     0.81808   0.06843   0.75233   0.00000  Uiso   1.00
C739   C     0.86071   0.20952   0.95283   0.00000  Uiso   1.00
C740   C     0.88515   0.24995   0.52274   0.00000  Uiso   1.00
C741   C     0.78204   0.08050   0.97683   0.00000  Uiso   1.00
C742   C     0.82101   0.04868   0.63768   0.00000  Uiso   1.00
C743   C     0.86478   0.02490   0.60424   0.00000  Uiso   1.00
C744   C     0.91531   0.00596   0.62878   0.00000  Uiso   1.00
C745   C     0.94048   0.24813   0.86348   0.00000  Uiso   1.00
C746   C     0.98429   0.28595   0.88496   0.00000  Uiso   1.00
C747   C     0.70982   0.28721   0.85925   0.00000  Uiso   1.00
C748   C     0.88454   0.25189   0.97647   0.00000  Uiso   1.00
C749   C     0.78027   0.07966   0.52348   0.00000  Uiso   1.00
C750   C     0.85675   0.31946   0.74994   0.00000  Uiso   1.00
C751   C     0.81010   0.01390   0.75351   0.00000  Uiso   1.00
C752   C     0.83458   0.16769   0.83635   0.00000  Uiso   1.00
C753   C     0.83223   0.16627   0.66361   0.00000  Uiso   1.00
C754   C     0.80570   0.12052   0.59404   0.00000  Uiso   1.00
H755   H     0.87831   0.23799   0.61044   0.00000  Uiso   1.00
H756   H     0.99553   0.20596   0.78304   0.00000  Uiso   1.00
H757   H     0.79703   0.01624   0.65663   0.00000  Uiso   1.00
H758   H     0.84402   0.07165   0.66290   0.00000  Uiso   1.00
H759   H     0.84245   0.32543   0.58676   0.00000  Uiso   1.00
H760   H     0.88284   0.05369   0.57871   0.00000  Uiso   1.00
H761   H     0.93906   0.03931   0.64464   0.00000  Uiso   1.00
H762   H     0.94587   0.32065   0.60472   0.00000  Uiso   1.00
H763   H     0.89958   0.31081   0.65530   0.00000  Uiso   1.00
H764   H     0.94003   0.25814   0.82738   0.00000  Uiso   1.00
H765   H     0.95518   0.20784   0.86574   0.00000  Uiso   1.00
H766   H     0.79046   0.09223   0.88855   0.00000  Uiso   1.00
H767   H     0.96843   0.32572   0.88548   0.00000  Uiso   1.00
H768   H     0.98969   0.27364   0.91999   0.00000  Uiso   1.00
H769   H     0.72730   0.24815   0.85958   0.00000  Uiso   1.00
H770   H     0.74038   0.31531   0.87539   0.00000  Uiso   1.00
H771   H     0.70615   0.29952   0.82397   0.00000  Uiso   1.00
H772   H     0.90611   0.28216   0.53997   0.00000  Uiso   1.00
H773   H     0.76244   0.04773   0.95914   0.00000  Uiso   1.00
H774   H     0.90312   0.28658   0.95948   0.00000  Uiso   1.00
H775   H     0.75944   0.04600   0.54084   0.00000  Uiso   1.00
H776   H     0.90082   0.00324   0.74703   0.00000  Uiso   1.00
H777   H     0.76606   0.33014   0.75623   0.00000  Uiso   1.00
H778   H     0.67128   0.12755   0.71668   0.00000  Uiso   1.00
N779   N     0.98344   0.15265   0.73783   0.00000  Uiso   1.00
N780   N     0.68322   0.18068   0.76217   0.00000  Uiso   1.00
O781   O     0.79642   0.24619   0.75298   0.00000  Uiso   1.00
O782   O     0.88412   0.25432   0.88272   0.00000  Uiso   1.00
O783   O     0.87025   0.08714   0.74701   0.00000  Uiso   1.00
O784   O     0.89280   0.23721   0.74518   0.00000  Uiso   1.00
O785   O     0.77387   0.09613   0.75481   0.00000  Uiso   1.00
O786   O     0.78514   0.17117   0.81997   0.00000  Uiso   1.00
O787   O     0.88153   0.16216   0.68002   0.00000  Uiso   1.00
O788   O     0.88152   0.16219   0.81217   0.00000  Uiso   1.00
O789   O     0.78515   0.17115   0.68782   0.00000  Uiso   1.00
O790   O     0.77973   0.07759   0.61728   0.00000  Uiso   1.00
Zn791  Zn    0.76898   0.17266   0.75521   0.00000  Uiso   1.00
Zn792  Zn    0.89769   0.16067   0.74479   0.00000  Uiso   1.00
C793   C     0.18200   0.59827   0.74927   0.00000  Uiso   1.00
C794   C     0.19627   0.54323   0.90605   0.00000  Uiso   1.00
C795   C     0.16386   0.49753   0.61602   0.00000  Uiso   1.00
C796   C     0.17020   0.50060   0.88385   0.00000  Uiso   1.00
C797   C     0.19125   0.53939   0.59244   0.00000  Uiso   1.00
C798   C     0.14364   0.45776   0.90692   0.00000  Uiso   1.00
C799   C     0.19219   0.54041   0.54623   0.00000  Uiso   1.00
C800   C     0.14219   0.45658   0.95331   0.00000  Uiso   1.00
C801   C     0.16596   0.49820   0.52330   0.00000  Uiso   1.00
C802   C     0.16754   0.49912   0.97646   0.00000  Uiso   1.00
C803   C     0.13888   0.45491   0.54713   0.00000  Uiso   1.00
C804   C     0.15142   0.40176   0.75233   0.00000  Uiso   1.00
C805   C     0.19404   0.54285   0.95283   0.00000  Uiso   1.00
C806   C     0.21848   0.58328   0.52274   0.00000  Uiso   1.00
C807   C     0.11537   0.41383   0.97683   0.00000  Uiso   1.00
C808   C     0.15435   0.38202   0.63768   0.00000  Uiso   1.00
C809   C     0.19812   0.35824   0.60424   0.00000  Uiso   1.00
C810   C     0.24864   0.33929   0.62878   0.00000  Uiso   1.00
C811   C     0.27381   0.58147   0.86348   0.00000  Uiso   1.00
C812   C     0.31762   0.61928   0.88496   0.00000  Uiso   1.00
C813   C     0.04315   0.62054   0.85925   0.00000  Uiso   1.00
C814   C     0.21787   0.58522   0.97647   0.00000  Uiso   1.00
C815   C     0.11360   0.41300   0.52348   0.00000  Uiso   1.00
C816   C     0.19009   0.65279   0.74994   0.00000  Uiso   1.00
C817   C     0.14344   0.34724   0.75351   0.00000  Uiso   1.00
C818   C     0.16792   0.50102   0.83635   0.00000  Uiso   1.00
C819   C     0.16556   0.49960   0.66361   0.00000  Uiso   1.00
C820   C     0.13904   0.45386   0.59404   0.00000  Uiso   1.00
H821   H     0.21165   0.57132   0.61044   0.00000  Uiso   1.00
H822   H     0.32887   0.53929   0.78304   0.00000  Uiso   1.00
H823   H     0.13037   0.34957   0.65663   0.00000  Uiso   1.00
H824   H     0.17735   0.40498   0.66290   0.00000  Uiso   1.00
H825   H     0.17578   0.65876   0.58676   0.00000  Uiso   1.00
H826   H     0.21617   0.38702   0.57871   0.00000  Uiso   1.00
H827   H     0.27239   0.37264   0.64464   0.00000  Uiso   1.00
H828   H     0.27920   0.65398   0.60472   0.00000  Uiso   1.00
H829   H     0.23291   0.64414   0.65530   0.00000  Uiso   1.00
H830   H     0.27336   0.59148   0.82738   0.00000  Uiso   1.00
H831   H     0.28852   0.54117   0.86574   0.00000  Uiso   1.00
H832   H     0.12380   0.42557   0.88855   0.00000  Uiso   1.00
H833   H     0.30176   0.65906   0.88548   0.00000  Uiso   1.00
H834   H     0.32302   0.60697   0.91999   0.00000  Uiso   1.00
H835   H     0.06064   0.58149   0.85958   0.00000  Uiso   1.00
H836   H     0.07371   0.64864   0.87539   0.00000  Uiso   1.00
H837   H     0.03948   0.63286   0.82397   0.00000  Uiso   1.00
H838   H     0.23944   0.61550   0.53997   0.00000  Uiso   1.00
H839   H     0.09578   0.38107   0.95914   0.00000  Uiso   1.00
H840   H     0.23646   0.61991   0.95948   0.00000  Uiso   1.00
H841   H     0.09277   0.37933   0.54084   0.00000  Uiso   1.00
H842   H     0.23415   0.33657   0.74703   0.00000  Uiso   1.00
H843   H     0.09940   0.66347   0.75623   0.00000  Uiso   1.00
H844   H     0.00461   0.46089   0.71668   0.00000  Uiso   1.00
N845   N     0.31678   0.48598   0.73783   0.00000  Uiso   1.00
N846   N     0.01656   0.51402   0.76217   0.00000  Uiso   1.00
O847   O     0.12975   0.57952   0.75298   0.00000  Uiso   1.00
O848   O     0.21745   0.58766   0.88272   0.00000  Uiso   1.00
O849   O     0.20358   0.42048   0.74701   0.00000  Uiso   1.00
O850   O     0.22613   0.57054   0.74518   0.00000  Uiso   1.00
O851   O     0.10720   0.42946   0.75481   0.00000  Uiso   1.00
O852   O     0.11847   0.50450   0.81997   0.00000  Uiso   1.00
O853   O     0.21486   0.49550   0.68002   0.00000  Uiso   1.00
O854   O     0.21485   0.49552   0.81217   0.00000  Uiso   1.00
O855   O     0.11848   0.50448   0.68782   0.00000  Uiso   1.00
O856   O     0.11306   0.41093   0.61728   0.00000  Uiso   1.00
Zn857  Zn    0.10231   0.50600   0.75521   0.00000  Uiso   1.00
Zn858  Zn    0.23102   0.49400   0.74479   0.00000  Uiso   1.00
C859   C     0.51533   0.59827   0.74927   0.00000  Uiso   1.00
C860   C     0.52960   0.54323   0.90605   0.00000  Uiso   1.00
C861   C     0.49720   0.49753   0.61602   0.00000  Uiso   1.00
C862   C     0.50353   0.50060   0.88385   0.00000  Uiso   1.00
C863   C     0.52459   0.53939   0.59244   0.00000  Uiso   1.00
C864   C     0.47697   0.45776   0.90692   0.00000  Uiso   1.00
C865   C     0.52552   0.54041   0.54623   0.00000  Uiso   1.00
C866   C     0.47552   0.45658   0.95331   0.00000  Uiso   1.00
C867   C     0.49929   0.49820   0.52330   0.00000  Uiso   1.00
C868   C     0.50087   0.49912   0.97646   0.00000  Uiso   1.00
C869   C     0.47221   0.45491   0.54713   0.00000  Uiso   1.00
C870   C     0.48475   0.40176   0.75233   0.00000  Uiso   1.00
C871   C     0.52737   0.54285   0.95283   0.00000  Uiso   1.00
C872   C     0.55182   0.58328   0.52274   0.00000  Uiso   1.00
C873   C     0.44870   0.41383   0.97683   0.00000  Uiso   1.00
C874   C     0.48768   0.38202   0.63768   0.00000  Uiso   1.00
C875   C     0.53145   0.35824   0.60424   0.00000  Uiso   1.00
C876   C     0.58198   0.33929   0.62878   0.00000  Uiso   1.00
C877   C     0.60715   0.58147   0.86348   0.00000  Uiso   1.00
C878   C     0.65096   0.61928   0.88496   0.00000  Uiso   1.00
C879   C     0.37649   0.62054   0.85925   0.00000  Uiso   1.00
C880   C     0.55121   0.58522   0.97647   0.00000  Uiso   1.00
C881   C     0.44693   0.41300   0.52348   0.00000  Uiso   1.00
C882   C     0.52342   0.65279   0.74994   0.00000  Uiso   1.00
C883   C     0.47677   0.34724   0.75351   0.00000  Uiso   1.00
C884   C     0.50125   0.50102   0.83635   0.00000  Uiso   1.00
C885   C     0.49889   0.49960   0.66361   0.00000  Uiso   1.00
C886   C     0.47237   0.45386   0.59404   0.00000  Uiso   1.00
H887   H     0.54498   0.57132   0.61044   0.00000  Uiso   1.00
H888   H     0.66220   0.53929   0.78304   0.00000  Uiso   1.00
H889   H     0.46370   0.34957   0.65663   0.00000  Uiso   1.00
H890   H     0.51068   0.40498   0.66290   0.00000  Uiso   1.00
H891   H     0.50912   0.65876   0.58676   0.00000  Uiso   1.00
H892   H     0.54951   0.38702   0.57871   0.00000  Uiso   1.00
H893   H     0.60572   0.37264   0.64464   0.00000  Uiso   1.00
H894   H     0.61254   0.65398   0.60472   0.00000  Uiso   1.00
H895   H     0.56624   0.64414   0.65530   0.00000  Uiso   1.00
H896   H     0.60669   0.59148   0.82738   0.00000  Uiso   1.00
H897   H     0.62185   0.54117   0.86574   0.00000  Uiso   1.00
H898   H     0.45713   0.42557   0.88855   0.00000  Uiso   1.00
H899   H     0.63510   0.65906   0.88548   0.00000  Uiso   1.00
H900   H     0.65635   0.60697   0.91999   0.00000  Uiso   1.00
H901   H     0.39397   0.58149   0.85958   0.00000  Uiso   1.00
H902   H     0.40705   0.64864   0.87539   0.00000  Uiso   1.00
H903   H     0.37281   0.63286   0.82397   0.00000  Uiso   1.00
H904   H     0.57278   0.61550   0.53997   0.00000  Uiso   1.00
H905   H     0.42911   0.38107   0.95914   0.00000  Uiso   1.00
H906   H     0.56979   0.61991   0.95948   0.00000  Uiso   1.00
H907   H     0.42611   0.37933   0.54084   0.00000  Uiso   1.00
H908   H     0.56748   0.33657   0.74703   0.00000  Uiso   1.00
H909   H     0.43273   0.66347   0.75623   0.00000  Uiso   1.00
H910   H     0.33794   0.46089   0.71668   0.00000  Uiso   1.00
N911   N     0.65011   0.48598   0.73783   0.00000  Uiso   1.00
N912   N     0.34989   0.51402   0.76217   0.00000  Uiso   1.00
O913   O     0.46308   0.57952   0.75298   0.00000  Uiso   1.00
O914   O     0.55079   0.58766   0.88272   0.00000  Uiso   1.00
O915   O     0.53692   0.42048   0.74701   0.00000  Uiso   1.00
O916   O     0.55946   0.57054   0.74518   0.00000  Uiso   1.00
O917   O     0.44054   0.42946   0.75481   0.00000  Uiso   1.00
O918   O     0.45181   0.50450   0.81997   0.00000  Uiso   1.00
O919   O     0.54819   0.49550   0.68002   0.00000  Uiso   1.00
O920   O     0.54819   0.49552   0.81217   0.00000  Uiso   1.00
O921   O     0.45181   0.50448   0.68782   0.00000  Uiso   1.00
O922   O     0.44639   0.41093   0.61728   0.00000  Uiso   1.00
Zn923  Zn    0.43565   0.50600   0.75521   0.00000  Uiso   1.00
Zn924  Zn    0.56435   0.49400   0.74479   0.00000  Uiso   1.00
C925   C     0.84866   0.59827   0.74927   0.00000  Uiso   1.00
C926   C     0.86293   0.54323   0.90605   0.00000  Uiso   1.00
C927   C     0.83053   0.49753   0.61602   0.00000  Uiso   1.00
C928   C     0.83686   0.50060   0.88385   0.00000  Uiso   1.00
C929   C     0.85792   0.53939   0.59244   0.00000  Uiso   1.00
C930   C     0.81030   0.45776   0.90692   0.00000  Uiso   1.00
C931   C     0.85885   0.54041   0.54623   0.00000  Uiso   1.00
C932   C     0.80886   0.45658   0.95331   0.00000  Uiso   1.00
C933   C     0.83263   0.49820   0.52330   0.00000  Uiso   1.00
C934   C     0.83420   0.49912   0.97646   0.00000  Uiso   1.00
C935   C     0.80554   0.45491   0.54713   0.00000  Uiso   1.00
C936   C     0.81808   0.40176   0.75233   0.00000  Uiso   1.00
C937   C     0.86071   0.54285   0.95283   0.00000  Uiso   1.00
C938   C     0.88515   0.58328   0.52274   0.00000  Uiso   1.00
C939   C     0.78204   0.41383   0.97683   0.00000  Uiso   1.00
C940   C     0.82101   0.38202   0.63768   0.00000  Uiso   1.00
C941   C     0.86478   0.35824   0.60424   0.00000  Uiso   1.00
C942   C     0.91531   0.33929   0.62878   0.00000  Uiso   1.00
C943   C     0.94048   0.58147   0.86348   0.00000  Uiso   1.00
C944   C     0.98429   0.61928   0.88496   0.00000  Uiso   1.00
C945   C     0.70982   0.62054   0.85925   0.00000  Uiso   1.00
C946   C     0.88454   0.58522   0.97647   0.00000  Uiso   1.00
C947   C     0.78027   0.41300   0.52348   0.00000  Uiso   1.00
C948   C     0.85675   0.65279   0.74994   0.00000  Uiso   1.00
C949   C     0.81010   0.34724   0.75351   0.00000  Uiso   1.00
C950   C     0.83458   0.50102   0.83635   0.00000  Uiso   1.00
C951   C     0.83223   0.49960   0.66361   0.00000  Uiso   1.00
C952   C     0.80570   0.45386   0.59404   0.00000  Uiso   1.00
H953   H     0.87831   0.57132   0.61044   0.00000  Uiso   1.00
H954   H     0.99553   0.53929   0.78304   0.00000  Uiso   1.00
H955   H     0.79703   0.34957   0.65663   0.00000  Uiso   1.00
H956   H     0.84402   0.40498   0.66290   0.00000  Uiso   1.00
H957   H     0.84245   0.65876   0.58676   0.00000  Uiso   1.00
H958   H     0.88284   0.38702   0.57871   0.00000  Uiso   1.00
H959   H     0.93906   0.37264   0.64464   0.00000  Uiso   1.00
H960   H     0.94587   0.65398   0.60472   0.00000  Uiso   1.00
H961   H     0.89958   0.64414   0.65530   0.00000  Uiso   1.00
H962   H     0.94003   0.59148   0.82738   0.00000  Uiso   1.00
H963   H     0.95518   0.54117   0.86574   0.00000  Uiso   1.00
H964   H     0.79046   0.42557   0.88855   0.00000  Uiso   1.00
H965   H     0.96843   0.65906   0.88548   0.00000  Uiso   1.00
H966   H     0.98969   0.60697   0.91999   0.00000  Uiso   1.00
H967   H     0.72730   0.58149   0.85958   0.00000  Uiso   1.00
H968   H     0.74038   0.64864   0.87539   0.00000  Uiso   1.00
H969   H     0.70615   0.63286   0.82397   0.00000  Uiso   1.00
H970   H     0.90611   0.61550   0.53997   0.00000  Uiso   1.00
H971   H     0.76244   0.38107   0.95914   0.00000  Uiso   1.00
H972   H     0.90312   0.61991   0.95948   0.00000  Uiso   1.00
H973   H     0.75944   0.37933   0.54084   0.00000  Uiso   1.00
H974   H     0.90082   0.33657   0.74703   0.00000  Uiso   1.00
H975   H     0.76606   0.66347   0.75623   0.00000  Uiso   1.00
H976   H     0.67128   0.46089   0.71668   0.00000  Uiso   1.00
N977   N     0.98344   0.48598   0.73783   0.00000  Uiso   1.00
N978   N     0.68322   0.51402   0.76217   0.00000  Uiso   1.00
O979   O     0.79642   0.57952   0.75298   0.00000  Uiso   1.00
O980   O     0.88412   0.58766   0.88272   0.00000  Uiso   1.00
O981   O     0.87025   0.42048   0.74701   0.00000  Uiso   1.00
O982   O     0.89280   0.57054   0.74518   0.00000  Uiso   1.00
O983   O     0.77387   0.42946   0.75481   0.00000  Uiso   1.00
O984   O     0.78514   0.50450   0.81997   0.00000  Uiso   1.00
O985   O     0.88153   0.49550   0.68002   0.00000  Uiso   1.00
O986   O     0.88152   0.49552   0.81217   0.00000  Uiso   1.00
O987   O     0.78515   0.50448   0.68782   0.00000  Uiso   1.00
O988   O     0.77973   0.41093   0.61728   0.00000  Uiso   1.00
Zn989  Zn    0.76898   0.50600   0.75521   0.00000  Uiso   1.00
Zn990  Zn    0.89769   0.49400   0.74479   0.00000  Uiso   1.00
C991   C     0.18200   0.93160   0.74927   0.00000  Uiso   1.00
C992   C     0.19627   0.87656   0.90605   0.00000  Uiso   1.00
C993   C     0.16386   0.83087   0.61602   0.00000  Uiso   1.00
C994   C     0.17020   0.83394   0.88385   0.00000  Uiso   1.00
C995   C     0.19125   0.87273   0.59244   0.00000  Uiso   1.00
C996   C     0.14364   0.79109   0.90692   0.00000  Uiso   1.00
C997   C     0.19219   0.87374   0.54623   0.00000  Uiso   1.00
C998   C     0.14219   0.78991   0.95331   0.00000  Uiso   1.00
C999   C     0.16596   0.83154   0.52330   0.00000  Uiso   1.00
C1000  C     0.16754   0.83246   0.97646   0.00000  Uiso   1.00
C1001  C     0.13888   0.78824   0.54713   0.00000  Uiso   1.00
C1002  C     0.15142   0.73509   0.75233   0.00000  Uiso   1.00
C1003  C     0.19404   0.87618   0.95283   0.00000  Uiso   1.00
C1004  C     0.21848   0.91662   0.52274   0.00000  Uiso   1.00
C1005  C     0.11537   0.74716   0.97683   0.00000  Uiso   1.00
C1006  C     0.15435   0.71535   0.63768   0.00000  Uiso   1.00
C1007  C     0.19812   0.69157   0.60424   0.00000  Uiso   1.00
C1008  C     0.24864   0.67263   0.62878   0.00000  Uiso   1.00
C1009  C     0.27381   0.91480   0.86348   0.00000  Uiso   1.00
C1010  C     0.31762   0.95261   0.88496   0.00000  Uiso   1.00
C1011  C     0.04315   0.95387   0.85925   0.00000  Uiso   1.00
C1012  C     0.21787   0.91856   0.97647   0.00000  Uiso   1.00
C1013  C     0.11360   0.74633   0.52348   0.00000  Uiso   1.00
C1014  C     0.19009   0.98612   0.74994   0.00000  Uiso   1.00
C1015  C     0.14344   0.68057   0.75351   0.00000  Uiso   1.00
C1016  C     0.16792   0.83435   0.83635   0.00000  Uiso   1.00
C1017  C     0.16556   0.83293   0.66361   0.00000  Uiso   1.00
C1018  C     0.13904   0.78719   0.59404   0.00000  Uiso   1.00
H1019  H     0.21165   0.90466   0.61044   0.00000  Uiso   1.00
H1020  H     0.32887   0.87262   0.78304   0.00000  Uiso   1.00
H1021  H     0.13037   0.68290   0.65663   0.00000  Uiso   1.00
H1022  H     0.17735   0.73831   0.66290   0.00000  Uiso   1.00
H1023  H     0.17578   0.99210   0.58676   0.00000  Uiso   1.00
H1024  H     0.21617   0.72036   0.57871   0.00000  Uiso   1.00
H1025  H     0.27239   0.70597   0.64464   0.00000  Uiso   1.00
H1026  H     0.27920   0.98731   0.60472   0.00000  Uiso   1.00
H1027  H     0.23291   0.97747   0.65530   0.00000  Uiso   1.00
H1028  H     0.27336   0.92481   0.82738   0.00000  Uiso   1.00
H1029  H     0.28852   0.87451   0.86574   0.00000  Uiso   1.00
H1030  H     0.12380   0.75890   0.88855   0.00000  Uiso   1.00
H1031  H     0.30176   0.99239   0.88548   0.00000  Uiso   1.00
H1032  H     0.32302   0.94031   0.91999   0.00000  Uiso   1.00
H1033  H     0.06064   0.91482   0.85958   0.00000  Uiso   1.00
H1034  H     0.07371   0.98198   0.87539   0.00000  Uiso   1.00
H1035  H     0.03948   0.96619   0.82397   0.00000  Uiso   1.00
H1036  H     0.23944   0.94883   0.53997   0.00000  Uiso   1.00
H1037  H     0.09578   0.71440   0.95914   0.00000  Uiso   1.00
H1038  H     0.23646   0.95325   0.95948   0.00000  Uiso   1.00
H1039  H     0.09277   0.71267   0.54084   0.00000  Uiso   1.00
H1040  H     0.23415   0.66991   0.74703   0.00000  Uiso   1.00
H1041  H     0.09940   0.99680   0.75623   0.00000  Uiso   1.00
H1042  H     0.00461   0.79422   0.71668   0.00000  Uiso   1.00
N1043  N     0.31678   0.81932   0.73783   0.00000  Uiso   1.00
N1044  N     0.01656   0.84735   0.76217   0.00000  Uiso   1.00
O1045  O     0.12975   0.91286   0.75298   0.00000  Uiso   1.00
O1046  O     0.21745   0.92099   0.88272   0.00000  Uiso   1.00
O1047  O     0.20358   0.75381   0.74701   0.00000  Uiso   1.00
O1048  O     0.22613   0.90387   0.74518   0.00000  Uiso   1.00
O1049  O     0.10720   0.76279   0.75481   0.00000  Uiso   1.00
O1050  O     0.11847   0.83784   0.81997   0.00000  Uiso   1.00
O1051  O     0.21486   0.82883   0.68002   0.00000  Uiso   1.00
O1052  O     0.21485   0.82885   0.81217   0.00000  Uiso   1.00
O1053  O     0.11848   0.83781   0.68782   0.00000  Uiso   1.00
O1054  O     0.11306   0.74426   0.61728   0.00000  Uiso   1.00
Zn1055 Zn    0.10231   0.83933   0.75521   0.00000  Uiso   1.00
Zn1056 Zn    0.23102   0.82734   0.74479   0.00000  Uiso   1.00
C1057  C     0.51533   0.93160   0.74927   0.00000  Uiso   1.00
C1058  C     0.52960   0.87656   0.90605   0.00000  Uiso   1.00
C1059  C     0.49720   0.83087   0.61602   0.00000  Uiso   1.00
C1060  C     0.50353   0.83394   0.88385   0.00000  Uiso   1.00
C1061  C     0.52459   0.87273   0.59244   0.00000  Uiso   1.00
C1062  C     0.47697   0.79109   0.90692   0.00000  Uiso   1.00
C1063  C     0.52552   0.87374   0.54623   0.00000  Uiso   1.00
C1064  C     0.47552   0.78991   0.95331   0.00000  Uiso   1.00
C1065  C     0.49929   0.83154   0.52330   0.00000  Uiso   1.00
C1066  C     0.50087   0.83246   0.97646   0.00000  Uiso   1.00
C1067  C     0.47221   0.78824   0.54713   0.00000  Uiso   1.00
C1068  C     0.48475   0.73509   0.75233   0.00000  Uiso   1.00
C1069  C     0.52737   0.87618   0.95283   0.00000  Uiso   1.00
C1070  C     0.55182   0.91662   0.52274   0.00000  Uiso   1.00
C1071  C     0.44870   0.74716   0.97683   0.00000  Uiso   1.00
C1072  C     0.48768   0.71535   0.63768   0.00000  Uiso   1.00
C1073  C     0.53145   0.69157   0.60424   0.00000  Uiso   1.00
C1074  C     0.58198   0.67263   0.62878   0.00000  Uiso   1.00
C1075  C     0.60715   0.91480   0.86348   0.00000  Uiso   1.00
C1076  C     0.65096   0.95261   0.88496   0.00000  Uiso   1.00
C1077  C     0.37649   0.95387   0.85925   0.00000  Uiso   1.00
C1078  C     0.55121   0.91856   0.97647   0.00000  Uiso   1.00
C1079  C     0.44693   0.74633   0.52348   0.00000  Uiso   1.00
C1080  C     0.52342   0.98612   0.74994   0.00000  Uiso   1.00
C1081  C     0.47677   0.68057   0.75351   0.00000  Uiso   1.00
C1082  C     0.50125   0.83435   0.83635   0.00000  Uiso   1.00
C1083  C     0.49889   0.83293   0.66361   0.00000  Uiso   1.00
C1084  C     0.47237   0.78719   0.59404   0.00000  Uiso   1.00
H1085  H     0.54498   0.90466   0.61044   0.00000  Uiso   1.00
H1086  H     0.66220   0.87262   0.78304   0.00000  Uiso   1.00
H1087  H     0.46370   0.68290   0.65663   0.00000  Uiso   1.00
H1088  H     0.51068   0.73831   0.66290   0.00000  Uiso   1.00
H1089  H     0.50912   0.99210   0.58676   0.00000  Uiso   1.00
H1090  H     0.54951   0.72036   0.57871   0.00000  Uiso   1.00
H1091  H     0.60572   0.70597   0.64464   0.00000  Uiso   1.00
H1092  H     0.61254   0.98731   0.60472   0.00000  Uiso   1.00
H1093  H     0.56624   0.97747   0.65530   0.00000  Uiso   1.00
H1094  H     0.60669   0.92481   0.82738   0.00000  Uiso   1.00
H1095  H     0.62185   0.87451   0.86574   0.00000  Uiso   1.00
H1096  H     0.45713   0.75890   0.88855   0.00000  Uiso   1.00
H1097  H     0.63510   0.99239   0.88548   0.00000  Uiso   1.00
H1098  H     0.65635   0.94031   0.91999   0.00000  Uiso   1.00
H1099  H     0.39397   0.91482   0.85958   0.00000  Uiso   1.00
H1100  H     0.40705   0.98198   0.87539   0.00000  Uiso   1.00
H1101  H     0.37281   0.96619   0.82397   0.00000  Uiso   1.00
H1102  H     0.57278   0.94883   0.53997   0.00000  Uiso   1.00
H1103  H     0.42911   0.71440   0.95914   0.00000  Uiso   1.00
H1104  H     0.56979   0.95325   0.95948   0.00000  Uiso   1.00
H1105  H     0.42611   0.71267   0.54084   0.00000  Uiso   1.00
H1106  H     0.56748   0.66991   0.74703   0.00000  Uiso   1.00
H1107  H     0.43273   0.99680   0.75623   0.00000  Uiso   1.00
H1108  H     0.33794   0.79422   0.71668   0.00000  Uiso   1.00
N1109  N     0.65011   0.81932   0.73783   0.00000  Uiso   1.00
N1110  N     0.34989   0.84735   0.76217   0.00000  Uiso   1.00
O1111  O     0.46308   0.91286   0.75298   0.00000  Uiso   1.00
O1112  O     0.55079   0.92099   0.88272   0.00000  Uiso   1.00
O1113  O     0.53692   0.75381   0.74701   0.00000  Uiso   1.00
O1114  O     0.55946   0.90387   0.74518   0.00000  Uiso   1.00
O1115  O     0.44054   0.76279   0.75481   0.00000  Uiso   1.00
O1116  O     0.45181   0.83784   0.81997   0.00000  Uiso   1.00
O1117  O     0.54819   0.82883   0.68002   0.00000  Uiso   1.00
O1118  O     0.54819   0.82885   0.81217   0.00000  Uiso   1.00
O1119  O     0.45181   0.83781   0.68782   0.00000  Uiso   1.00
O1120  O     0.44639   0.74426   0.61728   0.00000  Uiso   1.00
Zn1121 Zn    0.43565   0.83933   0.75521   0.00000  Uiso   1.00
Zn1122 Zn    0.56435   0.82734   0.74479   0.00000  Uiso   1.00
C1123  C     0.84866   0.93160   0.74927   0.00000  Uiso   1.00
C1124  C     0.86293   0.87656   0.90605   0.00000  Uiso   1.00
C1125  C     0.83053   0.83087   0.61602   0.00000  Uiso   1.00
C1126  C     0.83686   0.83394   0.88385   0.00000  Uiso   1.00
C1127  C     0.85792   0.87273   0.59244   0.00000  Uiso   1.00
C1128  C     0.81030   0.79109   0.90692   0.00000  Uiso   1.00
C1129  C     0.85885   0.87374   0.54623   0.00000  Uiso   1.00
C1130  C     0.80886   0.78991   0.95331   0.00000  Uiso   1.00
C1131  C     0.83263   0.83154   0.52330   0.00000  Uiso   1.00
C1132  C     0.83420   0.83246   0.97646   0.00000  Uiso   1.00
C1133  C     0.80554   0.78824   0.54713   0.00000  Uiso   1.00
C1134  C     0.81808   0.73509   0.75233   0.00000  Uiso   1.00
C1135  C     0.86071   0.87618   0.95283   0.00000  Uiso   1.00
C1136  C     0.88515   0.91662   0.52274   0.00000  Uiso   1.00
C1137  C     0.78204   0.74716   0.97683   0.00000  Uiso   1.00
C1138  C     0.82101   0.71535   0.63768   0.00000  Uiso   1.00
C1139  C     0.86478   0.69157   0.60424   0.00000  Uiso   1.00
C1140  C     0.91531   0.67263   0.62878   0.00000  Uiso   1.00
C1141  C     0.94048   0.91480   0.86348   0.00000  Uiso   1.00
C1142  C     0.98429   0.95261   0.88496   0.00000  Uiso   1.00
C1143  C     0.70982   0.95387   0.85925   0.00000  Uiso   1.00
C1144  C     0.88454   0.91856   0.97647   0.00000  Uiso   1.00
C1145  C     0.78027   0.74633   0.52348   0.00000  Uiso   1.00
C1146  C     0.85675   0.98612   0.74994   0.00000  Uiso   1.00
C1147  C     0.81010   0.68057   0.75351   0.00000  Uiso   1.00
C1148  C     0.83458   0.83435   0.83635   0.00000  Uiso   1.00
C1149  C     0.83223   0.83293   0.66361   0.00000  Uiso   1.00
C1150  C     0.80570   0.78719   0.59404   0.00000  Uiso   1.00
H1151  H     0.87831   0.90466   0.61044   0.00000  Uiso   1.00
H1152  H     0.99553   0.87262   0.78304   0.00000  Uiso   1.00
H1153  H     0.79703   0.68290   0.65663   0.00000  Uiso   1.00
H1154  H     0.84402   0.73831   0.66290   0.00000  Uiso   1.00
H1155  H     0.84245   0.99210   0.58676   0.00000  Uiso   1.00
H1156  H     0.88284   0.72036   0.57871   0.00000  Uiso   1.00
H1157  H     0.93906   0.70597   0.64464   0.00000  Uiso   1.00
H1158  H     0.94587   0.98731   0.60472   0.00000  Uiso   1.00
H1159  H     0.89958   0.97747   0.65530   0.00000  Uiso   1.00
H1160  H     0.94003   0.92481   0.82738   0.00000  Uiso   1.00
H1161  H     0.95518   0.87451   0.86574   0.00000  Uiso   1.00
H1162  H     0.79046   0.75890   0.88855   0.00000  Uiso   1.00
H1163  H     0.96843   0.99239   0.88548   0.00000  Uiso   1.00
H1164  H     0.98969   0.94031   0.91999   0.00000  Uiso   1.00
H1165  H     0.72730   0.91482   0.85958   0.00000  Uiso   1.00
H1166  H     0.74038   0.98198   0.87539   0.00000  Uiso   1.00
H1167  H     0.70615   0.96619   0.82397   0.00000  Uiso   1.00
H1168  H     0.90611   0.94883   0.53997   0.00000  Uiso   1.00
H1169  H     0.76244   0.71440   0.95914   0.00000  Uiso   1.00
H1170  H     0.90312   0.95325   0.95948   0.00000  Uiso   1.00
H1171  H     0.75944   0.71267   0.54084   0.00000  Uiso   1.00
H1172  H     0.90082   0.66991   0.74703   0.00000  Uiso   1.00
H1173  H     0.76606   0.99680   0.75623   0.00000  Uiso   1.00
H1174  H     0.67128   0.79422   0.71668   0.00000  Uiso   1.00
N1175  N     0.98344   0.81932   0.73783   0.00000  Uiso   1.00
N1176  N     0.68322   0.84735   0.76217   0.00000  Uiso   1.00
O1177  O     0.79642   0.91286   0.75298   0.00000  Uiso   1.00
O1178  O     0.88412   0.92099   0.88272   0.00000  Uiso   1.00
O1179  O     0.87025   0.75381   0.74701   0.00000  Uiso   1.00
O1180  O     0.89280   0.90387   0.74518   0.00000  Uiso   1.00
O1181  O     0.77387   0.76279   0.75481   0.00000  Uiso   1.00
O1182  O     0.78514   0.83784   0.81997   0.00000  Uiso   1.00
O1183  O     0.88153   0.82883   0.68002   0.00000  Uiso   1.00
O1184  O     0.88152   0.82885   0.81217   0.00000  Uiso   1.00
O1185  O     0.78515   0.83781   0.68782   0.00000  Uiso   1.00
O1186  O     0.77973   0.74426   0.61728   0.00000  Uiso   1.00
Zn1187 Zn    0.76898   0.83933   0.75521   0.00000  Uiso   1.00
Zn1188 Zn    0.89769   0.82734   0.74479   0.00000  Uiso   1.00
loop_
_geom_bond_atom_site_label_1
_geom_bond_atom_site_label_2
_geom_bond_distance
_geom_bond_site_symmetry_2
_ccdc_geom_bond_type
C1     O55     1.277   .     A
C1     O58     1.288   .     A
C1     C24     1.406   .     S
C2     C4      1.404   .     A
C2     O56     1.388   .     S
C2     C13     1.393   .     A
C3     C28     1.410   .     A
C3     C27     1.423   .     S
C3     C5      1.387   .     A
C4     C26     1.421   .     S
C4     C6      1.392   .     A
C5     C7      1.378   .     A
C5     H29     1.081   .     S
C6     H40     1.086   .     S
C6     C8      1.383   .     A
C7     C9      1.408   .     A
C7     C14     1.397   .     A
C8     C15     1.399   .     A
C8     C10     1.410   .     A
C9     C11     1.416   .     A
C9     C604    1.396   1_554 S
C10    C13     1.417   .     A
C10    C603    1.396   .     S
C11    C28     1.400   .     A
C11    C23     1.405   .     A
C12    C25     1.405   .     S
C12    O57     1.277   .     A
C12    O59     1.288   .     A
C13    C22     1.400   .     A
C14    H46     1.080   .     S
C14    C616    1.382   1_554 S
C15    H47     1.084   .     S
C15    C617    1.390   .     S
C16    H32     1.099   .     S
C16    H31     1.111   .     S
C16    O64     1.420   .     S
C16    C17     1.536   .     S
C17    C18     1.529   .     S
C17    H34     1.109   .     S
C17    H429    1.109   1_545 S
C18    H35     1.111   .     S
C18    H432    1.109   1_545 S
C18    H433    1.110   1_545 S
C19    O56     1.417   .     S
C19    H38     1.109   .     S
C19    C20     1.531   .     S
C19    H39     1.118   .     S
C20    H42     1.110   .     S
C20    H41     1.112   .     S
C20    C87     1.526   .     S
C21    H44     1.111   .     S
C21    H45     1.110   .     S
C21    H43     1.110   .     S
C21    C152    1.526   1_455 S
C22    H48     1.081   .     S
C22    C608    1.382   .     S
C23    H49     1.083   .     S
C23    C609    1.390   1_554 S
C24    C223    1.337   .     S
C24    H248    1.088   .     S
C25    C420    1.337   1_545 S
C25    H447    1.087   1_545 S
C26    O60     1.286   .     A
C26    O62     1.287   .     A
C27    O63     1.287   .     A
C27    O61     1.285   .     A
C28    O64     1.391   .     S
H30    N120    1.026   .     S
H33    C215    1.109   .     S
H36    C216    1.109   .     S
H37    C216    1.110   .     S
H50    C420    1.088   1_545 S
H51    C223    1.087   .     S
H52    N185    1.029   1_455 S
N53    Zn66    2.017   .     S
N53    H118    1.029   .     S
N53    N120    1.279   .     S
N54    Zn65    2.017   .     S
N54    N185    1.279   1_455 S
N54    H162    1.026   1_455 S
O55    Zn65    1.959   .     S
O57    Zn66    1.959   .     S
O58    Zn66    1.983   .     S
O59    Zn65    1.983   .     S
O60    Zn65    1.992   .     S
O61    Zn66    1.992   .     S
O62    Zn66    2.023   .     S
O63    Zn65    2.023   .     S
C67    O121    1.277   .     A
C67    O124    1.288   .     A
C67    C90     1.406   .     S
C68    C70     1.404   .     A
C68    O122    1.388   .     S
C68    C79     1.393   .     A
C69    C94     1.410   .     A
C69    C93     1.423   .     S
C69    C71     1.387   .     A
C70    C92     1.421   .     S
C70    C72     1.392   .     A
C71    C73     1.378   .     A
C71    H95     1.081   .     S
C72    H106    1.086   .     S
C72    C74     1.383   .     A
C73    C75     1.408   .     A
C73    C80     1.397   .     A
C74    C81     1.399   .     A
C74    C76     1.410   .     A
C75    C77     1.416   .     A
C75    C670    1.396   1_554 S
C76    C79     1.417   .     A
C76    C669    1.396   .     S
C77    C94     1.400   .     A
C77    C89     1.405   .     A
C78    C91     1.405   .     S
C78    O123    1.277   .     A
C78    O125    1.288   .     A
C79    C88     1.400   .     A
C80    H112    1.080   .     S
C80    C682    1.382   1_554 S
C81    H113    1.084   .     S
C81    C683    1.390   .     S
C82    H98     1.099   .     S
C82    H97     1.111   .     S
C82    O130    1.420   .     S
C82    C83     1.536   .     S
C83    C84     1.529   .     S
C83    H100    1.109   .     S
C83    H495    1.109   1_545 S
C84    H101    1.111   .     S
C84    H498    1.109   1_545 S
C84    H499    1.110   1_545 S
C85    O122    1.417   .     S
C85    H104    1.109   .     S
C85    C86     1.531   .     S
C85    H105    1.118   .     S
C86    H108    1.110   .     S
C86    H107    1.112   .     S
C86    C153    1.526   .     S
C87    H110    1.111   .     S
C87    H111    1.110   .     S
C87    H109    1.110   .     S
C88    H114    1.081   .     S
C88    C674    1.382   .     S
C89    H115    1.083   .     S
C89    C675    1.390   1_554 S
C90    C289    1.337   .     S
C90    H314    1.088   .     S
C91    C486    1.337   1_545 S
C91    H513    1.087   1_545 S
C92    O126    1.286   .     A
C92    O128    1.287   .     A
C93    O129    1.287   .     A
C93    O127    1.285   .     A
C94    O130    1.391   .     S
H96    N186    1.026   .     S
H99    C281    1.109   .     S
H102   C282    1.109   .     S
H103   C282    1.110   .     S
H116   C486    1.088   1_545 S
H117   C289    1.087   .     S
N119   Zn132   2.017   .     S
N119   H184    1.029   .     S
N119   N186    1.279   .     S
N120   Zn131   2.017   .     S
O121   Zn131   1.959   .     S
O123   Zn132   1.959   .     S
O124   Zn132   1.983   .     S
O125   Zn131   1.983   .     S
O126   Zn131   1.992   .     S
O127   Zn132   1.992   .     S
O128   Zn132   2.023   .     S
O129   Zn131   2.023   .     S
C133   O187    1.277   .     A
C133   O190    1.288   .     A
C133   C156    1.406   .     S
C134   C136    1.404   .     A
C134   O188    1.388   .     S
C134   C145    1.393   .     A
C135   C160    1.410   .     A
C135   C159    1.423   .     S
C135   C137    1.387   .     A
C136   C158    1.421   .     S
C136   C138    1.392   .     A
C137   C139    1.378   .     A
C137   H161    1.081   .     S
C138   H172    1.086   .     S
C138   C140    1.383   .     A
C139   C141    1.408   .     A
C139   C146    1.397   .     A
C140   C147    1.399   .     A
C140   C142    1.410   .     A
C141   C143    1.416   .     A
C141   C736    1.396   1_554 S
C142   C145    1.417   .     A
C142   C735    1.396   .     S
C143   C160    1.400   .     A
C143   C155    1.405   .     A
C144   C157    1.405   .     S
C144   O189    1.277   .     A
C144   O191    1.288   .     A
C145   C154    1.400   .     A
C146   H178    1.080   .     S
C146   C748    1.382   1_554 S
C147   H179    1.084   .     S
C147   C749    1.390   .     S
C148   H164    1.099   .     S
C148   H163    1.111   .     S
C148   O196    1.420   .     S
C148   C149    1.536   .     S
C149   C150    1.529   .     S
C149   H166    1.109   .     S
C149   H561    1.109   1_545 S
C150   H167    1.111   .     S
C150   H564    1.109   1_545 S
C150   H565    1.110   1_545 S
C151   O188    1.417   .     S
C151   H170    1.109   .     S
C151   C152    1.531   .     S
C151   H171    1.118   .     S
C152   H174    1.110   .     S
C152   H173    1.112   .     S
C152   C21     1.526   1_655 S
C153   H176    1.111   .     S
C153   H177    1.110   .     S
C153   H175    1.110   .     S
C154   H180    1.081   .     S
C154   C740    1.382   .     S
C155   H181    1.083   .     S
C155   C741    1.390   1_554 S
C156   C355    1.337   .     S
C156   H380    1.088   .     S
C157   C552    1.337   1_545 S
C157   H579    1.087   1_545 S
C158   O192    1.286   .     A
C158   O194    1.287   .     A
C159   O195    1.287   .     A
C159   O193    1.285   .     A
C160   O196    1.391   .     S
H162   N54     1.026   1_655 S
H165   C347    1.109   .     S
H168   C348    1.109   .     S
H169   C348    1.110   .     S
H182   C552    1.088   1_545 S
H183   C355    1.087   .     S
N185   Zn198   2.017   .     S
N185   H52     1.029   1_655 S
N185   N54     1.279   1_655 S
N186   Zn197   2.017   .     S
O187   Zn197   1.959   .     S
O189   Zn198   1.959   .     S
O190   Zn198   1.983   .     S
O191   Zn197   1.983   .     S
O192   Zn197   1.992   .     S
O193   Zn198   1.992   .     S
O194   Zn198   2.023   .     S
O195   Zn197   2.023   .     S
C199   O253    1.277   .     A
C199   O256    1.288   .     A
C199   C222    1.406   .     S
C200   C202    1.404   .     A
C200   O254    1.388   .     S
C200   C211    1.393   .     A
C201   C226    1.410   .     A
C201   C225    1.423   .     S
C201   C203    1.387   .     A
C202   C224    1.421   .     S
C202   C204    1.392   .     A
C203   C205    1.378   .     A
C203   H227    1.081   .     S
C204   H238    1.086   .     S
C204   C206    1.383   .     A
C205   C207    1.408   .     A
C205   C212    1.397   .     A
C206   C213    1.399   .     A
C206   C208    1.410   .     A
C207   C209    1.416   .     A
C207   C802    1.396   1_554 S
C208   C211    1.417   .     A
C208   C801    1.396   .     S
C209   C226    1.400   .     A
C209   C221    1.405   .     A
C210   C223    1.405   .     S
C210   O255    1.277   .     A
C210   O257    1.288   .     A
C211   C220    1.400   .     A
C212   H244    1.080   .     S
C212   C814    1.382   1_554 S
C213   H245    1.084   .     S
C213   C815    1.390   .     S
C214   H230    1.099   .     S
C214   H229    1.111   .     S
C214   O262    1.420   .     S
C214   C215    1.536   .     S
C215   C216    1.529   .     S
C215   H232    1.109   .     S
C216   H233    1.111   .     S
C217   O254    1.417   .     S
C217   H236    1.109   .     S
C217   C218    1.531   .     S
C217   H237    1.118   .     S
C218   H240    1.110   .     S
C218   H239    1.112   .     S
C218   C285    1.526   .     S
C219   H242    1.111   .     S
C219   H243    1.110   .     S
C219   H241    1.110   .     S
C219   C350    1.526   1_455 S
C220   H246    1.081   .     S
C220   C806    1.382   .     S
C221   H247    1.083   .     S
C221   C807    1.390   1_554 S
C222   C421    1.337   .     S
C222   H446    1.088   .     S
C224   O258    1.286   .     A
C224   O260    1.287   .     A
C225   O261    1.287   .     A
C225   O259    1.285   .     A
C226   O262    1.391   .     S
H228   N318    1.026   .     S
H231   C413    1.109   .     S
H234   C414    1.109   .     S
H235   C414    1.110   .     S
H249   C421    1.087   .     S
H250   N383    1.029   1_455 S
N251   Zn264   2.017   .     S
N251   H316    1.029   .     S
N251   N318    1.279   .     S
N252   Zn263   2.017   .     S
N252   N383    1.279   1_455 S
N252   H360    1.026   1_455 S
O253   Zn263   1.959   .     S
O255   Zn264   1.959   .     S
O256   Zn264   1.983   .     S
O257   Zn263   1.983   .     S
O258   Zn263   1.992   .     S
O259   Zn264   1.992   .     S
O260   Zn264   2.023   .     S
O261   Zn263   2.023   .     S
C265   O319    1.277   .     A
C265   O322    1.288   .     A
C265   C288    1.406   .     S
C266   C268    1.404   .     A
C266   O320    1.388   .     S
C266   C277    1.393   .     A
C267   C292    1.410   .     A
C267   C291    1.423   .     S
C267   C269    1.387   .     A
C268   C290    1.421   .     S
C268   C270    1.392   .     A
C269   C271    1.378   .     A
C269   H293    1.081   .     S
C270   H304    1.086   .     S
C270   C272    1.383   .     A
C271   C273    1.408   .     A
C271   C278    1.397   .     A
C272   C279    1.399   .     A
C272   C274    1.410   .     A
C273   C275    1.416   .     A
C273   C868    1.396   1_554 S
C274   C277    1.417   .     A
C274   C867    1.396   .     S
C275   C292    1.400   .     A
C275   C287    1.405   .     A
C276   C289    1.405   .     S
C276   O321    1.277   .     A
C276   O323    1.288   .     A
C277   C286    1.400   .     A
C278   H310    1.080   .     S
C278   C880    1.382   1_554 S
C279   H311    1.084   .     S
C279   C881    1.390   .     S
C280   H296    1.099   .     S
C280   H295    1.111   .     S
C280   O328    1.420   .     S
C280   C281    1.536   .     S
C281   C282    1.529   .     S
C281   H298    1.109   .     S
C282   H299    1.111   .     S
C283   O320    1.417   .     S
C283   H302    1.109   .     S
C283   C284    1.531   .     S
C283   H303    1.118   .     S
C284   H306    1.110   .     S
C284   H305    1.112   .     S
C284   C351    1.526   .     S
C285   H308    1.111   .     S
C285   H309    1.110   .     S
C285   H307    1.110   .     S
C286   H312    1.081   .     S
C286   C872    1.382   .     S
C287   H313    1.083   .     S
C287   C873    1.390   1_554 S
C288   C487    1.337   .     S
C288   H512    1.088   .     S
C290   O324    1.286   .     A
C290   O326    1.287   .     A
C291   O327    1.287   .     A
C291   O325    1.285   .     A
C292   O328    1.391   .     S
H294   N384    1.026   .     S
H297   C479    1.109   .     S
H300   C480    1.109   .     S
H301   C480    1.110   .     S
H315   C487    1.087   .     S
N317   Zn330   2.017   .     S
N317   H382    1.029   .     S
N317   N384    1.279   .     S
N318   Zn329   2.017   .     S
O319   Zn329   1.959   .     S
O321   Zn330   1.959   .     S
O322   Zn330   1.983   .     S
O323   Zn329   1.983   .     S
O324   Zn329   1.992   .     S
O325   Zn330   1.992   .     S
O326   Zn330   2.023   .     S
O327   Zn329   2.023   .     S
C331   O385    1.277   .     A
C331   O388    1.288   .     A
C331   C354    1.406   .     S
C332   C334    1.404   .     A
C332   O386    1.388   .     S
C332   C343    1.393   .     A
C333   C358    1.410   .     A
C333   C357    1.423   .     S
C333   C335    1.387   .     A
C334   C356    1.421   .     S
C334   C336    1.392   .     A
C335   C337    1.378   .     A
C335   H359    1.081   .     S
C336   H370    1.086   .     S
C336   C338    1.383   .     A
C337   C339    1.408   .     A
C337   C344    1.397   .     A
C338   C345    1.399   .     A
C338   C340    1.410   .     A
C339   C341    1.416   .     A
C339   C934    1.396   1_554 S
C340   C343    1.417   .     A
C340   C933    1.396   .     S
C341   C358    1.400   .     A
C341   C353    1.405   .     A
C342   C355    1.405   .     S
C342   O387    1.277   .     A
C342   O389    1.288   .     A
C343   C352    1.400   .     A
C344   H376    1.080   .     S
C344   C946    1.382   1_554 S
C345   H377    1.084   .     S
C345   C947    1.390   .     S
C346   H362    1.099   .     S
C346   H361    1.111   .     S
C346   O394    1.420   .     S
C346   C347    1.536   .     S
C347   C348    1.529   .     S
C347   H364    1.109   .     S
C348   H365    1.111   .     S
C349   O386    1.417   .     S
C349   H368    1.109   .     S
C349   C350    1.531   .     S
C349   H369    1.118   .     S
C350   H372    1.110   .     S
C350   H371    1.112   .     S
C350   C219    1.526   1_655 S
C351   H374    1.111   .     S
C351   H375    1.110   .     S
C351   H373    1.110   .     S
C352   H378    1.081   .     S
C352   C938    1.382   .     S
C353   H379    1.083   .     S
C353   C939    1.390   1_554 S
C354   C553    1.337   .     S
C354   H578    1.088   .     S
C356   O390    1.286   .     A
C356   O392    1.287   .     A
C357   O393    1.287   .     A
C357   O391    1.285   .     A
C358   O394    1.391   .     S
H360   N252    1.026   1_655 S
H363   C545    1.109   .     S
H366   C546    1.109   .     S
H367   C546    1.110   .     S
H381   C553    1.087   .     S
N383   Zn396   2.017   .     S
N383   H250    1.029   1_655 S
N383   N252    1.279   1_655 S
N384   Zn395   2.017   .     S
O385   Zn395   1.959   .     S
O387   Zn396   1.959   .     S
O388   Zn396   1.983   .     S
O389   Zn395   1.983   .     S
O390   Zn395   1.992   .     S
O391   Zn396   1.992   .     S
O392   Zn396   2.023   .     S
O393   Zn395   2.023   .     S
C397   O451    1.277   .     A
C397   O454    1.288   .     A
C397   C420    1.406   .     S
C398   C400    1.404   .     A
C398   O452    1.388   .     S
C398   C409    1.393   .     A
C399   C424    1.410   .     A
C399   C423    1.423   .     S
C399   C401    1.387   .     A
C400   C422    1.421   .     S
C400   C402    1.392   .     A
C401   C403    1.378   .     A
C401   H425    1.081   .     S
C402   H436    1.086   .     S
C402   C404    1.383   .     A
C403   C405    1.408   .     A
C403   C410    1.397   .     A
C404   C411    1.399   .     A
C404   C406    1.410   .     A
C405   C407    1.416   .     A
C405   C1000   1.396   1_554 S
C406   C409    1.417   .     A
C406   C999    1.396   .     S
C407   C424    1.400   .     A
C407   C419    1.405   .     A
C408   C421    1.405   .     S
C408   O453    1.277   .     A
C408   O455    1.288   .     A
C409   C418    1.400   .     A
C410   H442    1.080   .     S
C410   C1012   1.382   1_554 S
C411   H443    1.084   .     S
C411   C1013   1.390   .     S
C412   H428    1.099   .     S
C412   H427    1.111   .     S
C412   O460    1.420   .     S
C412   C413    1.536   .     S
C413   C414    1.529   .     S
C413   H430    1.109   .     S
C414   H431    1.111   .     S
C415   O452    1.417   .     S
C415   H434    1.109   .     S
C415   C416    1.531   .     S
C415   H435    1.118   .     S
C416   H438    1.110   .     S
C416   H437    1.112   .     S
C416   C483    1.526   .     S
C417   H440    1.111   .     S
C417   H441    1.110   .     S
C417   H439    1.110   .     S
C417   C548    1.526   1_455 S
C418   H444    1.081   .     S
C418   C1004   1.382   .     S
C419   H445    1.083   .     S
C419   C1005   1.390   1_554 S
C420   C25     1.337   1_565 S
C420   H50     1.088   1_565 S
C422   O456    1.286   .     A
C422   O458    1.287   .     A
C423   O459    1.287   .     A
C423   O457    1.285   .     A
C424   O460    1.391   .     S
H426   N516    1.026   .     S
H429   C17     1.109   1_565 S
H432   C18     1.109   1_565 S
H433   C18     1.110   1_565 S
H447   C25     1.087   1_565 S
H448   N581    1.029   1_455 S
N449   Zn462   2.017   .     S
N449   H514    1.029   .     S
N449   N516    1.279   .     S
N450   Zn461   2.017   .     S
N450   N581    1.279   1_455 S
N450   H558    1.026   1_455 S
O451   Zn461   1.959   .     S
O453   Zn462   1.959   .     S
O454   Zn462   1.983   .     S
O455   Zn461   1.983   .     S
O456   Zn461   1.992   .     S
O457   Zn462   1.992   .     S
O458   Zn462   2.023   .     S
O459   Zn461   2.023   .     S
C463   O517    1.277   .     A
C463   O520    1.288   .     A
C463   C486    1.406   .     S
C464   C466    1.404   .     A
C464   O518    1.388   .     S
C464   C475    1.393   .     A
C465   C490    1.410   .     A
C465   C489    1.423   .     S
C465   C467    1.387   .     A
C466   C488    1.421   .     S
C466   C468    1.392   .     A
C467   C469    1.378   .     A
C467   H491    1.081   .     S
C468   H502    1.086   .     S
C468   C470    1.383   .     A
C469   C471    1.408   .     A
C469   C476    1.397   .     A
C470   C477    1.399   .     A
C470   C472    1.410   .     A
C471   C473    1.416   .     A
C471   C1066   1.396   1_554 S
C472   C475    1.417   .     A
C472   C1065   1.396   .     S
C473   C490    1.400   .     A
C473   C485    1.405   .     A
C474   C487    1.405   .     S
C474   O519    1.277   .     A
C474   O521    1.288   .     A
C475   C484    1.400   .     A
C476   H508    1.080   .     S
C476   C1078   1.382   1_554 S
C477   H509    1.084   .     S
C477   C1079   1.390   .     S
C478   H494    1.099   .     S
C478   H493    1.111   .     S
C478   O526    1.420   .     S
C478   C479    1.536   .     S
C479   C480    1.529   .     S
C479   H496    1.109   .     S
C480   H497    1.111   .     S
C481   O518    1.417   .     S
C481   H500    1.109   .     S
C481   C482    1.531   .     S
C481   H501    1.118   .     S
C482   H504    1.110   .     S
C482   H503    1.112   .     S
C482   C549    1.526   .     S
C483   H506    1.111   .     S
C483   H507    1.110   .     S
C483   H505    1.110   .     S
C484   H510    1.081   .     S
C484   C1070   1.382   .     S
C485   H511    1.083   .     S
C485   C1071   1.390   1_554 S
C486   C91     1.337   1_565 S
C486   H116    1.088   1_565 S
C488   O522    1.286   .     A
C488   O524    1.287   .     A
C489   O525    1.287   .     A
C489   O523    1.285   .     A
C490   O526    1.391   .     S
H492   N582    1.026   .     S
H495   C83     1.109   1_565 S
H498   C84     1.109   1_565 S
H499   C84     1.110   1_565 S
H513   C91     1.087   1_565 S
N515   Zn528   2.017   .     S
N515   H580    1.029   .     S
N515   N582    1.279   .     S
N516   Zn527   2.017   .     S
O517   Zn527   1.959   .     S
O519   Zn528   1.959   .     S
O520   Zn528   1.983   .     S
O521   Zn527   1.983   .     S
O522   Zn527   1.992   .     S
O523   Zn528   1.992   .     S
O524   Zn528   2.023   .     S
O525   Zn527   2.023   .     S
C529   O583    1.277   .     A
C529   O586    1.288   .     A
C529   C552    1.406   .     S
C530   C532    1.404   .     A
C530   O584    1.388   .     S
C530   C541    1.393   .     A
C531   C556    1.410   .     A
C531   C555    1.423   .     S
C531   C533    1.387   .     A
C532   C554    1.421   .     S
C532   C534    1.392   .     A
C533   C535    1.378   .     A
C533   H557    1.081   .     S
C534   H568    1.086   .     S
C534   C536    1.383   .     A
C535   C537    1.408   .     A
C535   C542    1.397   .     A
C536   C543    1.399   .     A
C536   C538    1.410   .     A
C537   C539    1.416   .     A
C537   C1132   1.396   1_554 S
C538   C541    1.417   .     A
C538   C1131   1.396   .     S
C539   C556    1.400   .     A
C539   C551    1.405   .     A
C540   C553    1.405   .     S
C540   O585    1.277   .     A
C540   O587    1.288   .     A
C541   C550    1.400   .     A
C542   H574    1.080   .     S
C542   C1144   1.382   1_554 S
C543   H575    1.084   .     S
C543   C1145   1.390   .     S
C544   H560    1.099   .     S
C544   H559    1.111   .     S
C544   O592    1.420   .     S
C544   C545    1.536   .     S
C545   C546    1.529   .     S
C545   H562    1.109   .     S
C546   H563    1.111   .     S
C547   O584    1.417   .     S
C547   H566    1.109   .     S
C547   C548    1.531   .     S
C547   H567    1.118   .     S
C548   H570    1.110   .     S
C548   H569    1.112   .     S
C548   C417    1.526   1_655 S
C549   H572    1.111   .     S
C549   H573    1.110   .     S
C549   H571    1.110   .     S
C550   H576    1.081   .     S
C550   C1136   1.382   .     S
C551   H577    1.083   .     S
C551   C1137   1.390   1_554 S
C552   C157    1.337   1_565 S
C552   H182    1.088   1_565 S
C554   O588    1.286   .     A
C554   O590    1.287   .     A
C555   O591    1.287   .     A
C555   O589    1.285   .     A
C556   O592    1.391   .     S
H558   N450    1.026   1_655 S
H561   C149    1.109   1_565 S
H564   C150    1.109   1_565 S
H565   C150    1.110   1_565 S
H579   C157    1.087   1_565 S
N581   Zn594   2.017   .     S
N581   H448    1.029   1_655 S
N581   N450    1.279   1_655 S
N582   Zn593   2.017   .     S
O583   Zn593   1.959   .     S
O585   Zn594   1.959   .     S
O586   Zn594   1.983   .     S
O587   Zn593   1.983   .     S
O588   Zn593   1.992   .     S
O589   Zn594   1.992   .     S
O590   Zn594   2.023   .     S
O591   Zn593   2.023   .     S
C595   O649    1.277   .     A
C595   O652    1.288   .     A
C595   C618    1.406   .     S
C596   C598    1.404   .     A
C596   O650    1.388   .     S
C596   C607    1.393   .     A
C597   C622    1.410   .     A
C597   C621    1.423   .     S
C597   C599    1.387   .     A
C598   C620    1.421   .     S
C598   C600    1.392   .     A
C599   C601    1.378   .     A
C599   H623    1.081   .     S
C600   H634    1.086   .     S
C600   C602    1.383   .     A
C601   C603    1.408   .     A
C601   C608    1.397   .     A
C602   C609    1.399   .     A
C602   C604    1.410   .     A
C603   C605    1.416   .     A
C604   C607    1.417   .     A
C604   C9      1.396   1_556 S
C605   C622    1.400   .     A
C605   C617    1.405   .     A
C606   C619    1.405   .     S
C606   O651    1.277   .     A
C606   O653    1.288   .     A
C607   C616    1.400   .     A
C608   H640    1.080   .     S
C609   H641    1.084   .     S
C609   C23     1.390   1_556 S
C610   H626    1.099   .     S
C610   H625    1.111   .     S
C610   O658    1.420   .     S
C610   C611    1.536   .     S
C611   C612    1.529   .     S
C611   H628    1.109   .     S
C611   H1023   1.109   1_545 S
C612   H629    1.111   .     S
C612   H1026   1.109   1_545 S
C612   H1027   1.110   1_545 S
C613   O650    1.417   .     S
C613   H632    1.109   .     S
C613   C614    1.531   .     S
C613   H633    1.118   .     S
C614   H636    1.110   .     S
C614   H635    1.112   .     S
C614   C681    1.526   .     S
C615   H638    1.111   .     S
C615   H639    1.110   .     S
C615   H637    1.110   .     S
C615   C746    1.526   1_455 S
C616   H642    1.081   .     S
C616   C14     1.382   1_556 S
C617   H643    1.083   .     S
C618   C817    1.337   .     S
C618   H842    1.088   .     S
C619   C1014   1.337   1_545 S
C619   H1041   1.087   1_545 S
C620   O654    1.286   .     A
C620   O656    1.287   .     A
C621   O657    1.287   .     A
C621   O655    1.285   .     A
C622   O658    1.391   .     S
H624   N714    1.026   .     S
H627   C809    1.109   .     S
H630   C810    1.109   .     S
H631   C810    1.110   .     S
H644   C1014   1.088   1_545 S
H645   C817    1.087   .     S
H646   N779    1.029   1_455 S
N647   Zn660   2.017   .     S
N647   H712    1.029   .     S
N647   N714    1.279   .     S
N648   Zn659   2.017   .     S
N648   N779    1.279   1_455 S
N648   H756    1.026   1_455 S
O649   Zn659   1.959   .     S
O651   Zn660   1.959   .     S
O652   Zn660   1.983   .     S
O653   Zn659   1.983   .     S
O654   Zn659   1.992   .     S
O655   Zn660   1.992   .     S
O656   Zn660   2.023   .     S
O657   Zn659   2.023   .     S
C661   O715    1.277   .     A
C661   O718    1.288   .     A
C661   C684    1.406   .     S
C662   C664    1.404   .     A
C662   O716    1.388   .     S
C662   C673    1.393   .     A
C663   C688    1.410   .     A
C663   C687    1.423   .     S
C663   C665    1.387   .     A
C664   C686    1.421   .     S
C664   C666    1.392   .     A
C665   C667    1.378   .     A
C665   H689    1.081   .     S
C666   H700    1.086   .     S
C666   C668    1.383   .     A
C667   C669    1.408   .     A
C667   C674    1.397   .     A
C668   C675    1.399   .     A
C668   C670    1.410   .     A
C669   C671    1.416   .     A
C670   C673    1.417   .     A
C670   C75     1.396   1_556 S
C671   C688    1.400   .     A
C671   C683    1.405   .     A
C672   C685    1.405   .     S
C672   O717    1.277   .     A
C672   O719    1.288   .     A
C673   C682    1.400   .     A
C674   H706    1.080   .     S
C675   H707    1.084   .     S
C675   C89     1.390   1_556 S
C676   H692    1.099   .     S
C676   H691    1.111   .     S
C676   O724    1.420   .     S
C676   C677    1.536   .     S
C677   C678    1.529   .     S
C677   H694    1.109   .     S
C677   H1089   1.109   1_545 S
C678   H695    1.111   .     S
C678   H1092   1.109   1_545 S
C678   H1093   1.110   1_545 S
C679   O716    1.417   .     S
C679   H698    1.109   .     S
C679   C680    1.531   .     S
C679   H699    1.118   .     S
C680   H702    1.110   .     S
C680   H701    1.112   .     S
C680   C747    1.526   .     S
C681   H704    1.111   .     S
C681   H705    1.110   .     S
C681   H703    1.110   .     S
C682   H708    1.081   .     S
C682   C80     1.382   1_556 S
C683   H709    1.083   .     S
C684   C883    1.337   .     S
C684   H908    1.088   .     S
C685   C1080   1.337   1_545 S
C685   H1107   1.087   1_545 S
C686   O720    1.286   .     A
C686   O722    1.287   .     A
C687   O723    1.287   .     A
C687   O721    1.285   .     A
C688   O724    1.391   .     S
H690   N780    1.026   .     S
H693   C875    1.109   .     S
H696   C876    1.109   .     S
H697   C876    1.110   .     S
H710   C1080   1.088   1_545 S
H711   C883    1.087   .     S
N713   Zn726   2.017   .     S
N713   H778    1.029   .     S
N713   N780    1.279   .     S
N714   Zn725   2.017   .     S
O715   Zn725   1.959   .     S
O717   Zn726   1.959   .     S
O718   Zn726   1.983   .     S
O719   Zn725   1.983   .     S
O720   Zn725   1.992   .     S
O721   Zn726   1.992   .     S
O722   Zn726   2.023   .     S
O723   Zn725   2.023   .     S
C727   O781    1.277   .     A
C727   O784    1.288   .     A
C727   C750    1.406   .     S
C728   C730    1.404   .     A
C728   O782    1.388   .     S
C728   C739    1.393   .     A
C729   C754    1.410   .     A
C729   C753    1.423   .     S
C729   C731    1.387   .     A
C730   C752    1.421   .     S
C730   C732    1.392   .     A
C731   C733    1.378   .     A
C731   H755    1.081   .     S
C732   H766    1.086   .     S
C732   C734    1.383   .     A
C733   C735    1.408   .     A
C733   C740    1.397   .     A
C734   C741    1.399   .     A
C734   C736    1.410   .     A
C735   C737    1.416   .     A
C736   C739    1.417   .     A
C736   C141    1.396   1_556 S
C737   C754    1.400   .     A
C737   C749    1.405   .     A
C738   C751    1.405   .     S
C738   O783    1.277   .     A
C738   O785    1.288   .     A
C739   C748    1.400   .     A
C740   H772    1.080   .     S
C741   H773    1.084   .     S
C741   C155    1.390   1_556 S
C742   H758    1.099   .     S
C742   H757    1.111   .     S
C742   O790    1.420   .     S
C742   C743    1.536   .     S
C743   C744    1.529   .     S
C743   H760    1.109   .     S
C743   H1155   1.109   1_545 S
C744   H761    1.111   .     S
C744   H1158   1.109   1_545 S
C744   H1159   1.110   1_545 S
C745   O782    1.417   .     S
C745   H764    1.109   .     S
C745   C746    1.531   .     S
C745   H765    1.118   .     S
C746   H768    1.110   .     S
C746   H767    1.112   .     S
C746   C615    1.526   1_655 S
C747   H770    1.111   .     S
C747   H771    1.110   .     S
C747   H769    1.110   .     S
C748   H774    1.081   .     S
C748   C146    1.382   1_556 S
C749   H775    1.083   .     S
C750   C949    1.337   .     S
C750   H974    1.088   .     S
C751   C1146   1.337   1_545 S
C751   H1173   1.087   1_545 S
C752   O786    1.286   .     A
C752   O788    1.287   .     A
C753   O789    1.287   .     A
C753   O787    1.285   .     A
C754   O790    1.391   .     S
H756   N648    1.026   1_655 S
H759   C941    1.109   .     S
H762   C942    1.109   .     S
H763   C942    1.110   .     S
H776   C1146   1.088   1_545 S
H777   C949    1.087   .     S
N779   Zn792   2.017   .     S
N779   H646    1.029   1_655 S
N779   N648    1.279   1_655 S
N780   Zn791   2.017   .     S
O781   Zn791   1.959   .     S
O783   Zn792   1.959   .     S
O784   Zn792   1.983   .     S
O785   Zn791   1.983   .     S
O786   Zn791   1.992   .     S
O787   Zn792   1.992   .     S
O788   Zn792   2.023   .     S
O789   Zn791   2.023   .     S
C793   O847    1.277   .     A
C793   O850    1.288   .     A
C793   C816    1.406   .     S
C794   C796    1.404   .     A
C794   O848    1.388   .     S
C794   C805    1.393   .     A
C795   C820    1.410   .     A
C795   C819    1.423   .     S
C795   C797    1.387   .     A
C796   C818    1.421   .     S
C796   C798    1.392   .     A
C797   C799    1.378   .     A
C797   H821    1.081   .     S
C798   H832    1.086   .     S
C798   C800    1.383   .     A
C799   C801    1.408   .     A
C799   C806    1.397   .     A
C800   C807    1.399   .     A
C800   C802    1.410   .     A
C801   C803    1.416   .     A
C802   C805    1.417   .     A
C802   C207    1.396   1_556 S
C803   C820    1.400   .     A
C803   C815    1.405   .     A
C804   C817    1.405   .     S
C804   O849    1.277   .     A
C804   O851    1.288   .     A
C805   C814    1.400   .     A
C806   H838    1.080   .     S
C807   H839    1.084   .     S
C807   C221    1.390   1_556 S
C808   H824    1.099   .     S
C808   H823    1.111   .     S
C808   O856    1.420   .     S
C808   C809    1.536   .     S
C809   C810    1.529   .     S
C809   H826    1.109   .     S
C810   H827    1.111   .     S
C811   O848    1.417   .     S
C811   H830    1.109   .     S
C811   C812    1.531   .     S
C811   H831    1.118   .     S
C812   H834    1.110   .     S
C812   H833    1.112   .     S
C812   C879    1.526   .     S
C813   H836    1.111   .     S
C813   H837    1.110   .     S
C813   H835    1.110   .     S
C813   C944    1.526   1_455 S
C814   H840    1.081   .     S
C814   C212    1.382   1_556 S
C815   H841    1.083   .     S
C816   C1015   1.337   .     S
C816   H1040   1.088   .     S
C818   O852    1.286   .     A
C818   O854    1.287   .     A
C819   O855    1.287   .     A
C819   O853    1.285   .     A
C820   O856    1.391   .     S
H822   N912    1.026   .     S
H825   C1007   1.109   .     S
H828   C1008   1.109   .     S
H829   C1008   1.110   .     S
H843   C1015   1.087   .     S
H844   N977    1.029   1_455 S
N845   Zn858   2.017   .     S
N845   H910    1.029   .     S
N845   N912    1.279   .     S
N846   Zn857   2.017   .     S
N846   N977    1.279   1_455 S
N846   H954    1.026   1_455 S
O847   Zn857   1.959   .     S
O849   Zn858   1.959   .     S
O850   Zn858   1.983   .     S
O851   Zn857   1.983   .     S
O852   Zn857   1.992   .     S
O853   Zn858   1.992   .     S
O854   Zn858   2.023   .     S
O855   Zn857   2.023   .     S
C859   O913    1.277   .     A
C859   O916    1.288   .     A
C859   C882    1.406   .     S
C860   C862    1.404   .     A
C860   O914    1.388   .     S
C860   C871    1.393   .     A
C861   C886    1.410   .     A
C861   C885    1.423   .     S
C861   C863    1.387   .     A
C862   C884    1.421   .     S
C862   C864    1.392   .     A
C863   C865    1.378   .     A
C863   H887    1.081   .     S
C864   H898    1.086   .     S
C864   C866    1.383   .     A
C865   C867    1.408   .     A
C865   C872    1.397   .     A
C866   C873    1.399   .     A
C866   C868    1.410   .     A
C867   C869    1.416   .     A
C868   C871    1.417   .     A
C868   C273    1.396   1_556 S
C869   C886    1.400   .     A
C869   C881    1.405   .     A
C870   C883    1.405   .     S
C870   O915    1.277   .     A
C870   O917    1.288   .     A
C871   C880    1.400   .     A
C872   H904    1.080   .     S
C873   H905    1.084   .     S
C873   C287    1.390   1_556 S
C874   H890    1.099   .     S
C874   H889    1.111   .     S
C874   O922    1.420   .     S
C874   C875    1.536   .     S
C875   C876    1.529   .     S
C875   H892    1.109   .     S
C876   H893    1.111   .     S
C877   O914    1.417   .     S
C877   H896    1.109   .     S
C877   C878    1.531   .     S
C877   H897    1.118   .     S
C878   H900    1.110   .     S
C878   H899    1.112   .     S
C878   C945    1.526   .     S
C879   H902    1.111   .     S
C879   H903    1.110   .     S
C879   H901    1.110   .     S
C880   H906    1.081   .     S
C880   C278    1.382   1_556 S
C881   H907    1.083   .     S
C882   C1081   1.337   .     S
C882   H1106   1.088   .     S
C884   O918    1.286   .     A
C884   O920    1.287   .     A
C885   O921    1.287   .     A
C885   O919    1.285   .     A
C886   O922    1.391   .     S
H888   N978    1.026   .     S
H891   C1073   1.109   .     S
H894   C1074   1.109   .     S
H895   C1074   1.110   .     S
H909   C1081   1.087   .     S
N911   Zn924   2.017   .     S
N911   H976    1.029   .     S
N911   N978    1.279   .     S
N912   Zn923   2.017   .     S
O913   Zn923   1.959   .     S
O915   Zn924   1.959   .     S
O916   Zn924   1.983   .     S
O917   Zn923   1.983   .     S
O918   Zn923   1.992   .     S
O919   Zn924   1.992   .     S
O920   Zn924   2.023   .     S
O921   Zn923   2.023   .     S
C925   O979    1.277   .     A
C925   O982    1.288   .     A
C925   C948    1.406   .     S
C926   C928    1.404   .     A
C926   O980    1.388   .     S
C926   C937    1.393   .     A
C927   C952    1.410   .     A
C927   C951    1.423   .     S
C927   C929    1.387   .     A
C928   C950    1.421   .     S
C928   C930    1.392   .     A
C929   C931    1.378   .     A
C929   H953    1.081   .     S
C930   H964    1.086   .     S
C930   C932    1.383   .     A
C931   C933    1.408   .     A
C931   C938    1.397   .     A
C932   C939    1.399   .     A
C932   C934    1.410   .     A
C933   C935    1.416   .     A
C934   C937    1.417   .     A
C934   C339    1.396   1_556 S
C935   C952    1.400   .     A
C935   C947    1.405   .     A
C936   C949    1.405   .     S
C936   O981    1.277   .     A
C936   O983    1.288   .     A
C937   C946    1.400   .     A
C938   H970    1.080   .     S
C939   H971    1.084   .     S
C939   C353    1.390   1_556 S
C940   H956    1.099   .     S
C940   H955    1.111   .     S
C940   O988    1.420   .     S
C940   C941    1.536   .     S
C941   C942    1.529   .     S
C941   H958    1.109   .     S
C942   H959    1.111   .     S
C943   O980    1.417   .     S
C943   H962    1.109   .     S
C943   C944    1.531   .     S
C943   H963    1.118   .     S
C944   H966    1.110   .     S
C944   H965    1.112   .     S
C944   C813    1.526   1_655 S
C945   H968    1.111   .     S
C945   H969    1.110   .     S
C945   H967    1.110   .     S
C946   H972    1.081   .     S
C946   C344    1.382   1_556 S
C947   H973    1.083   .     S
C948   C1147   1.337   .     S
C948   H1172   1.088   .     S
C950   O984    1.286   .     A
C950   O986    1.287   .     A
C951   O987    1.287   .     A
C951   O985    1.285   .     A
C952   O988    1.391   .     S
H954   N846    1.026   1_655 S
H957   C1139   1.109   .     S
H960   C1140   1.109   .     S
H961   C1140   1.110   .     S
H975   C1147   1.087   .     S
N977   Zn990   2.017   .     S
N977   H844    1.029   1_655 S
N977   N846    1.279   1_655 S
N978   Zn989   2.017   .     S
O979   Zn989   1.959   .     S
O981   Zn990   1.959   .     S
O982   Zn990   1.983   .     S
O983   Zn989   1.983   .     S
O984   Zn989   1.992   .     S
O985   Zn990   1.992   .     S
O986   Zn990   2.023   .     S
O987   Zn989   2.023   .     S
C991   O1045   1.277   .     A
C991   O1048   1.288   .     A
C991   C1014   1.406   .     S
C992   C994    1.404   .     A
C992   O1046   1.388   .     S
C992   C1003   1.393   .     A
C993   C1018   1.410   .     A
C993   C1017   1.423   .     S
C993   C995    1.387   .     A
C994   C1016   1.421   .     S
C994   C996    1.392   .     A
C995   C997    1.378   .     A
C995   H1019   1.081   .     S
C996   H1030   1.086   .     S
C996   C998    1.383   .     A
C997   C999    1.408   .     A
C997   C1004   1.397   .     A
C998   C1005   1.399   .     A
C998   C1000   1.410   .     A
C999   C1001   1.416   .     A
C1000  C1003   1.417   .     A
C1000  C405    1.396   1_556 S
C1001  C1018   1.400   .     A
C1001  C1013   1.405   .     A
C1002  C1015   1.405   .     S
C1002  O1047   1.277   .     A
C1002  O1049   1.288   .     A
C1003  C1012   1.400   .     A
C1004  H1036   1.080   .     S
C1005  H1037   1.084   .     S
C1005  C419    1.390   1_556 S
C1006  H1022   1.099   .     S
C1006  H1021   1.111   .     S
C1006  O1054   1.420   .     S
C1006  C1007   1.536   .     S
C1007  C1008   1.529   .     S
C1007  H1024   1.109   .     S
C1008  H1025   1.111   .     S
C1009  O1046   1.417   .     S
C1009  H1028   1.109   .     S
C1009  C1010   1.531   .     S
C1009  H1029   1.118   .     S
C1010  H1032   1.110   .     S
C1010  H1031   1.112   .     S
C1010  C1077   1.526   .     S
C1011  H1034   1.111   .     S
C1011  H1035   1.110   .     S
C1011  H1033   1.110   .     S
C1011  C1142   1.526   1_455 S
C1012  H1038   1.081   .     S
C1012  C410    1.382   1_556 S
C1013  H1039   1.083   .     S
C1014  C619    1.337   1_565 S
C1014  H644    1.088   1_565 S
C1016  O1050   1.286   .     A
C1016  O1052   1.287   .     A
C1017  O1053   1.287   .     A
C1017  O1051   1.285   .     A
C1018  O1054   1.391   .     S
H1020  N1110   1.026   .     S
H1023  C611    1.109   1_565 S
H1026  C612    1.109   1_565 S
H1027  C612    1.110   1_565 S
H1041  C619    1.087   1_565 S
H1042  N1175   1.029   1_455 S
N1043  Zn1056  2.017   .     S
N1043  H1108   1.029   .     S
N1043  N1110   1.279   .     S
N1044  Zn1055  2.017   .     S
N1044  N1175   1.279   1_455 S
N1044  H1152   1.026   1_455 S
O1045  Zn1055  1.959   .     S
O1047  Zn1056  1.959   .     S
O1048  Zn1056  1.983   .     S
O1049  Zn1055  1.983   .     S
O1050  Zn1055  1.992   .     S
O1051  Zn1056  1.992   .     S
O1052  Zn1056  2.023   .     S
O1053  Zn1055  2.023   .     S
C1057  O1111   1.277   .     A
C1057  O1114   1.288   .     A
C1057  C1080   1.406   .     S
C1058  C1060   1.404   .     A
C1058  O1112   1.388   .     S
C1058  C1069   1.393   .     A
C1059  C1084   1.410   .     A
C1059  C1083   1.423   .     S
C1059  C1061   1.387   .     A
C1060  C1082   1.421   .     S
C1060  C1062   1.392   .     A
C1061  C1063   1.378   .     A
C1061  H1085   1.081   .     S
C1062  H1096   1.086   .     S
C1062  C1064   1.383   .     A
C1063  C1065   1.408   .     A
C1063  C1070   1.397   .     A
C1064  C1071   1.399   .     A
C1064  C1066   1.410   .     A
C1065  C1067   1.416   .     A
C1066  C1069   1.417   .     A
C1066  C471    1.396   1_556 S
C1067  C1084   1.400   .     A
C1067  C1079   1.405   .     A
C1068  C1081   1.405   .     S
C1068  O1113   1.277   .     A
C1068  O1115   1.288   .     A
C1069  C1078   1.400   .     A
C1070  H1102   1.080   .     S
C1071  H1103   1.084   .     S
C1071  C485    1.390   1_556 S
C1072  H1088   1.099   .     S
C1072  H1087   1.111   .     S
C1072  O1120   1.420   .     S
C1072  C1073   1.536   .     S
C1073  C1074   1.529   .     S
C1073  H1090   1.109   .     S
C1074  H1091   1.111   .     S
C1075  O1112   1.417   .     S
C1075  H1094   1.109   .     S
C1075  C1076   1.531   .     S
C1075  H1095   1.118   .     S
C1076  H1098   1.110   .     S
C1076  H1097   1.112   .     S
C1076  C1143   1.526   .     S
C1077  H1100   1.111   .     S
C1077  H1101   1.110   .     S
C1077  H1099   1.110   .     S
C1078  H1104   1.081   .     S
C1078  C476    1.382   1_556 S
C1079  H1105   1.083   .     S
C1080  C685    1.337   1_565 S
C1080  H710    1.088   1_565 S
C1082  O1116   1.286   .     A
C1082  O1118   1.287   .     A
C1083  O1119   1.287   .     A
C1083  O1117   1.285   .     A
C1084  O1120   1.391   .     S
H1086  N1176   1.026   .     S
H1089  C677    1.109   1_565 S
H1092  C678    1.109   1_565 S
H1093  C678    1.110   1_565 S
H1107  C685    1.087   1_565 S
N1109  Zn1122  2.017   .     S
N1109  H1174   1.029   .     S
N1109  N1176   1.279   .     S
N1110  Zn1121  2.017   .     S
O1111  Zn1121  1.959   .     S
O1113  Zn1122  1.959   .     S
O1114  Zn1122  1.983   .     S
O1115  Zn1121  1.983   .     S
O1116  Zn1121  1.992   .     S
O1117  Zn1122  1.992   .     S
O1118  Zn1122  2.023   .     S
O1119  Zn1121  2.023   .     S
C1123  O1177   1.277   .     A
C1123  O1180   1.288   .     A
C1123  C1146   1.406   .     S
C1124  C1126   1.404   .     A
C1124  O1178   1.388   .     S
C1124  C1135   1.393   .     A
C1125  C1150   1.410   .     A
C1125  C1149   1.423   .     S
C1125  C1127   1.387   .     A
C1126  C1148   1.421   .     S
C1126  C1128   1.392   .     A
C1127  C1129   1.378   .     A
C1127  H1151   1.081   .     S
C1128  H1162   1.086   .     S
C1128  C1130   1.383   .     A
C1129  C1131   1.408   .     A
C1129  C1136   1.397   .     A
C1130  C1137   1.399   .     A
C1130  C1132   1.410   .     A
C1131  C1133   1.416   .     A
C1132  C1135   1.417   .     A
C1132  C537    1.396   1_556 S
C1133  C1150   1.400   .     A
C1133  C1145   1.405   .     A
C1134  C1147   1.405   .     S
C1134  O1179   1.277   .     A
C1134  O1181   1.288   .     A
C1135  C1144   1.400   .     A
C1136  H1168   1.080   .     S
C1137  H1169   1.084   .     S
C1137  C551    1.390   1_556 S
C1138  H1154   1.099   .     S
C1138  H1153   1.111   .     S
C1138  O1186   1.420   .     S
C1138  C1139   1.536   .     S
C1139  C1140   1.529   .     S
C1139  H1156   1.109   .     S
C1140  H1157   1.111   .     S
C1141  O1178   1.417   .     S
C1141  H1160   1.109   .     S
C1141  C1142   1.531   .     S
C1141  H1161   1.118   .     S
C1142  H1164   1.110   .     S
C1142  H1163   1.112   .     S
C1142  C1011   1.526   1_655 S
C1143  H1166   1.111   .     S
C1143  H1167   1.110   .     S
C1143  H1165   1.110   .     S
C1144  H1170   1.081   .     S
C1144  C542    1.382   1_556 S
C1145  H1171   1.083   .     S
C1146  C751    1.337   1_565 S
C1146  H776    1.088   1_565 S
C1148  O1182   1.286   .     A
C1148  O1184   1.287   .     A
C1149  O1185   1.287   .     A
C1149  O1183   1.285   .     A
C1150  O1186   1.391   .     S
H1152  N1044   1.026   1_655 S
H1155  C743    1.109   1_565 S
H1158  C744    1.109   1_565 S
H1159  C744    1.110   1_565 S
H1173  C751    1.087   1_565 S
N1175  Zn1188  2.017   .     S
N1175  H1042   1.029   1_655 S
N1175  N1044   1.279   1_655 S
N1176  Zn1187  2.017   .     S
O1177  Zn1187  1.959   .     S
O1179  Zn1188  1.959   .     S
O1180  Zn1188  1.983   .     S
O1181  Zn1187  1.983   .     S
O1182  Zn1187  1.992   .     S
O1183  Zn1188  1.992   .     S
O1184  Zn1188  2.023   .     S
O1185  Zn1187  2.023   .     S
