data_str_m3_o1_o16_pcu_sym.56
_audit_creation_date              2020-01-03
_audit_creation_method            'Materials Studio'
_symmetry_space_group_name_H-M    'P1'
_symmetry_Int_Tables_number       1
_symmetry_cell_setting            triclinic
loop_
_symmetry_equiv_pos_as_xyz
  x,y,z
_cell_length_a                    29.6986
_cell_length_b                    32.1107
_cell_length_c                    26.1688
_cell_angle_alpha                 91.4340
_cell_angle_beta                  69.9279
_cell_angle_gamma                 90.3632
loop_
_atom_site_label
_atom_site_type_symbol
_atom_site_fract_x
_atom_site_fract_y
_atom_site_fract_z
_atom_site_U_iso_or_equiv
_atom_site_adp_type
_atom_site_occupancy
O1     O     0.12846   0.22775   0.25000   0.00000  Uiso   1.00
O2     O     0.20490   0.22774   0.25001   0.00000  Uiso   1.00
C3     C     0.16666   0.24665   0.25036   0.00000  Uiso   1.00
O4     O     0.10947   0.16666   0.32681   0.00000  Uiso   1.00
O5     O     0.18591   0.16665   0.32681   0.00000  Uiso   1.00
C6     C     0.13987   0.16629   0.35240   0.00000  Uiso   1.00
Zn7    Zn    0.11562   0.16667   0.25000   0.00000  Uiso   1.00
Zn8    Zn    0.21771   0.16666   0.25000   0.00000  Uiso   1.00
O9     O     0.12843   0.10559   0.25000   0.00000  Uiso   1.00
O10    O     0.20488   0.10558   0.25000   0.00000  Uiso   1.00
O11    O     0.14742   0.16668   0.17319   0.00000  Uiso   1.00
O12    O     0.22387   0.16667   0.17319   0.00000  Uiso   1.00
C13    C     0.16651   0.08669   0.25027   0.00000  Uiso   1.00
C14    C     0.19354   0.16666   0.14792   0.00000  Uiso   1.00
C15    C     0.25967   0.12710   0.00736   0.00000  Uiso   1.00
H16    H     0.27456   0.12741   0.08184   0.00000  Uiso   1.00
H17    H     0.28899   0.10582   0.48827   0.00000  Uiso   1.00
C18    C     0.21147   0.16364   0.08909   0.00000  Uiso   1.00
C19    C     0.08610   0.19895   0.43884   0.00000  Uiso   1.00
C20    C     0.08935   0.22297   0.48257   0.00000  Uiso   1.00
C21    C     0.12781   0.21790   0.00114   0.00000  Uiso   1.00
C22    C     0.15854   0.18246   0.48269   0.00000  Uiso   1.00
C23    C     0.15618   0.15913   0.43743   0.00000  Uiso   1.00
C24    C     0.19087   0.16883   0.00792   0.00000  Uiso   1.00
C25    C     0.22695   0.13854   0.48181   0.00000  Uiso   1.00
C26    C     0.22616   0.11784   0.43404   0.00000  Uiso   1.00
C27    C     0.18850   0.12592   0.41561   0.00000  Uiso   1.00
C28    C     0.18339   0.18002   0.06196   0.00000  Uiso   1.00
C29    C     0.25184   0.13965   0.06100   0.00000  Uiso   1.00
C30    C     0.12358   0.17088   0.41194   0.00000  Uiso   1.00
H31    H     0.15216   0.19774   0.08578   0.00000  Uiso   1.00
H32    H     0.06379   0.24790   0.49948   0.00000  Uiso   1.00
H33    H     0.18495   0.10661   0.38270   0.00000  Uiso   1.00
C34    C     0.20982   0.31210   0.24059   0.00000  Uiso   1.00
H35    H     0.24361   0.29593   0.23219   0.00000  Uiso   1.00
C36    C     0.20976   0.02140   0.24040   0.00000  Uiso   1.00
H37    H     0.24355   0.03765   0.23189   0.00000  Uiso   1.00
C38    C     0.16642   0.04253   0.25058   0.00000  Uiso   1.00
C39    C     0.12312   0.02130   0.26120   0.00000  Uiso   1.00
H40    H     0.08935   0.03751   0.26956   0.00000  Uiso   1.00
C41    C     0.12318   0.31198   0.26140   0.00000  Uiso   1.00
H42    H     0.08941   0.29571   0.26992   0.00000  Uiso   1.00
C43    C     0.16657   0.29085   0.25089   0.00000  Uiso   1.00
C44    C     0.31923   0.14292   0.21355   0.00000  Uiso   1.00
H45    H     0.30847   0.12512   0.18403   0.00000  Uiso   1.00
C46    C     0.03374   0.14232   0.21261   0.00000  Uiso   1.00
N47    N     0.04760   0.16668   0.25001   0.00000  Uiso   1.00
C48    C     0.01300   0.19045   0.28699   0.00000  Uiso   1.00
H49    H     0.02229   0.20986   0.31621   0.00000  Uiso   1.00
C50    C     0.29852   0.19040   0.28701   0.00000  Uiso   1.00
H51    H     0.27178   0.20958   0.31661   0.00000  Uiso   1.00
N52    N     0.28573   0.16665   0.25001   0.00000  Uiso   1.00
S53    S     0.07197   0.11288   0.15528   0.00000  Uiso   1.00
O54    O     0.04318   0.07796   0.14259   0.00000  Uiso   1.00
O55    O     0.08655   0.14130   0.10769   0.00000  Uiso   1.00
O56    O     0.12115   0.09095   0.16045   0.00000  Uiso   1.00
H57    H     0.14008   0.08115   0.12306   0.00000  Uiso   1.00
S58    S     0.26828   0.07881   0.39898   0.00000  Uiso   1.00
O59    O     0.31813   0.09627   0.38326   0.00000  Uiso   1.00
O60    O     0.26394   0.04259   0.43564   0.00000  Uiso   1.00
O61    O     0.25820   0.06224   0.34235   0.00000  Uiso   1.00
H62    H     0.28530   0.04328   0.32335   0.00000  Uiso   1.00
N63    N     0.04707   0.20588   0.41952   0.00000  Uiso   1.00
O64    O     0.02906   0.24303   0.42201   0.00000  Uiso   1.00
O65    O     0.02415   0.17418   0.40861   0.00000  Uiso   1.00
N66    N     0.13822   0.25143   0.03284   0.00000  Uiso   1.00
O67    O     0.10357   0.27311   0.06717   0.00000  Uiso   1.00
O68    O     0.18218   0.26406   0.02199   0.00000  Uiso   1.00
O69    O     0.46179   0.22775   0.25000   0.00000  Uiso   1.00
O70    O     0.53823   0.22774   0.25001   0.00000  Uiso   1.00
C71    C     0.49999   0.24665   0.25036   0.00000  Uiso   1.00
O72    O     0.44280   0.16666   0.32681   0.00000  Uiso   1.00
O73    O     0.51924   0.16665   0.32681   0.00000  Uiso   1.00
C74    C     0.47320   0.16629   0.35240   0.00000  Uiso   1.00
Zn75   Zn    0.44896   0.16667   0.25000   0.00000  Uiso   1.00
Zn76   Zn    0.55104   0.16666   0.25000   0.00000  Uiso   1.00
O77    O     0.46177   0.10559   0.25000   0.00000  Uiso   1.00
O78    O     0.53821   0.10558   0.25000   0.00000  Uiso   1.00
O79    O     0.48076   0.16668   0.17319   0.00000  Uiso   1.00
O80    O     0.55720   0.16667   0.17319   0.00000  Uiso   1.00
C81    C     0.49984   0.08669   0.25027   0.00000  Uiso   1.00
C82    C     0.52687   0.16666   0.14792   0.00000  Uiso   1.00
C83    C     0.59300   0.12710   0.00736   0.00000  Uiso   1.00
H84    H     0.60790   0.12741   0.08184   0.00000  Uiso   1.00
H85    H     0.62232   0.10582   0.48827   0.00000  Uiso   1.00
C86    C     0.54480   0.16364   0.08909   0.00000  Uiso   1.00
C87    C     0.41943   0.19895   0.43884   0.00000  Uiso   1.00
C88    C     0.42269   0.22297   0.48257   0.00000  Uiso   1.00
C89    C     0.46114   0.21790   0.00114   0.00000  Uiso   1.00
C90    C     0.49188   0.18246   0.48269   0.00000  Uiso   1.00
C91    C     0.48952   0.15913   0.43743   0.00000  Uiso   1.00
C92    C     0.52420   0.16883   0.00792   0.00000  Uiso   1.00
C93    C     0.56029   0.13854   0.48181   0.00000  Uiso   1.00
C94    C     0.55950   0.11784   0.43404   0.00000  Uiso   1.00
C95    C     0.52183   0.12592   0.41561   0.00000  Uiso   1.00
C96    C     0.51672   0.18002   0.06196   0.00000  Uiso   1.00
C97    C     0.58517   0.13965   0.06100   0.00000  Uiso   1.00
C98    C     0.45691   0.17088   0.41194   0.00000  Uiso   1.00
H99    H     0.48550   0.19774   0.08578   0.00000  Uiso   1.00
H100   H     0.39712   0.24790   0.49948   0.00000  Uiso   1.00
H101   H     0.51829   0.10661   0.38270   0.00000  Uiso   1.00
C102   C     0.54316   0.31210   0.24059   0.00000  Uiso   1.00
H103   H     0.57694   0.29593   0.23219   0.00000  Uiso   1.00
C104   C     0.54309   0.02140   0.24040   0.00000  Uiso   1.00
H105   H     0.57688   0.03765   0.23189   0.00000  Uiso   1.00
C106   C     0.49976   0.04253   0.25058   0.00000  Uiso   1.00
C107   C     0.45645   0.02130   0.26120   0.00000  Uiso   1.00
H108   H     0.42269   0.03751   0.26956   0.00000  Uiso   1.00
C109   C     0.45652   0.31198   0.26140   0.00000  Uiso   1.00
H110   H     0.42275   0.29571   0.26992   0.00000  Uiso   1.00
C111   C     0.49990   0.29085   0.25089   0.00000  Uiso   1.00
C112   C     0.65256   0.14292   0.21355   0.00000  Uiso   1.00
H113   H     0.64180   0.12512   0.18403   0.00000  Uiso   1.00
C114   C     0.36707   0.14232   0.21261   0.00000  Uiso   1.00
N115   N     0.38093   0.16668   0.25001   0.00000  Uiso   1.00
C116   C     0.34633   0.19045   0.28699   0.00000  Uiso   1.00
H117   H     0.35563   0.20986   0.31621   0.00000  Uiso   1.00
C118   C     0.63185   0.19040   0.28701   0.00000  Uiso   1.00
H119   H     0.60511   0.20958   0.31661   0.00000  Uiso   1.00
N120   N     0.61906   0.16665   0.25001   0.00000  Uiso   1.00
S121   S     0.40530   0.11288   0.15528   0.00000  Uiso   1.00
O122   O     0.37651   0.07796   0.14259   0.00000  Uiso   1.00
O123   O     0.41989   0.14130   0.10769   0.00000  Uiso   1.00
O124   O     0.45448   0.09095   0.16045   0.00000  Uiso   1.00
H125   H     0.47341   0.08115   0.12306   0.00000  Uiso   1.00
S126   S     0.60161   0.07881   0.39898   0.00000  Uiso   1.00
O127   O     0.65147   0.09627   0.38326   0.00000  Uiso   1.00
O128   O     0.59727   0.04259   0.43564   0.00000  Uiso   1.00
O129   O     0.59153   0.06224   0.34235   0.00000  Uiso   1.00
H130   H     0.61863   0.04328   0.32335   0.00000  Uiso   1.00
N131   N     0.38040   0.20588   0.41952   0.00000  Uiso   1.00
O132   O     0.36239   0.24303   0.42201   0.00000  Uiso   1.00
O133   O     0.35749   0.17418   0.40861   0.00000  Uiso   1.00
N134   N     0.47155   0.25143   0.03284   0.00000  Uiso   1.00
O135   O     0.43690   0.27311   0.06717   0.00000  Uiso   1.00
O136   O     0.51551   0.26406   0.02199   0.00000  Uiso   1.00
O137   O     0.79512   0.22775   0.25000   0.00000  Uiso   1.00
O138   O     0.87157   0.22774   0.25001   0.00000  Uiso   1.00
C139   C     0.83333   0.24665   0.25036   0.00000  Uiso   1.00
O140   O     0.77613   0.16666   0.32681   0.00000  Uiso   1.00
O141   O     0.85258   0.16665   0.32681   0.00000  Uiso   1.00
C142   C     0.80654   0.16629   0.35240   0.00000  Uiso   1.00
Zn143  Zn    0.78229   0.16667   0.25000   0.00000  Uiso   1.00
Zn144  Zn    0.88438   0.16666   0.25000   0.00000  Uiso   1.00
O145   O     0.79510   0.10559   0.25000   0.00000  Uiso   1.00
O146   O     0.87154   0.10558   0.25000   0.00000  Uiso   1.00
O147   O     0.81409   0.16668   0.17319   0.00000  Uiso   1.00
O148   O     0.89053   0.16667   0.17319   0.00000  Uiso   1.00
C149   C     0.83318   0.08669   0.25027   0.00000  Uiso   1.00
C150   C     0.86021   0.16666   0.14792   0.00000  Uiso   1.00
C151   C     0.92633   0.12710   0.00736   0.00000  Uiso   1.00
H152   H     0.94123   0.12741   0.08184   0.00000  Uiso   1.00
H153   H     0.95565   0.10582   0.48827   0.00000  Uiso   1.00
C154   C     0.87814   0.16364   0.08909   0.00000  Uiso   1.00
C155   C     0.75277   0.19895   0.43884   0.00000  Uiso   1.00
C156   C     0.75602   0.22297   0.48257   0.00000  Uiso   1.00
C157   C     0.79448   0.21790   0.00114   0.00000  Uiso   1.00
C158   C     0.82521   0.18246   0.48269   0.00000  Uiso   1.00
C159   C     0.82285   0.15913   0.43743   0.00000  Uiso   1.00
C160   C     0.85754   0.16883   0.00792   0.00000  Uiso   1.00
C161   C     0.89362   0.13854   0.48181   0.00000  Uiso   1.00
C162   C     0.89283   0.11784   0.43404   0.00000  Uiso   1.00
C163   C     0.85516   0.12592   0.41561   0.00000  Uiso   1.00
C164   C     0.85006   0.18002   0.06196   0.00000  Uiso   1.00
C165   C     0.91850   0.13965   0.06100   0.00000  Uiso   1.00
C166   C     0.79024   0.17088   0.41194   0.00000  Uiso   1.00
H167   H     0.81883   0.19774   0.08578   0.00000  Uiso   1.00
H168   H     0.73046   0.24790   0.49948   0.00000  Uiso   1.00
H169   H     0.85162   0.10661   0.38270   0.00000  Uiso   1.00
C170   C     0.87649   0.31210   0.24059   0.00000  Uiso   1.00
H171   H     0.91027   0.29593   0.23219   0.00000  Uiso   1.00
C172   C     0.87643   0.02140   0.24040   0.00000  Uiso   1.00
H173   H     0.91021   0.03765   0.23189   0.00000  Uiso   1.00
C174   C     0.83309   0.04253   0.25058   0.00000  Uiso   1.00
C175   C     0.78979   0.02130   0.26120   0.00000  Uiso   1.00
H176   H     0.75602   0.03751   0.26956   0.00000  Uiso   1.00
C177   C     0.78985   0.31198   0.26140   0.00000  Uiso   1.00
H178   H     0.75608   0.29571   0.26992   0.00000  Uiso   1.00
C179   C     0.83324   0.29085   0.25089   0.00000  Uiso   1.00
C180   C     0.98589   0.14292   0.21355   0.00000  Uiso   1.00
H181   H     0.97513   0.12512   0.18403   0.00000  Uiso   1.00
C182   C     0.70041   0.14232   0.21261   0.00000  Uiso   1.00
N183   N     0.71426   0.16668   0.25001   0.00000  Uiso   1.00
C184   C     0.67967   0.19045   0.28699   0.00000  Uiso   1.00
H185   H     0.68896   0.20986   0.31621   0.00000  Uiso   1.00
C186   C     0.96518   0.19040   0.28701   0.00000  Uiso   1.00
H187   H     0.93844   0.20958   0.31661   0.00000  Uiso   1.00
N188   N     0.95239   0.16665   0.25001   0.00000  Uiso   1.00
S189   S     0.73864   0.11288   0.15528   0.00000  Uiso   1.00
O190   O     0.70985   0.07796   0.14259   0.00000  Uiso   1.00
O191   O     0.75322   0.14130   0.10769   0.00000  Uiso   1.00
O192   O     0.78782   0.09095   0.16045   0.00000  Uiso   1.00
H193   H     0.80674   0.08115   0.12306   0.00000  Uiso   1.00
S194   S     0.93495   0.07881   0.39898   0.00000  Uiso   1.00
O195   O     0.98480   0.09627   0.38326   0.00000  Uiso   1.00
O196   O     0.93060   0.04259   0.43564   0.00000  Uiso   1.00
O197   O     0.92486   0.06224   0.34235   0.00000  Uiso   1.00
H198   H     0.95196   0.04328   0.32335   0.00000  Uiso   1.00
N199   N     0.71374   0.20588   0.41952   0.00000  Uiso   1.00
O200   O     0.69573   0.24303   0.42201   0.00000  Uiso   1.00
O201   O     0.69082   0.17418   0.40861   0.00000  Uiso   1.00
N202   N     0.80489   0.25143   0.03284   0.00000  Uiso   1.00
O203   O     0.77023   0.27311   0.06717   0.00000  Uiso   1.00
O204   O     0.84885   0.26406   0.02199   0.00000  Uiso   1.00
O205   O     0.12846   0.56108   0.25000   0.00000  Uiso   1.00
O206   O     0.20490   0.56107   0.25001   0.00000  Uiso   1.00
C207   C     0.16666   0.57999   0.25036   0.00000  Uiso   1.00
O208   O     0.10947   0.50000   0.32681   0.00000  Uiso   1.00
O209   O     0.18591   0.49999   0.32681   0.00000  Uiso   1.00
C210   C     0.13987   0.49962   0.35240   0.00000  Uiso   1.00
Zn211  Zn    0.11562   0.50001   0.25000   0.00000  Uiso   1.00
Zn212  Zn    0.21771   0.49999   0.25000   0.00000  Uiso   1.00
O213   O     0.12843   0.43893   0.25000   0.00000  Uiso   1.00
O214   O     0.20488   0.43892   0.25000   0.00000  Uiso   1.00
O215   O     0.14742   0.50001   0.17319   0.00000  Uiso   1.00
O216   O     0.22387   0.50000   0.17319   0.00000  Uiso   1.00
C217   C     0.16651   0.42003   0.25027   0.00000  Uiso   1.00
C218   C     0.19354   0.49999   0.14792   0.00000  Uiso   1.00
C219   C     0.25967   0.46043   0.00736   0.00000  Uiso   1.00
H220   H     0.27456   0.46075   0.08184   0.00000  Uiso   1.00
H221   H     0.28899   0.43916   0.48827   0.00000  Uiso   1.00
C222   C     0.21147   0.49697   0.08909   0.00000  Uiso   1.00
C223   C     0.08610   0.53228   0.43884   0.00000  Uiso   1.00
C224   C     0.08935   0.55630   0.48257   0.00000  Uiso   1.00
C225   C     0.12781   0.55123   0.00114   0.00000  Uiso   1.00
C226   C     0.15854   0.51579   0.48269   0.00000  Uiso   1.00
C227   C     0.15618   0.49247   0.43743   0.00000  Uiso   1.00
C228   C     0.19087   0.50217   0.00792   0.00000  Uiso   1.00
C229   C     0.22695   0.47188   0.48181   0.00000  Uiso   1.00
C230   C     0.22616   0.45117   0.43404   0.00000  Uiso   1.00
C231   C     0.18850   0.45925   0.41561   0.00000  Uiso   1.00
C232   C     0.18339   0.51335   0.06196   0.00000  Uiso   1.00
C233   C     0.25184   0.47298   0.06100   0.00000  Uiso   1.00
C234   C     0.12358   0.50421   0.41194   0.00000  Uiso   1.00
H235   H     0.15216   0.53108   0.08578   0.00000  Uiso   1.00
H236   H     0.06379   0.58124   0.49948   0.00000  Uiso   1.00
H237   H     0.18495   0.43994   0.38270   0.00000  Uiso   1.00
C238   C     0.20982   0.64544   0.24059   0.00000  Uiso   1.00
H239   H     0.24361   0.62926   0.23219   0.00000  Uiso   1.00
C240   C     0.20976   0.35473   0.24040   0.00000  Uiso   1.00
H241   H     0.24355   0.37098   0.23189   0.00000  Uiso   1.00
C242   C     0.16642   0.37586   0.25058   0.00000  Uiso   1.00
C243   C     0.12312   0.35463   0.26120   0.00000  Uiso   1.00
H244   H     0.08935   0.37084   0.26956   0.00000  Uiso   1.00
C245   C     0.12318   0.64532   0.26140   0.00000  Uiso   1.00
H246   H     0.08941   0.62904   0.26992   0.00000  Uiso   1.00
C247   C     0.16657   0.62418   0.25089   0.00000  Uiso   1.00
C248   C     0.31923   0.47625   0.21355   0.00000  Uiso   1.00
H249   H     0.30847   0.45845   0.18403   0.00000  Uiso   1.00
C250   C     0.03374   0.47565   0.21261   0.00000  Uiso   1.00
N251   N     0.04760   0.50001   0.25001   0.00000  Uiso   1.00
C252   C     0.01300   0.52378   0.28699   0.00000  Uiso   1.00
H253   H     0.02229   0.54319   0.31621   0.00000  Uiso   1.00
C254   C     0.29852   0.52373   0.28701   0.00000  Uiso   1.00
H255   H     0.27178   0.54291   0.31661   0.00000  Uiso   1.00
N256   N     0.28573   0.49998   0.25001   0.00000  Uiso   1.00
S257   S     0.07197   0.44622   0.15528   0.00000  Uiso   1.00
O258   O     0.04318   0.41130   0.14259   0.00000  Uiso   1.00
O259   O     0.08655   0.47464   0.10769   0.00000  Uiso   1.00
O260   O     0.12115   0.42429   0.16045   0.00000  Uiso   1.00
H261   H     0.14008   0.41448   0.12306   0.00000  Uiso   1.00
S262   S     0.26828   0.41214   0.39898   0.00000  Uiso   1.00
O263   O     0.31813   0.42961   0.38326   0.00000  Uiso   1.00
O264   O     0.26394   0.37592   0.43564   0.00000  Uiso   1.00
O265   O     0.25820   0.39557   0.34235   0.00000  Uiso   1.00
H266   H     0.28530   0.37661   0.32335   0.00000  Uiso   1.00
N267   N     0.04707   0.53922   0.41952   0.00000  Uiso   1.00
O268   O     0.02906   0.57637   0.42201   0.00000  Uiso   1.00
O269   O     0.02415   0.50751   0.40861   0.00000  Uiso   1.00
N270   N     0.13822   0.58476   0.03284   0.00000  Uiso   1.00
O271   O     0.10357   0.60645   0.06717   0.00000  Uiso   1.00
O272   O     0.18218   0.59740   0.02199   0.00000  Uiso   1.00
O273   O     0.46179   0.56108   0.25000   0.00000  Uiso   1.00
O274   O     0.53823   0.56107   0.25001   0.00000  Uiso   1.00
C275   C     0.49999   0.57999   0.25036   0.00000  Uiso   1.00
O276   O     0.44280   0.50000   0.32681   0.00000  Uiso   1.00
O277   O     0.51924   0.49999   0.32681   0.00000  Uiso   1.00
C278   C     0.47320   0.49962   0.35240   0.00000  Uiso   1.00
Zn279  Zn    0.44896   0.50001   0.25000   0.00000  Uiso   1.00
Zn280  Zn    0.55104   0.49999   0.25000   0.00000  Uiso   1.00
O281   O     0.46177   0.43893   0.25000   0.00000  Uiso   1.00
O282   O     0.53821   0.43892   0.25000   0.00000  Uiso   1.00
O283   O     0.48076   0.50001   0.17319   0.00000  Uiso   1.00
O284   O     0.55720   0.50000   0.17319   0.00000  Uiso   1.00
C285   C     0.49984   0.42003   0.25027   0.00000  Uiso   1.00
C286   C     0.52687   0.49999   0.14792   0.00000  Uiso   1.00
C287   C     0.59300   0.46043   0.00736   0.00000  Uiso   1.00
H288   H     0.60790   0.46075   0.08184   0.00000  Uiso   1.00
H289   H     0.62232   0.43916   0.48827   0.00000  Uiso   1.00
C290   C     0.54480   0.49697   0.08909   0.00000  Uiso   1.00
C291   C     0.41943   0.53228   0.43884   0.00000  Uiso   1.00
C292   C     0.42269   0.55630   0.48257   0.00000  Uiso   1.00
C293   C     0.46114   0.55123   0.00114   0.00000  Uiso   1.00
C294   C     0.49188   0.51579   0.48269   0.00000  Uiso   1.00
C295   C     0.48952   0.49247   0.43743   0.00000  Uiso   1.00
C296   C     0.52420   0.50217   0.00792   0.00000  Uiso   1.00
C297   C     0.56029   0.47188   0.48181   0.00000  Uiso   1.00
C298   C     0.55950   0.45117   0.43404   0.00000  Uiso   1.00
C299   C     0.52183   0.45925   0.41561   0.00000  Uiso   1.00
C300   C     0.51672   0.51335   0.06196   0.00000  Uiso   1.00
C301   C     0.58517   0.47298   0.06100   0.00000  Uiso   1.00
C302   C     0.45691   0.50421   0.41194   0.00000  Uiso   1.00
H303   H     0.48550   0.53108   0.08578   0.00000  Uiso   1.00
H304   H     0.39712   0.58124   0.49948   0.00000  Uiso   1.00
H305   H     0.51829   0.43994   0.38270   0.00000  Uiso   1.00
C306   C     0.54316   0.64544   0.24059   0.00000  Uiso   1.00
H307   H     0.57694   0.62926   0.23219   0.00000  Uiso   1.00
C308   C     0.54309   0.35473   0.24040   0.00000  Uiso   1.00
H309   H     0.57688   0.37098   0.23189   0.00000  Uiso   1.00
C310   C     0.49976   0.37586   0.25058   0.00000  Uiso   1.00
C311   C     0.45645   0.35463   0.26120   0.00000  Uiso   1.00
H312   H     0.42269   0.37084   0.26956   0.00000  Uiso   1.00
C313   C     0.45652   0.64532   0.26140   0.00000  Uiso   1.00
H314   H     0.42275   0.62904   0.26992   0.00000  Uiso   1.00
C315   C     0.49990   0.62418   0.25089   0.00000  Uiso   1.00
C316   C     0.65256   0.47625   0.21355   0.00000  Uiso   1.00
H317   H     0.64180   0.45845   0.18403   0.00000  Uiso   1.00
C318   C     0.36707   0.47565   0.21261   0.00000  Uiso   1.00
N319   N     0.38093   0.50001   0.25001   0.00000  Uiso   1.00
C320   C     0.34633   0.52378   0.28699   0.00000  Uiso   1.00
H321   H     0.35563   0.54319   0.31621   0.00000  Uiso   1.00
C322   C     0.63185   0.52373   0.28701   0.00000  Uiso   1.00
H323   H     0.60511   0.54291   0.31661   0.00000  Uiso   1.00
N324   N     0.61906   0.49998   0.25001   0.00000  Uiso   1.00
S325   S     0.40530   0.44622   0.15528   0.00000  Uiso   1.00
O326   O     0.37651   0.41130   0.14259   0.00000  Uiso   1.00
O327   O     0.41989   0.47464   0.10769   0.00000  Uiso   1.00
O328   O     0.45448   0.42429   0.16045   0.00000  Uiso   1.00
H329   H     0.47341   0.41448   0.12306   0.00000  Uiso   1.00
S330   S     0.60161   0.41214   0.39898   0.00000  Uiso   1.00
O331   O     0.65147   0.42961   0.38326   0.00000  Uiso   1.00
O332   O     0.59727   0.37592   0.43564   0.00000  Uiso   1.00
O333   O     0.59153   0.39557   0.34235   0.00000  Uiso   1.00
H334   H     0.61863   0.37661   0.32335   0.00000  Uiso   1.00
N335   N     0.38040   0.53922   0.41952   0.00000  Uiso   1.00
O336   O     0.36239   0.57637   0.42201   0.00000  Uiso   1.00
O337   O     0.35749   0.50751   0.40861   0.00000  Uiso   1.00
N338   N     0.47155   0.58476   0.03284   0.00000  Uiso   1.00
O339   O     0.43690   0.60645   0.06717   0.00000  Uiso   1.00
O340   O     0.51551   0.59740   0.02199   0.00000  Uiso   1.00
O341   O     0.79512   0.56108   0.25000   0.00000  Uiso   1.00
O342   O     0.87157   0.56107   0.25001   0.00000  Uiso   1.00
C343   C     0.83333   0.57999   0.25036   0.00000  Uiso   1.00
O344   O     0.77613   0.50000   0.32681   0.00000  Uiso   1.00
O345   O     0.85258   0.49999   0.32681   0.00000  Uiso   1.00
C346   C     0.80654   0.49962   0.35240   0.00000  Uiso   1.00
Zn347  Zn    0.78229   0.50001   0.25000   0.00000  Uiso   1.00
Zn348  Zn    0.88438   0.49999   0.25000   0.00000  Uiso   1.00
O349   O     0.79510   0.43893   0.25000   0.00000  Uiso   1.00
O350   O     0.87154   0.43892   0.25000   0.00000  Uiso   1.00
O351   O     0.81409   0.50001   0.17319   0.00000  Uiso   1.00
O352   O     0.89053   0.50000   0.17319   0.00000  Uiso   1.00
C353   C     0.83318   0.42003   0.25027   0.00000  Uiso   1.00
C354   C     0.86021   0.49999   0.14792   0.00000  Uiso   1.00
C355   C     0.92633   0.46043   0.00736   0.00000  Uiso   1.00
H356   H     0.94123   0.46075   0.08184   0.00000  Uiso   1.00
H357   H     0.95565   0.43916   0.48827   0.00000  Uiso   1.00
C358   C     0.87814   0.49697   0.08909   0.00000  Uiso   1.00
C359   C     0.75277   0.53228   0.43884   0.00000  Uiso   1.00
C360   C     0.75602   0.55630   0.48257   0.00000  Uiso   1.00
C361   C     0.79448   0.55123   0.00114   0.00000  Uiso   1.00
C362   C     0.82521   0.51579   0.48269   0.00000  Uiso   1.00
C363   C     0.82285   0.49247   0.43743   0.00000  Uiso   1.00
C364   C     0.85754   0.50217   0.00792   0.00000  Uiso   1.00
C365   C     0.89362   0.47188   0.48181   0.00000  Uiso   1.00
C366   C     0.89283   0.45117   0.43404   0.00000  Uiso   1.00
C367   C     0.85516   0.45925   0.41561   0.00000  Uiso   1.00
C368   C     0.85006   0.51335   0.06196   0.00000  Uiso   1.00
C369   C     0.91850   0.47298   0.06100   0.00000  Uiso   1.00
C370   C     0.79024   0.50421   0.41194   0.00000  Uiso   1.00
H371   H     0.81883   0.53108   0.08578   0.00000  Uiso   1.00
H372   H     0.73046   0.58124   0.49948   0.00000  Uiso   1.00
H373   H     0.85162   0.43994   0.38270   0.00000  Uiso   1.00
C374   C     0.87649   0.64544   0.24059   0.00000  Uiso   1.00
H375   H     0.91027   0.62926   0.23219   0.00000  Uiso   1.00
C376   C     0.87643   0.35473   0.24040   0.00000  Uiso   1.00
H377   H     0.91021   0.37098   0.23189   0.00000  Uiso   1.00
C378   C     0.83309   0.37586   0.25058   0.00000  Uiso   1.00
C379   C     0.78979   0.35463   0.26120   0.00000  Uiso   1.00
H380   H     0.75602   0.37084   0.26956   0.00000  Uiso   1.00
C381   C     0.78985   0.64532   0.26140   0.00000  Uiso   1.00
H382   H     0.75608   0.62904   0.26992   0.00000  Uiso   1.00
C383   C     0.83324   0.62418   0.25089   0.00000  Uiso   1.00
C384   C     0.98589   0.47625   0.21355   0.00000  Uiso   1.00
H385   H     0.97513   0.45845   0.18403   0.00000  Uiso   1.00
C386   C     0.70041   0.47565   0.21261   0.00000  Uiso   1.00
N387   N     0.71426   0.50001   0.25001   0.00000  Uiso   1.00
C388   C     0.67967   0.52378   0.28699   0.00000  Uiso   1.00
H389   H     0.68896   0.54319   0.31621   0.00000  Uiso   1.00
C390   C     0.96518   0.52373   0.28701   0.00000  Uiso   1.00
H391   H     0.93844   0.54291   0.31661   0.00000  Uiso   1.00
N392   N     0.95239   0.49998   0.25001   0.00000  Uiso   1.00
S393   S     0.73864   0.44622   0.15528   0.00000  Uiso   1.00
O394   O     0.70985   0.41130   0.14259   0.00000  Uiso   1.00
O395   O     0.75322   0.47464   0.10769   0.00000  Uiso   1.00
O396   O     0.78782   0.42429   0.16045   0.00000  Uiso   1.00
H397   H     0.80674   0.41448   0.12306   0.00000  Uiso   1.00
S398   S     0.93495   0.41214   0.39898   0.00000  Uiso   1.00
O399   O     0.98480   0.42961   0.38326   0.00000  Uiso   1.00
O400   O     0.93060   0.37592   0.43564   0.00000  Uiso   1.00
O401   O     0.92486   0.39557   0.34235   0.00000  Uiso   1.00
H402   H     0.95196   0.37661   0.32335   0.00000  Uiso   1.00
N403   N     0.71374   0.53922   0.41952   0.00000  Uiso   1.00
O404   O     0.69573   0.57637   0.42201   0.00000  Uiso   1.00
O405   O     0.69082   0.50751   0.40861   0.00000  Uiso   1.00
N406   N     0.80489   0.58476   0.03284   0.00000  Uiso   1.00
O407   O     0.77023   0.60645   0.06717   0.00000  Uiso   1.00
O408   O     0.84885   0.59740   0.02199   0.00000  Uiso   1.00
O409   O     0.12846   0.89442   0.25000   0.00000  Uiso   1.00
O410   O     0.20490   0.89441   0.25001   0.00000  Uiso   1.00
C411   C     0.16666   0.91332   0.25036   0.00000  Uiso   1.00
O412   O     0.10947   0.83333   0.32681   0.00000  Uiso   1.00
O413   O     0.18591   0.83332   0.32681   0.00000  Uiso   1.00
C414   C     0.13987   0.83295   0.35240   0.00000  Uiso   1.00
Zn415  Zn    0.11562   0.83334   0.25000   0.00000  Uiso   1.00
Zn416  Zn    0.21771   0.83333   0.25000   0.00000  Uiso   1.00
O417   O     0.12843   0.77226   0.25000   0.00000  Uiso   1.00
O418   O     0.20488   0.77225   0.25000   0.00000  Uiso   1.00
O419   O     0.14742   0.83335   0.17319   0.00000  Uiso   1.00
O420   O     0.22387   0.83334   0.17319   0.00000  Uiso   1.00
C421   C     0.16651   0.75336   0.25027   0.00000  Uiso   1.00
C422   C     0.19354   0.83332   0.14792   0.00000  Uiso   1.00
C423   C     0.25967   0.79376   0.00736   0.00000  Uiso   1.00
H424   H     0.27456   0.79408   0.08184   0.00000  Uiso   1.00
H425   H     0.28899   0.77249   0.48827   0.00000  Uiso   1.00
C426   C     0.21147   0.83031   0.08909   0.00000  Uiso   1.00
C427   C     0.08610   0.86561   0.43884   0.00000  Uiso   1.00
C428   C     0.08935   0.88963   0.48257   0.00000  Uiso   1.00
C429   C     0.12781   0.88457   0.00114   0.00000  Uiso   1.00
C430   C     0.15854   0.84913   0.48269   0.00000  Uiso   1.00
C431   C     0.15618   0.82580   0.43743   0.00000  Uiso   1.00
C432   C     0.19087   0.83550   0.00792   0.00000  Uiso   1.00
C433   C     0.22695   0.80521   0.48181   0.00000  Uiso   1.00
C434   C     0.22616   0.78450   0.43404   0.00000  Uiso   1.00
C435   C     0.18850   0.79259   0.41561   0.00000  Uiso   1.00
C436   C     0.18339   0.84669   0.06196   0.00000  Uiso   1.00
C437   C     0.25184   0.80631   0.06100   0.00000  Uiso   1.00
C438   C     0.12358   0.83754   0.41194   0.00000  Uiso   1.00
H439   H     0.15216   0.86441   0.08578   0.00000  Uiso   1.00
H440   H     0.06379   0.91457   0.49948   0.00000  Uiso   1.00
H441   H     0.18495   0.77328   0.38270   0.00000  Uiso   1.00
C442   C     0.20982   0.97877   0.24059   0.00000  Uiso   1.00
H443   H     0.24361   0.96260   0.23219   0.00000  Uiso   1.00
C444   C     0.20976   0.68807   0.24040   0.00000  Uiso   1.00
H445   H     0.24355   0.70432   0.23189   0.00000  Uiso   1.00
C446   C     0.16642   0.70920   0.25058   0.00000  Uiso   1.00
C447   C     0.12312   0.68797   0.26120   0.00000  Uiso   1.00
H448   H     0.08935   0.70417   0.26956   0.00000  Uiso   1.00
C449   C     0.12318   0.97865   0.26140   0.00000  Uiso   1.00
H450   H     0.08941   0.96237   0.26992   0.00000  Uiso   1.00
C451   C     0.16657   0.95752   0.25089   0.00000  Uiso   1.00
C452   C     0.31923   0.80958   0.21355   0.00000  Uiso   1.00
H453   H     0.30847   0.79179   0.18403   0.00000  Uiso   1.00
C454   C     0.03374   0.80898   0.21261   0.00000  Uiso   1.00
N455   N     0.04760   0.83334   0.25001   0.00000  Uiso   1.00
C456   C     0.01300   0.85712   0.28699   0.00000  Uiso   1.00
H457   H     0.02229   0.87653   0.31621   0.00000  Uiso   1.00
C458   C     0.29852   0.85706   0.28701   0.00000  Uiso   1.00
H459   H     0.27178   0.87625   0.31661   0.00000  Uiso   1.00
N460   N     0.28573   0.83331   0.25001   0.00000  Uiso   1.00
S461   S     0.07197   0.77955   0.15528   0.00000  Uiso   1.00
O462   O     0.04318   0.74463   0.14259   0.00000  Uiso   1.00
O463   O     0.08655   0.80797   0.10769   0.00000  Uiso   1.00
O464   O     0.12115   0.75762   0.16045   0.00000  Uiso   1.00
H465   H     0.14008   0.74781   0.12306   0.00000  Uiso   1.00
S466   S     0.26828   0.74548   0.39898   0.00000  Uiso   1.00
O467   O     0.31813   0.76294   0.38326   0.00000  Uiso   1.00
O468   O     0.26394   0.70925   0.43564   0.00000  Uiso   1.00
O469   O     0.25820   0.72890   0.34235   0.00000  Uiso   1.00
H470   H     0.28530   0.70994   0.32335   0.00000  Uiso   1.00
N471   N     0.04707   0.87255   0.41952   0.00000  Uiso   1.00
O472   O     0.02906   0.90970   0.42201   0.00000  Uiso   1.00
O473   O     0.02415   0.84085   0.40861   0.00000  Uiso   1.00
N474   N     0.13822   0.91810   0.03284   0.00000  Uiso   1.00
O475   O     0.10357   0.93978   0.06717   0.00000  Uiso   1.00
O476   O     0.18218   0.93073   0.02199   0.00000  Uiso   1.00
O477   O     0.46179   0.89442   0.25000   0.00000  Uiso   1.00
O478   O     0.53823   0.89441   0.25001   0.00000  Uiso   1.00
C479   C     0.49999   0.91332   0.25036   0.00000  Uiso   1.00
O480   O     0.44280   0.83333   0.32681   0.00000  Uiso   1.00
O481   O     0.51924   0.83332   0.32681   0.00000  Uiso   1.00
C482   C     0.47320   0.83295   0.35240   0.00000  Uiso   1.00
Zn483  Zn    0.44896   0.83334   0.25000   0.00000  Uiso   1.00
Zn484  Zn    0.55104   0.83333   0.25000   0.00000  Uiso   1.00
O485   O     0.46177   0.77226   0.25000   0.00000  Uiso   1.00
O486   O     0.53821   0.77225   0.25000   0.00000  Uiso   1.00
O487   O     0.48076   0.83335   0.17319   0.00000  Uiso   1.00
O488   O     0.55720   0.83334   0.17319   0.00000  Uiso   1.00
C489   C     0.49984   0.75336   0.25027   0.00000  Uiso   1.00
C490   C     0.52687   0.83332   0.14792   0.00000  Uiso   1.00
C491   C     0.59300   0.79376   0.00736   0.00000  Uiso   1.00
H492   H     0.60790   0.79408   0.08184   0.00000  Uiso   1.00
H493   H     0.62232   0.77249   0.48827   0.00000  Uiso   1.00
C494   C     0.54480   0.83031   0.08909   0.00000  Uiso   1.00
C495   C     0.41943   0.86561   0.43884   0.00000  Uiso   1.00
C496   C     0.42269   0.88963   0.48257   0.00000  Uiso   1.00
C497   C     0.46114   0.88457   0.00114   0.00000  Uiso   1.00
C498   C     0.49188   0.84913   0.48269   0.00000  Uiso   1.00
C499   C     0.48952   0.82580   0.43743   0.00000  Uiso   1.00
C500   C     0.52420   0.83550   0.00792   0.00000  Uiso   1.00
C501   C     0.56029   0.80521   0.48181   0.00000  Uiso   1.00
C502   C     0.55950   0.78450   0.43404   0.00000  Uiso   1.00
C503   C     0.52183   0.79259   0.41561   0.00000  Uiso   1.00
C504   C     0.51672   0.84669   0.06196   0.00000  Uiso   1.00
C505   C     0.58517   0.80631   0.06100   0.00000  Uiso   1.00
C506   C     0.45691   0.83754   0.41194   0.00000  Uiso   1.00
H507   H     0.48550   0.86441   0.08578   0.00000  Uiso   1.00
H508   H     0.39712   0.91457   0.49948   0.00000  Uiso   1.00
H509   H     0.51829   0.77328   0.38270   0.00000  Uiso   1.00
C510   C     0.54316   0.97877   0.24059   0.00000  Uiso   1.00
H511   H     0.57694   0.96260   0.23219   0.00000  Uiso   1.00
C512   C     0.54309   0.68807   0.24040   0.00000  Uiso   1.00
H513   H     0.57688   0.70432   0.23189   0.00000  Uiso   1.00
C514   C     0.49976   0.70920   0.25058   0.00000  Uiso   1.00
C515   C     0.45645   0.68797   0.26120   0.00000  Uiso   1.00
H516   H     0.42269   0.70417   0.26956   0.00000  Uiso   1.00
C517   C     0.45652   0.97865   0.26140   0.00000  Uiso   1.00
H518   H     0.42275   0.96237   0.26992   0.00000  Uiso   1.00
C519   C     0.49990   0.95752   0.25089   0.00000  Uiso   1.00
C520   C     0.65256   0.80958   0.21355   0.00000  Uiso   1.00
H521   H     0.64180   0.79179   0.18403   0.00000  Uiso   1.00
C522   C     0.36707   0.80898   0.21261   0.00000  Uiso   1.00
N523   N     0.38093   0.83334   0.25001   0.00000  Uiso   1.00
C524   C     0.34633   0.85712   0.28699   0.00000  Uiso   1.00
H525   H     0.35563   0.87653   0.31621   0.00000  Uiso   1.00
C526   C     0.63185   0.85706   0.28701   0.00000  Uiso   1.00
H527   H     0.60511   0.87625   0.31661   0.00000  Uiso   1.00
N528   N     0.61906   0.83331   0.25001   0.00000  Uiso   1.00
S529   S     0.40530   0.77955   0.15528   0.00000  Uiso   1.00
O530   O     0.37651   0.74463   0.14259   0.00000  Uiso   1.00
O531   O     0.41989   0.80797   0.10769   0.00000  Uiso   1.00
O532   O     0.45448   0.75762   0.16045   0.00000  Uiso   1.00
H533   H     0.47341   0.74781   0.12306   0.00000  Uiso   1.00
S534   S     0.60161   0.74548   0.39898   0.00000  Uiso   1.00
O535   O     0.65147   0.76294   0.38326   0.00000  Uiso   1.00
O536   O     0.59727   0.70925   0.43564   0.00000  Uiso   1.00
O537   O     0.59153   0.72890   0.34235   0.00000  Uiso   1.00
H538   H     0.61863   0.70994   0.32335   0.00000  Uiso   1.00
N539   N     0.38040   0.87255   0.41952   0.00000  Uiso   1.00
O540   O     0.36239   0.90970   0.42201   0.00000  Uiso   1.00
O541   O     0.35749   0.84085   0.40861   0.00000  Uiso   1.00
N542   N     0.47155   0.91810   0.03284   0.00000  Uiso   1.00
O543   O     0.43690   0.93978   0.06717   0.00000  Uiso   1.00
O544   O     0.51551   0.93073   0.02199   0.00000  Uiso   1.00
O545   O     0.79512   0.89442   0.25000   0.00000  Uiso   1.00
O546   O     0.87157   0.89441   0.25001   0.00000  Uiso   1.00
C547   C     0.83333   0.91332   0.25036   0.00000  Uiso   1.00
O548   O     0.77613   0.83333   0.32681   0.00000  Uiso   1.00
O549   O     0.85258   0.83332   0.32681   0.00000  Uiso   1.00
C550   C     0.80654   0.83295   0.35240   0.00000  Uiso   1.00
Zn551  Zn    0.78229   0.83334   0.25000   0.00000  Uiso   1.00
Zn552  Zn    0.88438   0.83333   0.25000   0.00000  Uiso   1.00
O553   O     0.79510   0.77226   0.25000   0.00000  Uiso   1.00
O554   O     0.87154   0.77225   0.25000   0.00000  Uiso   1.00
O555   O     0.81409   0.83335   0.17319   0.00000  Uiso   1.00
O556   O     0.89053   0.83334   0.17319   0.00000  Uiso   1.00
C557   C     0.83318   0.75336   0.25027   0.00000  Uiso   1.00
C558   C     0.86021   0.83332   0.14792   0.00000  Uiso   1.00
C559   C     0.92633   0.79376   0.00736   0.00000  Uiso   1.00
H560   H     0.94123   0.79408   0.08184   0.00000  Uiso   1.00
H561   H     0.95565   0.77249   0.48827   0.00000  Uiso   1.00
C562   C     0.87814   0.83031   0.08909   0.00000  Uiso   1.00
C563   C     0.75277   0.86561   0.43884   0.00000  Uiso   1.00
C564   C     0.75602   0.88963   0.48257   0.00000  Uiso   1.00
C565   C     0.79448   0.88457   0.00114   0.00000  Uiso   1.00
C566   C     0.82521   0.84913   0.48269   0.00000  Uiso   1.00
C567   C     0.82285   0.82580   0.43743   0.00000  Uiso   1.00
C568   C     0.85754   0.83550   0.00792   0.00000  Uiso   1.00
C569   C     0.89362   0.80521   0.48181   0.00000  Uiso   1.00
C570   C     0.89283   0.78450   0.43404   0.00000  Uiso   1.00
C571   C     0.85516   0.79259   0.41561   0.00000  Uiso   1.00
C572   C     0.85006   0.84669   0.06196   0.00000  Uiso   1.00
C573   C     0.91850   0.80631   0.06100   0.00000  Uiso   1.00
C574   C     0.79024   0.83754   0.41194   0.00000  Uiso   1.00
H575   H     0.81883   0.86441   0.08578   0.00000  Uiso   1.00
H576   H     0.73046   0.91457   0.49948   0.00000  Uiso   1.00
H577   H     0.85162   0.77328   0.38270   0.00000  Uiso   1.00
C578   C     0.87649   0.97877   0.24059   0.00000  Uiso   1.00
H579   H     0.91027   0.96260   0.23219   0.00000  Uiso   1.00
C580   C     0.87643   0.68807   0.24040   0.00000  Uiso   1.00
H581   H     0.91021   0.70432   0.23189   0.00000  Uiso   1.00
C582   C     0.83309   0.70920   0.25058   0.00000  Uiso   1.00
C583   C     0.78979   0.68797   0.26120   0.00000  Uiso   1.00
H584   H     0.75602   0.70417   0.26956   0.00000  Uiso   1.00
C585   C     0.78985   0.97865   0.26140   0.00000  Uiso   1.00
H586   H     0.75608   0.96237   0.26992   0.00000  Uiso   1.00
C587   C     0.83324   0.95752   0.25089   0.00000  Uiso   1.00
C588   C     0.98589   0.80958   0.21355   0.00000  Uiso   1.00
H589   H     0.97513   0.79179   0.18403   0.00000  Uiso   1.00
C590   C     0.70041   0.80898   0.21261   0.00000  Uiso   1.00
N591   N     0.71426   0.83334   0.25001   0.00000  Uiso   1.00
C592   C     0.67967   0.85712   0.28699   0.00000  Uiso   1.00
H593   H     0.68896   0.87653   0.31621   0.00000  Uiso   1.00
C594   C     0.96518   0.85706   0.28701   0.00000  Uiso   1.00
H595   H     0.93844   0.87625   0.31661   0.00000  Uiso   1.00
N596   N     0.95239   0.83331   0.25001   0.00000  Uiso   1.00
S597   S     0.73864   0.77955   0.15528   0.00000  Uiso   1.00
O598   O     0.70985   0.74463   0.14259   0.00000  Uiso   1.00
O599   O     0.75322   0.80797   0.10769   0.00000  Uiso   1.00
O600   O     0.78782   0.75762   0.16045   0.00000  Uiso   1.00
H601   H     0.80674   0.74781   0.12306   0.00000  Uiso   1.00
S602   S     0.93495   0.74548   0.39898   0.00000  Uiso   1.00
O603   O     0.98480   0.76294   0.38326   0.00000  Uiso   1.00
O604   O     0.93060   0.70925   0.43564   0.00000  Uiso   1.00
O605   O     0.92486   0.72890   0.34235   0.00000  Uiso   1.00
H606   H     0.95196   0.70994   0.32335   0.00000  Uiso   1.00
N607   N     0.71374   0.87255   0.41952   0.00000  Uiso   1.00
O608   O     0.69573   0.90970   0.42201   0.00000  Uiso   1.00
O609   O     0.69082   0.84085   0.40861   0.00000  Uiso   1.00
N610   N     0.80489   0.91810   0.03284   0.00000  Uiso   1.00
O611   O     0.77023   0.93978   0.06717   0.00000  Uiso   1.00
O612   O     0.84885   0.93073   0.02199   0.00000  Uiso   1.00
O613   O     0.12846   0.22775   0.75000   0.00000  Uiso   1.00
O614   O     0.20490   0.22774   0.75001   0.00000  Uiso   1.00
C615   C     0.16666   0.24665   0.75036   0.00000  Uiso   1.00
O616   O     0.10947   0.16666   0.82681   0.00000  Uiso   1.00
O617   O     0.18591   0.16665   0.82681   0.00000  Uiso   1.00
C618   C     0.13987   0.16629   0.85240   0.00000  Uiso   1.00
Zn619  Zn    0.11562   0.16667   0.75000   0.00000  Uiso   1.00
Zn620  Zn    0.21771   0.16666   0.75000   0.00000  Uiso   1.00
O621   O     0.12843   0.10559   0.75000   0.00000  Uiso   1.00
O622   O     0.20488   0.10558   0.75000   0.00000  Uiso   1.00
O623   O     0.14742   0.16668   0.67319   0.00000  Uiso   1.00
O624   O     0.22387   0.16667   0.67319   0.00000  Uiso   1.00
C625   C     0.16651   0.08669   0.75027   0.00000  Uiso   1.00
C626   C     0.19354   0.16666   0.64792   0.00000  Uiso   1.00
C627   C     0.25967   0.12710   0.50736   0.00000  Uiso   1.00
H628   H     0.27456   0.12741   0.58184   0.00000  Uiso   1.00
H629   H     0.28899   0.10582   0.98827   0.00000  Uiso   1.00
C630   C     0.21147   0.16364   0.58909   0.00000  Uiso   1.00
C631   C     0.08610   0.19895   0.93884   0.00000  Uiso   1.00
C632   C     0.08935   0.22297   0.98257   0.00000  Uiso   1.00
C633   C     0.12781   0.21790   0.50114   0.00000  Uiso   1.00
C634   C     0.15854   0.18246   0.98269   0.00000  Uiso   1.00
C635   C     0.15618   0.15913   0.93743   0.00000  Uiso   1.00
C636   C     0.19087   0.16883   0.50792   0.00000  Uiso   1.00
C637   C     0.22695   0.13854   0.98181   0.00000  Uiso   1.00
C638   C     0.22616   0.11784   0.93404   0.00000  Uiso   1.00
C639   C     0.18850   0.12592   0.91561   0.00000  Uiso   1.00
C640   C     0.18339   0.18002   0.56196   0.00000  Uiso   1.00
C641   C     0.25184   0.13965   0.56100   0.00000  Uiso   1.00
C642   C     0.12358   0.17088   0.91194   0.00000  Uiso   1.00
H643   H     0.15216   0.19774   0.58578   0.00000  Uiso   1.00
H644   H     0.06379   0.24790   0.99948   0.00000  Uiso   1.00
H645   H     0.18495   0.10661   0.88270   0.00000  Uiso   1.00
C646   C     0.20982   0.31210   0.74059   0.00000  Uiso   1.00
H647   H     0.24361   0.29593   0.73219   0.00000  Uiso   1.00
C648   C     0.20976   0.02140   0.74040   0.00000  Uiso   1.00
H649   H     0.24355   0.03765   0.73189   0.00000  Uiso   1.00
C650   C     0.16642   0.04253   0.75058   0.00000  Uiso   1.00
C651   C     0.12312   0.02130   0.76120   0.00000  Uiso   1.00
H652   H     0.08935   0.03751   0.76956   0.00000  Uiso   1.00
C653   C     0.12318   0.31198   0.76140   0.00000  Uiso   1.00
H654   H     0.08941   0.29571   0.76992   0.00000  Uiso   1.00
C655   C     0.16657   0.29085   0.75089   0.00000  Uiso   1.00
C656   C     0.31923   0.14292   0.71355   0.00000  Uiso   1.00
H657   H     0.30847   0.12512   0.68403   0.00000  Uiso   1.00
C658   C     0.03374   0.14232   0.71261   0.00000  Uiso   1.00
N659   N     0.04760   0.16668   0.75001   0.00000  Uiso   1.00
C660   C     0.01300   0.19045   0.78699   0.00000  Uiso   1.00
H661   H     0.02229   0.20986   0.81621   0.00000  Uiso   1.00
C662   C     0.29852   0.19040   0.78701   0.00000  Uiso   1.00
H663   H     0.27178   0.20958   0.81661   0.00000  Uiso   1.00
N664   N     0.28573   0.16665   0.75001   0.00000  Uiso   1.00
S665   S     0.07197   0.11288   0.65528   0.00000  Uiso   1.00
O666   O     0.04318   0.07796   0.64259   0.00000  Uiso   1.00
O667   O     0.08655   0.14130   0.60769   0.00000  Uiso   1.00
O668   O     0.12115   0.09095   0.66045   0.00000  Uiso   1.00
H669   H     0.14008   0.08115   0.62306   0.00000  Uiso   1.00
S670   S     0.26828   0.07881   0.89898   0.00000  Uiso   1.00
O671   O     0.31813   0.09627   0.88326   0.00000  Uiso   1.00
O672   O     0.26394   0.04259   0.93564   0.00000  Uiso   1.00
O673   O     0.25820   0.06224   0.84235   0.00000  Uiso   1.00
H674   H     0.28530   0.04328   0.82335   0.00000  Uiso   1.00
N675   N     0.04707   0.20588   0.91952   0.00000  Uiso   1.00
O676   O     0.02906   0.24303   0.92201   0.00000  Uiso   1.00
O677   O     0.02415   0.17418   0.90861   0.00000  Uiso   1.00
N678   N     0.13822   0.25143   0.53284   0.00000  Uiso   1.00
O679   O     0.10357   0.27311   0.56717   0.00000  Uiso   1.00
O680   O     0.18218   0.26406   0.52199   0.00000  Uiso   1.00
O681   O     0.46179   0.22775   0.75000   0.00000  Uiso   1.00
O682   O     0.53823   0.22774   0.75001   0.00000  Uiso   1.00
C683   C     0.49999   0.24665   0.75036   0.00000  Uiso   1.00
O684   O     0.44280   0.16666   0.82681   0.00000  Uiso   1.00
O685   O     0.51924   0.16665   0.82681   0.00000  Uiso   1.00
C686   C     0.47320   0.16629   0.85240   0.00000  Uiso   1.00
Zn687  Zn    0.44896   0.16667   0.75000   0.00000  Uiso   1.00
Zn688  Zn    0.55104   0.16666   0.75000   0.00000  Uiso   1.00
O689   O     0.46177   0.10559   0.75000   0.00000  Uiso   1.00
O690   O     0.53821   0.10558   0.75000   0.00000  Uiso   1.00
O691   O     0.48076   0.16668   0.67319   0.00000  Uiso   1.00
O692   O     0.55720   0.16667   0.67319   0.00000  Uiso   1.00
C693   C     0.49984   0.08669   0.75027   0.00000  Uiso   1.00
C694   C     0.52687   0.16666   0.64792   0.00000  Uiso   1.00
C695   C     0.59300   0.12710   0.50736   0.00000  Uiso   1.00
H696   H     0.60790   0.12741   0.58184   0.00000  Uiso   1.00
H697   H     0.62232   0.10582   0.98827   0.00000  Uiso   1.00
C698   C     0.54480   0.16364   0.58909   0.00000  Uiso   1.00
C699   C     0.41943   0.19895   0.93884   0.00000  Uiso   1.00
C700   C     0.42269   0.22297   0.98257   0.00000  Uiso   1.00
C701   C     0.46114   0.21790   0.50114   0.00000  Uiso   1.00
C702   C     0.49188   0.18246   0.98269   0.00000  Uiso   1.00
C703   C     0.48952   0.15913   0.93743   0.00000  Uiso   1.00
C704   C     0.52420   0.16883   0.50792   0.00000  Uiso   1.00
C705   C     0.56029   0.13854   0.98181   0.00000  Uiso   1.00
C706   C     0.55950   0.11784   0.93404   0.00000  Uiso   1.00
C707   C     0.52183   0.12592   0.91561   0.00000  Uiso   1.00
C708   C     0.51672   0.18002   0.56196   0.00000  Uiso   1.00
C709   C     0.58517   0.13965   0.56100   0.00000  Uiso   1.00
C710   C     0.45691   0.17088   0.91194   0.00000  Uiso   1.00
H711   H     0.48550   0.19774   0.58578   0.00000  Uiso   1.00
H712   H     0.39712   0.24790   0.99948   0.00000  Uiso   1.00
H713   H     0.51829   0.10661   0.88270   0.00000  Uiso   1.00
C714   C     0.54316   0.31210   0.74059   0.00000  Uiso   1.00
H715   H     0.57694   0.29593   0.73219   0.00000  Uiso   1.00
C716   C     0.54309   0.02140   0.74040   0.00000  Uiso   1.00
H717   H     0.57688   0.03765   0.73189   0.00000  Uiso   1.00
C718   C     0.49976   0.04253   0.75058   0.00000  Uiso   1.00
C719   C     0.45645   0.02130   0.76120   0.00000  Uiso   1.00
H720   H     0.42269   0.03751   0.76956   0.00000  Uiso   1.00
C721   C     0.45652   0.31198   0.76140   0.00000  Uiso   1.00
H722   H     0.42275   0.29571   0.76992   0.00000  Uiso   1.00
C723   C     0.49990   0.29085   0.75089   0.00000  Uiso   1.00
C724   C     0.65256   0.14292   0.71355   0.00000  Uiso   1.00
H725   H     0.64180   0.12512   0.68403   0.00000  Uiso   1.00
C726   C     0.36707   0.14232   0.71261   0.00000  Uiso   1.00
N727   N     0.38093   0.16668   0.75001   0.00000  Uiso   1.00
C728   C     0.34633   0.19045   0.78699   0.00000  Uiso   1.00
H729   H     0.35563   0.20986   0.81621   0.00000  Uiso   1.00
C730   C     0.63185   0.19040   0.78701   0.00000  Uiso   1.00
H731   H     0.60511   0.20958   0.81661   0.00000  Uiso   1.00
N732   N     0.61906   0.16665   0.75001   0.00000  Uiso   1.00
S733   S     0.40530   0.11288   0.65528   0.00000  Uiso   1.00
O734   O     0.37651   0.07796   0.64259   0.00000  Uiso   1.00
O735   O     0.41989   0.14130   0.60769   0.00000  Uiso   1.00
O736   O     0.45448   0.09095   0.66045   0.00000  Uiso   1.00
H737   H     0.47341   0.08115   0.62306   0.00000  Uiso   1.00
S738   S     0.60161   0.07881   0.89898   0.00000  Uiso   1.00
O739   O     0.65147   0.09627   0.88326   0.00000  Uiso   1.00
O740   O     0.59727   0.04259   0.93564   0.00000  Uiso   1.00
O741   O     0.59153   0.06224   0.84235   0.00000  Uiso   1.00
H742   H     0.61863   0.04328   0.82335   0.00000  Uiso   1.00
N743   N     0.38040   0.20588   0.91952   0.00000  Uiso   1.00
O744   O     0.36239   0.24303   0.92201   0.00000  Uiso   1.00
O745   O     0.35749   0.17418   0.90861   0.00000  Uiso   1.00
N746   N     0.47155   0.25143   0.53284   0.00000  Uiso   1.00
O747   O     0.43690   0.27311   0.56717   0.00000  Uiso   1.00
O748   O     0.51551   0.26406   0.52199   0.00000  Uiso   1.00
O749   O     0.79512   0.22775   0.75000   0.00000  Uiso   1.00
O750   O     0.87157   0.22774   0.75001   0.00000  Uiso   1.00
C751   C     0.83333   0.24665   0.75036   0.00000  Uiso   1.00
O752   O     0.77613   0.16666   0.82681   0.00000  Uiso   1.00
O753   O     0.85258   0.16665   0.82681   0.00000  Uiso   1.00
C754   C     0.80654   0.16629   0.85240   0.00000  Uiso   1.00
Zn755  Zn    0.78229   0.16667   0.75000   0.00000  Uiso   1.00
Zn756  Zn    0.88438   0.16666   0.75000   0.00000  Uiso   1.00
O757   O     0.79510   0.10559   0.75000   0.00000  Uiso   1.00
O758   O     0.87154   0.10558   0.75000   0.00000  Uiso   1.00
O759   O     0.81409   0.16668   0.67319   0.00000  Uiso   1.00
O760   O     0.89053   0.16667   0.67319   0.00000  Uiso   1.00
C761   C     0.83318   0.08669   0.75027   0.00000  Uiso   1.00
C762   C     0.86021   0.16666   0.64792   0.00000  Uiso   1.00
C763   C     0.92633   0.12710   0.50736   0.00000  Uiso   1.00
H764   H     0.94123   0.12741   0.58184   0.00000  Uiso   1.00
H765   H     0.95565   0.10582   0.98827   0.00000  Uiso   1.00
C766   C     0.87814   0.16364   0.58909   0.00000  Uiso   1.00
C767   C     0.75277   0.19895   0.93884   0.00000  Uiso   1.00
C768   C     0.75602   0.22297   0.98257   0.00000  Uiso   1.00
C769   C     0.79448   0.21790   0.50114   0.00000  Uiso   1.00
C770   C     0.82521   0.18246   0.98269   0.00000  Uiso   1.00
C771   C     0.82285   0.15913   0.93743   0.00000  Uiso   1.00
C772   C     0.85754   0.16883   0.50792   0.00000  Uiso   1.00
C773   C     0.89362   0.13854   0.98181   0.00000  Uiso   1.00
C774   C     0.89283   0.11784   0.93404   0.00000  Uiso   1.00
C775   C     0.85516   0.12592   0.91561   0.00000  Uiso   1.00
C776   C     0.85006   0.18002   0.56196   0.00000  Uiso   1.00
C777   C     0.91850   0.13965   0.56100   0.00000  Uiso   1.00
C778   C     0.79024   0.17088   0.91194   0.00000  Uiso   1.00
H779   H     0.81883   0.19774   0.58578   0.00000  Uiso   1.00
H780   H     0.73046   0.24790   0.99948   0.00000  Uiso   1.00
H781   H     0.85162   0.10661   0.88270   0.00000  Uiso   1.00
C782   C     0.87649   0.31210   0.74059   0.00000  Uiso   1.00
H783   H     0.91027   0.29593   0.73219   0.00000  Uiso   1.00
C784   C     0.87643   0.02140   0.74040   0.00000  Uiso   1.00
H785   H     0.91021   0.03765   0.73189   0.00000  Uiso   1.00
C786   C     0.83309   0.04253   0.75058   0.00000  Uiso   1.00
C787   C     0.78979   0.02130   0.76120   0.00000  Uiso   1.00
H788   H     0.75602   0.03751   0.76956   0.00000  Uiso   1.00
C789   C     0.78985   0.31198   0.76140   0.00000  Uiso   1.00
H790   H     0.75608   0.29571   0.76992   0.00000  Uiso   1.00
C791   C     0.83324   0.29085   0.75089   0.00000  Uiso   1.00
C792   C     0.98589   0.14292   0.71355   0.00000  Uiso   1.00
H793   H     0.97513   0.12512   0.68403   0.00000  Uiso   1.00
C794   C     0.70041   0.14232   0.71261   0.00000  Uiso   1.00
N795   N     0.71426   0.16668   0.75001   0.00000  Uiso   1.00
C796   C     0.67967   0.19045   0.78699   0.00000  Uiso   1.00
H797   H     0.68896   0.20986   0.81621   0.00000  Uiso   1.00
C798   C     0.96518   0.19040   0.78701   0.00000  Uiso   1.00
H799   H     0.93844   0.20958   0.81661   0.00000  Uiso   1.00
N800   N     0.95239   0.16665   0.75001   0.00000  Uiso   1.00
S801   S     0.73864   0.11288   0.65528   0.00000  Uiso   1.00
O802   O     0.70985   0.07796   0.64259   0.00000  Uiso   1.00
O803   O     0.75322   0.14130   0.60769   0.00000  Uiso   1.00
O804   O     0.78782   0.09095   0.66045   0.00000  Uiso   1.00
H805   H     0.80674   0.08115   0.62306   0.00000  Uiso   1.00
S806   S     0.93495   0.07881   0.89898   0.00000  Uiso   1.00
O807   O     0.98480   0.09627   0.88326   0.00000  Uiso   1.00
O808   O     0.93060   0.04259   0.93564   0.00000  Uiso   1.00
O809   O     0.92486   0.06224   0.84235   0.00000  Uiso   1.00
H810   H     0.95196   0.04328   0.82335   0.00000  Uiso   1.00
N811   N     0.71374   0.20588   0.91952   0.00000  Uiso   1.00
O812   O     0.69573   0.24303   0.92201   0.00000  Uiso   1.00
O813   O     0.69082   0.17418   0.90861   0.00000  Uiso   1.00
N814   N     0.80489   0.25143   0.53284   0.00000  Uiso   1.00
O815   O     0.77023   0.27311   0.56717   0.00000  Uiso   1.00
O816   O     0.84885   0.26406   0.52199   0.00000  Uiso   1.00
O817   O     0.12846   0.56108   0.75000   0.00000  Uiso   1.00
O818   O     0.20490   0.56107   0.75001   0.00000  Uiso   1.00
C819   C     0.16666   0.57999   0.75036   0.00000  Uiso   1.00
O820   O     0.10947   0.50000   0.82681   0.00000  Uiso   1.00
O821   O     0.18591   0.49999   0.82681   0.00000  Uiso   1.00
C822   C     0.13987   0.49962   0.85240   0.00000  Uiso   1.00
Zn823  Zn    0.11562   0.50001   0.75000   0.00000  Uiso   1.00
Zn824  Zn    0.21771   0.49999   0.75000   0.00000  Uiso   1.00
O825   O     0.12843   0.43893   0.75000   0.00000  Uiso   1.00
O826   O     0.20488   0.43892   0.75000   0.00000  Uiso   1.00
O827   O     0.14742   0.50001   0.67319   0.00000  Uiso   1.00
O828   O     0.22387   0.50000   0.67319   0.00000  Uiso   1.00
C829   C     0.16651   0.42003   0.75027   0.00000  Uiso   1.00
C830   C     0.19354   0.49999   0.64792   0.00000  Uiso   1.00
C831   C     0.25967   0.46043   0.50736   0.00000  Uiso   1.00
H832   H     0.27456   0.46075   0.58184   0.00000  Uiso   1.00
H833   H     0.28899   0.43916   0.98827   0.00000  Uiso   1.00
C834   C     0.21147   0.49697   0.58909   0.00000  Uiso   1.00
C835   C     0.08610   0.53228   0.93884   0.00000  Uiso   1.00
C836   C     0.08935   0.55630   0.98257   0.00000  Uiso   1.00
C837   C     0.12781   0.55123   0.50114   0.00000  Uiso   1.00
C838   C     0.15854   0.51579   0.98269   0.00000  Uiso   1.00
C839   C     0.15618   0.49247   0.93743   0.00000  Uiso   1.00
C840   C     0.19087   0.50217   0.50792   0.00000  Uiso   1.00
C841   C     0.22695   0.47188   0.98181   0.00000  Uiso   1.00
C842   C     0.22616   0.45117   0.93404   0.00000  Uiso   1.00
C843   C     0.18850   0.45925   0.91561   0.00000  Uiso   1.00
C844   C     0.18339   0.51335   0.56196   0.00000  Uiso   1.00
C845   C     0.25184   0.47298   0.56100   0.00000  Uiso   1.00
C846   C     0.12358   0.50421   0.91194   0.00000  Uiso   1.00
H847   H     0.15216   0.53108   0.58578   0.00000  Uiso   1.00
H848   H     0.06379   0.58124   0.99948   0.00000  Uiso   1.00
H849   H     0.18495   0.43994   0.88270   0.00000  Uiso   1.00
C850   C     0.20982   0.64544   0.74059   0.00000  Uiso   1.00
H851   H     0.24361   0.62926   0.73219   0.00000  Uiso   1.00
C852   C     0.20976   0.35473   0.74040   0.00000  Uiso   1.00
H853   H     0.24355   0.37098   0.73189   0.00000  Uiso   1.00
C854   C     0.16642   0.37586   0.75058   0.00000  Uiso   1.00
C855   C     0.12312   0.35463   0.76120   0.00000  Uiso   1.00
H856   H     0.08935   0.37084   0.76956   0.00000  Uiso   1.00
C857   C     0.12318   0.64532   0.76140   0.00000  Uiso   1.00
H858   H     0.08941   0.62904   0.76992   0.00000  Uiso   1.00
C859   C     0.16657   0.62418   0.75089   0.00000  Uiso   1.00
C860   C     0.31923   0.47625   0.71355   0.00000  Uiso   1.00
H861   H     0.30847   0.45845   0.68403   0.00000  Uiso   1.00
C862   C     0.03374   0.47565   0.71261   0.00000  Uiso   1.00
N863   N     0.04760   0.50001   0.75001   0.00000  Uiso   1.00
C864   C     0.01300   0.52378   0.78699   0.00000  Uiso   1.00
H865   H     0.02229   0.54319   0.81621   0.00000  Uiso   1.00
C866   C     0.29852   0.52373   0.78701   0.00000  Uiso   1.00
H867   H     0.27178   0.54291   0.81661   0.00000  Uiso   1.00
N868   N     0.28573   0.49998   0.75001   0.00000  Uiso   1.00
S869   S     0.07197   0.44622   0.65528   0.00000  Uiso   1.00
O870   O     0.04318   0.41130   0.64259   0.00000  Uiso   1.00
O871   O     0.08655   0.47464   0.60769   0.00000  Uiso   1.00
O872   O     0.12115   0.42429   0.66045   0.00000  Uiso   1.00
H873   H     0.14008   0.41448   0.62306   0.00000  Uiso   1.00
S874   S     0.26828   0.41214   0.89898   0.00000  Uiso   1.00
O875   O     0.31813   0.42961   0.88326   0.00000  Uiso   1.00
O876   O     0.26394   0.37592   0.93564   0.00000  Uiso   1.00
O877   O     0.25820   0.39557   0.84235   0.00000  Uiso   1.00
H878   H     0.28530   0.37661   0.82335   0.00000  Uiso   1.00
N879   N     0.04707   0.53922   0.91952   0.00000  Uiso   1.00
O880   O     0.02906   0.57637   0.92201   0.00000  Uiso   1.00
O881   O     0.02415   0.50751   0.90861   0.00000  Uiso   1.00
N882   N     0.13822   0.58476   0.53284   0.00000  Uiso   1.00
O883   O     0.10357   0.60645   0.56717   0.00000  Uiso   1.00
O884   O     0.18218   0.59740   0.52199   0.00000  Uiso   1.00
O885   O     0.46179   0.56108   0.75000   0.00000  Uiso   1.00
O886   O     0.53823   0.56107   0.75001   0.00000  Uiso   1.00
C887   C     0.49999   0.57999   0.75036   0.00000  Uiso   1.00
O888   O     0.44280   0.50000   0.82681   0.00000  Uiso   1.00
O889   O     0.51924   0.49999   0.82681   0.00000  Uiso   1.00
C890   C     0.47320   0.49962   0.85240   0.00000  Uiso   1.00
Zn891  Zn    0.44896   0.50001   0.75000   0.00000  Uiso   1.00
Zn892  Zn    0.55104   0.49999   0.75000   0.00000  Uiso   1.00
O893   O     0.46177   0.43893   0.75000   0.00000  Uiso   1.00
O894   O     0.53821   0.43892   0.75000   0.00000  Uiso   1.00
O895   O     0.48076   0.50001   0.67319   0.00000  Uiso   1.00
O896   O     0.55720   0.50000   0.67319   0.00000  Uiso   1.00
C897   C     0.49984   0.42003   0.75027   0.00000  Uiso   1.00
C898   C     0.52687   0.49999   0.64792   0.00000  Uiso   1.00
C899   C     0.59300   0.46043   0.50736   0.00000  Uiso   1.00
H900   H     0.60790   0.46075   0.58184   0.00000  Uiso   1.00
H901   H     0.62232   0.43916   0.98827   0.00000  Uiso   1.00
C902   C     0.54480   0.49697   0.58909   0.00000  Uiso   1.00
C903   C     0.41943   0.53228   0.93884   0.00000  Uiso   1.00
C904   C     0.42269   0.55630   0.98257   0.00000  Uiso   1.00
C905   C     0.46114   0.55123   0.50114   0.00000  Uiso   1.00
C906   C     0.49188   0.51579   0.98269   0.00000  Uiso   1.00
C907   C     0.48952   0.49247   0.93743   0.00000  Uiso   1.00
C908   C     0.52420   0.50217   0.50792   0.00000  Uiso   1.00
C909   C     0.56029   0.47188   0.98181   0.00000  Uiso   1.00
C910   C     0.55950   0.45117   0.93404   0.00000  Uiso   1.00
C911   C     0.52183   0.45925   0.91561   0.00000  Uiso   1.00
C912   C     0.51672   0.51335   0.56196   0.00000  Uiso   1.00
C913   C     0.58517   0.47298   0.56100   0.00000  Uiso   1.00
C914   C     0.45691   0.50421   0.91194   0.00000  Uiso   1.00
H915   H     0.48550   0.53108   0.58578   0.00000  Uiso   1.00
H916   H     0.39712   0.58124   0.99948   0.00000  Uiso   1.00
H917   H     0.51829   0.43994   0.88270   0.00000  Uiso   1.00
C918   C     0.54316   0.64544   0.74059   0.00000  Uiso   1.00
H919   H     0.57694   0.62926   0.73219   0.00000  Uiso   1.00
C920   C     0.54309   0.35473   0.74040   0.00000  Uiso   1.00
H921   H     0.57688   0.37098   0.73189   0.00000  Uiso   1.00
C922   C     0.49976   0.37586   0.75058   0.00000  Uiso   1.00
C923   C     0.45645   0.35463   0.76120   0.00000  Uiso   1.00
H924   H     0.42269   0.37084   0.76956   0.00000  Uiso   1.00
C925   C     0.45652   0.64532   0.76140   0.00000  Uiso   1.00
H926   H     0.42275   0.62904   0.76992   0.00000  Uiso   1.00
C927   C     0.49990   0.62418   0.75089   0.00000  Uiso   1.00
C928   C     0.65256   0.47625   0.71355   0.00000  Uiso   1.00
H929   H     0.64180   0.45845   0.68403   0.00000  Uiso   1.00
C930   C     0.36707   0.47565   0.71261   0.00000  Uiso   1.00
N931   N     0.38093   0.50001   0.75001   0.00000  Uiso   1.00
C932   C     0.34633   0.52378   0.78699   0.00000  Uiso   1.00
H933   H     0.35563   0.54319   0.81621   0.00000  Uiso   1.00
C934   C     0.63185   0.52373   0.78701   0.00000  Uiso   1.00
H935   H     0.60511   0.54291   0.81661   0.00000  Uiso   1.00
N936   N     0.61906   0.49998   0.75001   0.00000  Uiso   1.00
S937   S     0.40530   0.44622   0.65528   0.00000  Uiso   1.00
O938   O     0.37651   0.41130   0.64259   0.00000  Uiso   1.00
O939   O     0.41989   0.47464   0.60769   0.00000  Uiso   1.00
O940   O     0.45448   0.42429   0.66045   0.00000  Uiso   1.00
H941   H     0.47341   0.41448   0.62306   0.00000  Uiso   1.00
S942   S     0.60161   0.41214   0.89898   0.00000  Uiso   1.00
O943   O     0.65147   0.42961   0.88326   0.00000  Uiso   1.00
O944   O     0.59727   0.37592   0.93564   0.00000  Uiso   1.00
O945   O     0.59153   0.39557   0.84235   0.00000  Uiso   1.00
H946   H     0.61863   0.37661   0.82335   0.00000  Uiso   1.00
N947   N     0.38040   0.53922   0.91952   0.00000  Uiso   1.00
O948   O     0.36239   0.57637   0.92201   0.00000  Uiso   1.00
O949   O     0.35749   0.50751   0.90861   0.00000  Uiso   1.00
N950   N     0.47155   0.58476   0.53284   0.00000  Uiso   1.00
O951   O     0.43690   0.60645   0.56717   0.00000  Uiso   1.00
O952   O     0.51551   0.59740   0.52199   0.00000  Uiso   1.00
O953   O     0.79512   0.56108   0.75000   0.00000  Uiso   1.00
O954   O     0.87157   0.56107   0.75001   0.00000  Uiso   1.00
C955   C     0.83333   0.57999   0.75036   0.00000  Uiso   1.00
O956   O     0.77613   0.50000   0.82681   0.00000  Uiso   1.00
O957   O     0.85258   0.49999   0.82681   0.00000  Uiso   1.00
C958   C     0.80654   0.49962   0.85240   0.00000  Uiso   1.00
Zn959  Zn    0.78229   0.50001   0.75000   0.00000  Uiso   1.00
Zn960  Zn    0.88438   0.49999   0.75000   0.00000  Uiso   1.00
O961   O     0.79510   0.43893   0.75000   0.00000  Uiso   1.00
O962   O     0.87154   0.43892   0.75000   0.00000  Uiso   1.00
O963   O     0.81409   0.50001   0.67319   0.00000  Uiso   1.00
O964   O     0.89053   0.50000   0.67319   0.00000  Uiso   1.00
C965   C     0.83318   0.42003   0.75027   0.00000  Uiso   1.00
C966   C     0.86021   0.49999   0.64792   0.00000  Uiso   1.00
C967   C     0.92633   0.46043   0.50736   0.00000  Uiso   1.00
H968   H     0.94123   0.46075   0.58184   0.00000  Uiso   1.00
H969   H     0.95565   0.43916   0.98827   0.00000  Uiso   1.00
C970   C     0.87814   0.49697   0.58909   0.00000  Uiso   1.00
C971   C     0.75277   0.53228   0.93884   0.00000  Uiso   1.00
C972   C     0.75602   0.55630   0.98257   0.00000  Uiso   1.00
C973   C     0.79448   0.55123   0.50114   0.00000  Uiso   1.00
C974   C     0.82521   0.51579   0.98269   0.00000  Uiso   1.00
C975   C     0.82285   0.49247   0.93743   0.00000  Uiso   1.00
C976   C     0.85754   0.50217   0.50792   0.00000  Uiso   1.00
C977   C     0.89362   0.47188   0.98181   0.00000  Uiso   1.00
C978   C     0.89283   0.45117   0.93404   0.00000  Uiso   1.00
C979   C     0.85516   0.45925   0.91561   0.00000  Uiso   1.00
C980   C     0.85006   0.51335   0.56196   0.00000  Uiso   1.00
C981   C     0.91850   0.47298   0.56100   0.00000  Uiso   1.00
C982   C     0.79024   0.50421   0.91194   0.00000  Uiso   1.00
H983   H     0.81883   0.53108   0.58578   0.00000  Uiso   1.00
H984   H     0.73046   0.58124   0.99948   0.00000  Uiso   1.00
H985   H     0.85162   0.43994   0.88270   0.00000  Uiso   1.00
C986   C     0.87649   0.64544   0.74059   0.00000  Uiso   1.00
H987   H     0.91027   0.62926   0.73219   0.00000  Uiso   1.00
C988   C     0.87643   0.35473   0.74040   0.00000  Uiso   1.00
H989   H     0.91021   0.37098   0.73189   0.00000  Uiso   1.00
C990   C     0.83309   0.37586   0.75058   0.00000  Uiso   1.00
C991   C     0.78979   0.35463   0.76120   0.00000  Uiso   1.00
H992   H     0.75602   0.37084   0.76956   0.00000  Uiso   1.00
C993   C     0.78985   0.64532   0.76140   0.00000  Uiso   1.00
H994   H     0.75608   0.62904   0.76992   0.00000  Uiso   1.00
C995   C     0.83324   0.62418   0.75089   0.00000  Uiso   1.00
C996   C     0.98589   0.47625   0.71355   0.00000  Uiso   1.00
H997   H     0.97513   0.45845   0.68403   0.00000  Uiso   1.00
C998   C     0.70041   0.47565   0.71261   0.00000  Uiso   1.00
N999   N     0.71426   0.50001   0.75001   0.00000  Uiso   1.00
C1000  C     0.67967   0.52378   0.78699   0.00000  Uiso   1.00
H1001  H     0.68896   0.54319   0.81621   0.00000  Uiso   1.00
C1002  C     0.96518   0.52373   0.78701   0.00000  Uiso   1.00
H1003  H     0.93844   0.54291   0.81661   0.00000  Uiso   1.00
N1004  N     0.95239   0.49998   0.75001   0.00000  Uiso   1.00
S1005  S     0.73864   0.44622   0.65528   0.00000  Uiso   1.00
O1006  O     0.70985   0.41130   0.64259   0.00000  Uiso   1.00
O1007  O     0.75322   0.47464   0.60769   0.00000  Uiso   1.00
O1008  O     0.78782   0.42429   0.66045   0.00000  Uiso   1.00
H1009  H     0.80674   0.41448   0.62306   0.00000  Uiso   1.00
S1010  S     0.93495   0.41214   0.89898   0.00000  Uiso   1.00
O1011  O     0.98480   0.42961   0.88326   0.00000  Uiso   1.00
O1012  O     0.93060   0.37592   0.93564   0.00000  Uiso   1.00
O1013  O     0.92486   0.39557   0.84235   0.00000  Uiso   1.00
H1014  H     0.95196   0.37661   0.82335   0.00000  Uiso   1.00
N1015  N     0.71374   0.53922   0.91952   0.00000  Uiso   1.00
O1016  O     0.69573   0.57637   0.92201   0.00000  Uiso   1.00
O1017  O     0.69082   0.50751   0.90861   0.00000  Uiso   1.00
N1018  N     0.80489   0.58476   0.53284   0.00000  Uiso   1.00
O1019  O     0.77023   0.60645   0.56717   0.00000  Uiso   1.00
O1020  O     0.84885   0.59740   0.52199   0.00000  Uiso   1.00
O1021  O     0.12846   0.89442   0.75000   0.00000  Uiso   1.00
O1022  O     0.20490   0.89441   0.75001   0.00000  Uiso   1.00
C1023  C     0.16666   0.91332   0.75036   0.00000  Uiso   1.00
O1024  O     0.10947   0.83333   0.82681   0.00000  Uiso   1.00
O1025  O     0.18591   0.83332   0.82681   0.00000  Uiso   1.00
C1026  C     0.13987   0.83295   0.85240   0.00000  Uiso   1.00
Zn1027 Zn    0.11562   0.83334   0.75000   0.00000  Uiso   1.00
Zn1028 Zn    0.21771   0.83333   0.75000   0.00000  Uiso   1.00
O1029  O     0.12843   0.77226   0.75000   0.00000  Uiso   1.00
O1030  O     0.20488   0.77225   0.75000   0.00000  Uiso   1.00
O1031  O     0.14742   0.83335   0.67319   0.00000  Uiso   1.00
O1032  O     0.22387   0.83334   0.67319   0.00000  Uiso   1.00
C1033  C     0.16651   0.75336   0.75027   0.00000  Uiso   1.00
C1034  C     0.19354   0.83332   0.64792   0.00000  Uiso   1.00
C1035  C     0.25967   0.79376   0.50736   0.00000  Uiso   1.00
H1036  H     0.27456   0.79408   0.58184   0.00000  Uiso   1.00
H1037  H     0.28899   0.77249   0.98827   0.00000  Uiso   1.00
C1038  C     0.21147   0.83031   0.58909   0.00000  Uiso   1.00
C1039  C     0.08610   0.86561   0.93884   0.00000  Uiso   1.00
C1040  C     0.08935   0.88963   0.98257   0.00000  Uiso   1.00
C1041  C     0.12781   0.88457   0.50114   0.00000  Uiso   1.00
C1042  C     0.15854   0.84913   0.98269   0.00000  Uiso   1.00
C1043  C     0.15618   0.82580   0.93743   0.00000  Uiso   1.00
C1044  C     0.19087   0.83550   0.50792   0.00000  Uiso   1.00
C1045  C     0.22695   0.80521   0.98181   0.00000  Uiso   1.00
C1046  C     0.22616   0.78450   0.93404   0.00000  Uiso   1.00
C1047  C     0.18850   0.79259   0.91561   0.00000  Uiso   1.00
C1048  C     0.18339   0.84669   0.56196   0.00000  Uiso   1.00
C1049  C     0.25184   0.80631   0.56100   0.00000  Uiso   1.00
C1050  C     0.12358   0.83754   0.91194   0.00000  Uiso   1.00
H1051  H     0.15216   0.86441   0.58578   0.00000  Uiso   1.00
H1052  H     0.06379   0.91457   0.99948   0.00000  Uiso   1.00
H1053  H     0.18495   0.77328   0.88270   0.00000  Uiso   1.00
C1054  C     0.20982   0.97877   0.74059   0.00000  Uiso   1.00
H1055  H     0.24361   0.96260   0.73219   0.00000  Uiso   1.00
C1056  C     0.20976   0.68807   0.74040   0.00000  Uiso   1.00
H1057  H     0.24355   0.70432   0.73189   0.00000  Uiso   1.00
C1058  C     0.16642   0.70920   0.75058   0.00000  Uiso   1.00
C1059  C     0.12312   0.68797   0.76120   0.00000  Uiso   1.00
H1060  H     0.08935   0.70417   0.76956   0.00000  Uiso   1.00
C1061  C     0.12318   0.97865   0.76140   0.00000  Uiso   1.00
H1062  H     0.08941   0.96237   0.76992   0.00000  Uiso   1.00
C1063  C     0.16657   0.95752   0.75089   0.00000  Uiso   1.00
C1064  C     0.31923   0.80958   0.71355   0.00000  Uiso   1.00
H1065  H     0.30847   0.79179   0.68403   0.00000  Uiso   1.00
C1066  C     0.03374   0.80898   0.71261   0.00000  Uiso   1.00
N1067  N     0.04760   0.83334   0.75001   0.00000  Uiso   1.00
C1068  C     0.01300   0.85712   0.78699   0.00000  Uiso   1.00
H1069  H     0.02229   0.87653   0.81621   0.00000  Uiso   1.00
C1070  C     0.29852   0.85706   0.78701   0.00000  Uiso   1.00
H1071  H     0.27178   0.87625   0.81661   0.00000  Uiso   1.00
N1072  N     0.28573   0.83331   0.75001   0.00000  Uiso   1.00
S1073  S     0.07197   0.77955   0.65528   0.00000  Uiso   1.00
O1074  O     0.04318   0.74463   0.64259   0.00000  Uiso   1.00
O1075  O     0.08655   0.80797   0.60769   0.00000  Uiso   1.00
O1076  O     0.12115   0.75762   0.66045   0.00000  Uiso   1.00
H1077  H     0.14008   0.74781   0.62306   0.00000  Uiso   1.00
S1078  S     0.26828   0.74548   0.89898   0.00000  Uiso   1.00
O1079  O     0.31813   0.76294   0.88326   0.00000  Uiso   1.00
O1080  O     0.26394   0.70925   0.93564   0.00000  Uiso   1.00
O1081  O     0.25820   0.72890   0.84235   0.00000  Uiso   1.00
H1082  H     0.28530   0.70994   0.82335   0.00000  Uiso   1.00
N1083  N     0.04707   0.87255   0.91952   0.00000  Uiso   1.00
O1084  O     0.02906   0.90970   0.92201   0.00000  Uiso   1.00
O1085  O     0.02415   0.84085   0.90861   0.00000  Uiso   1.00
N1086  N     0.13822   0.91810   0.53284   0.00000  Uiso   1.00
O1087  O     0.10357   0.93978   0.56717   0.00000  Uiso   1.00
O1088  O     0.18218   0.93073   0.52199   0.00000  Uiso   1.00
O1089  O     0.46179   0.89442   0.75000   0.00000  Uiso   1.00
O1090  O     0.53823   0.89441   0.75001   0.00000  Uiso   1.00
C1091  C     0.49999   0.91332   0.75036   0.00000  Uiso   1.00
O1092  O     0.44280   0.83333   0.82681   0.00000  Uiso   1.00
O1093  O     0.51924   0.83332   0.82681   0.00000  Uiso   1.00
C1094  C     0.47320   0.83295   0.85240   0.00000  Uiso   1.00
Zn1095 Zn    0.44896   0.83334   0.75000   0.00000  Uiso   1.00
Zn1096 Zn    0.55104   0.83333   0.75000   0.00000  Uiso   1.00
O1097  O     0.46177   0.77226   0.75000   0.00000  Uiso   1.00
O1098  O     0.53821   0.77225   0.75000   0.00000  Uiso   1.00
O1099  O     0.48076   0.83335   0.67319   0.00000  Uiso   1.00
O1100  O     0.55720   0.83334   0.67319   0.00000  Uiso   1.00
C1101  C     0.49984   0.75336   0.75027   0.00000  Uiso   1.00
C1102  C     0.52687   0.83332   0.64792   0.00000  Uiso   1.00
C1103  C     0.59300   0.79376   0.50736   0.00000  Uiso   1.00
H1104  H     0.60790   0.79408   0.58184   0.00000  Uiso   1.00
H1105  H     0.62232   0.77249   0.98827   0.00000  Uiso   1.00
C1106  C     0.54480   0.83031   0.58909   0.00000  Uiso   1.00
C1107  C     0.41943   0.86561   0.93884   0.00000  Uiso   1.00
C1108  C     0.42269   0.88963   0.98257   0.00000  Uiso   1.00
C1109  C     0.46114   0.88457   0.50114   0.00000  Uiso   1.00
C1110  C     0.49188   0.84913   0.98269   0.00000  Uiso   1.00
C1111  C     0.48952   0.82580   0.93743   0.00000  Uiso   1.00
C1112  C     0.52420   0.83550   0.50792   0.00000  Uiso   1.00
C1113  C     0.56029   0.80521   0.98181   0.00000  Uiso   1.00
C1114  C     0.55950   0.78450   0.93404   0.00000  Uiso   1.00
C1115  C     0.52183   0.79259   0.91561   0.00000  Uiso   1.00
C1116  C     0.51672   0.84669   0.56196   0.00000  Uiso   1.00
C1117  C     0.58517   0.80631   0.56100   0.00000  Uiso   1.00
C1118  C     0.45691   0.83754   0.91194   0.00000  Uiso   1.00
H1119  H     0.48550   0.86441   0.58578   0.00000  Uiso   1.00
H1120  H     0.39712   0.91457   0.99948   0.00000  Uiso   1.00
H1121  H     0.51829   0.77328   0.88270   0.00000  Uiso   1.00
C1122  C     0.54316   0.97877   0.74059   0.00000  Uiso   1.00
H1123  H     0.57694   0.96260   0.73219   0.00000  Uiso   1.00
C1124  C     0.54309   0.68807   0.74040   0.00000  Uiso   1.00
H1125  H     0.57688   0.70432   0.73189   0.00000  Uiso   1.00
C1126  C     0.49976   0.70920   0.75058   0.00000  Uiso   1.00
C1127  C     0.45645   0.68797   0.76120   0.00000  Uiso   1.00
H1128  H     0.42269   0.70417   0.76956   0.00000  Uiso   1.00
C1129  C     0.45652   0.97865   0.76140   0.00000  Uiso   1.00
H1130  H     0.42275   0.96237   0.76992   0.00000  Uiso   1.00
C1131  C     0.49990   0.95752   0.75089   0.00000  Uiso   1.00
C1132  C     0.65256   0.80958   0.71355   0.00000  Uiso   1.00
H1133  H     0.64180   0.79179   0.68403   0.00000  Uiso   1.00
C1134  C     0.36707   0.80898   0.71261   0.00000  Uiso   1.00
N1135  N     0.38093   0.83334   0.75001   0.00000  Uiso   1.00
C1136  C     0.34633   0.85712   0.78699   0.00000  Uiso   1.00
H1137  H     0.35563   0.87653   0.81621   0.00000  Uiso   1.00
C1138  C     0.63185   0.85706   0.78701   0.00000  Uiso   1.00
H1139  H     0.60511   0.87625   0.81661   0.00000  Uiso   1.00
N1140  N     0.61906   0.83331   0.75001   0.00000  Uiso   1.00
S1141  S     0.40530   0.77955   0.65528   0.00000  Uiso   1.00
O1142  O     0.37651   0.74463   0.64259   0.00000  Uiso   1.00
O1143  O     0.41989   0.80797   0.60769   0.00000  Uiso   1.00
O1144  O     0.45448   0.75762   0.66045   0.00000  Uiso   1.00
H1145  H     0.47341   0.74781   0.62306   0.00000  Uiso   1.00
S1146  S     0.60161   0.74548   0.89898   0.00000  Uiso   1.00
O1147  O     0.65147   0.76294   0.88326   0.00000  Uiso   1.00
O1148  O     0.59727   0.70925   0.93564   0.00000  Uiso   1.00
O1149  O     0.59153   0.72890   0.84235   0.00000  Uiso   1.00
H1150  H     0.61863   0.70994   0.82335   0.00000  Uiso   1.00
N1151  N     0.38040   0.87255   0.91952   0.00000  Uiso   1.00
O1152  O     0.36239   0.90970   0.92201   0.00000  Uiso   1.00
O1153  O     0.35749   0.84085   0.90861   0.00000  Uiso   1.00
N1154  N     0.47155   0.91810   0.53284   0.00000  Uiso   1.00
O1155  O     0.43690   0.93978   0.56717   0.00000  Uiso   1.00
O1156  O     0.51551   0.93073   0.52199   0.00000  Uiso   1.00
O1157  O     0.79512   0.89442   0.75000   0.00000  Uiso   1.00
O1158  O     0.87157   0.89441   0.75001   0.00000  Uiso   1.00
C1159  C     0.83333   0.91332   0.75036   0.00000  Uiso   1.00
O1160  O     0.77613   0.83333   0.82681   0.00000  Uiso   1.00
O1161  O     0.85258   0.83332   0.82681   0.00000  Uiso   1.00
C1162  C     0.80654   0.83295   0.85240   0.00000  Uiso   1.00
Zn1163 Zn    0.78229   0.83334   0.75000   0.00000  Uiso   1.00
Zn1164 Zn    0.88438   0.83333   0.75000   0.00000  Uiso   1.00
O1165  O     0.79510   0.77226   0.75000   0.00000  Uiso   1.00
O1166  O     0.87154   0.77225   0.75000   0.00000  Uiso   1.00
O1167  O     0.81409   0.83335   0.67319   0.00000  Uiso   1.00
O1168  O     0.89053   0.83334   0.67319   0.00000  Uiso   1.00
C1169  C     0.83318   0.75336   0.75027   0.00000  Uiso   1.00
C1170  C     0.86021   0.83332   0.64792   0.00000  Uiso   1.00
C1171  C     0.92633   0.79376   0.50736   0.00000  Uiso   1.00
H1172  H     0.94123   0.79408   0.58184   0.00000  Uiso   1.00
H1173  H     0.95565   0.77249   0.98827   0.00000  Uiso   1.00
C1174  C     0.87814   0.83031   0.58909   0.00000  Uiso   1.00
C1175  C     0.75277   0.86561   0.93884   0.00000  Uiso   1.00
C1176  C     0.75602   0.88963   0.98257   0.00000  Uiso   1.00
C1177  C     0.79448   0.88457   0.50114   0.00000  Uiso   1.00
C1178  C     0.82521   0.84913   0.98269   0.00000  Uiso   1.00
C1179  C     0.82285   0.82580   0.93743   0.00000  Uiso   1.00
C1180  C     0.85754   0.83550   0.50792   0.00000  Uiso   1.00
C1181  C     0.89362   0.80521   0.98181   0.00000  Uiso   1.00
C1182  C     0.89283   0.78450   0.93404   0.00000  Uiso   1.00
C1183  C     0.85516   0.79259   0.91561   0.00000  Uiso   1.00
C1184  C     0.85006   0.84669   0.56196   0.00000  Uiso   1.00
C1185  C     0.91850   0.80631   0.56100   0.00000  Uiso   1.00
C1186  C     0.79024   0.83754   0.91194   0.00000  Uiso   1.00
H1187  H     0.81883   0.86441   0.58578   0.00000  Uiso   1.00
H1188  H     0.73046   0.91457   0.99948   0.00000  Uiso   1.00
H1189  H     0.85162   0.77328   0.88270   0.00000  Uiso   1.00
C1190  C     0.87649   0.97877   0.74059   0.00000  Uiso   1.00
H1191  H     0.91027   0.96260   0.73219   0.00000  Uiso   1.00
C1192  C     0.87643   0.68807   0.74040   0.00000  Uiso   1.00
H1193  H     0.91021   0.70432   0.73189   0.00000  Uiso   1.00
C1194  C     0.83309   0.70920   0.75058   0.00000  Uiso   1.00
C1195  C     0.78979   0.68797   0.76120   0.00000  Uiso   1.00
H1196  H     0.75602   0.70417   0.76956   0.00000  Uiso   1.00
C1197  C     0.78985   0.97865   0.76140   0.00000  Uiso   1.00
H1198  H     0.75608   0.96237   0.76992   0.00000  Uiso   1.00
C1199  C     0.83324   0.95752   0.75089   0.00000  Uiso   1.00
C1200  C     0.98589   0.80958   0.71355   0.00000  Uiso   1.00
H1201  H     0.97513   0.79179   0.68403   0.00000  Uiso   1.00
C1202  C     0.70041   0.80898   0.71261   0.00000  Uiso   1.00
N1203  N     0.71426   0.83334   0.75001   0.00000  Uiso   1.00
C1204  C     0.67967   0.85712   0.78699   0.00000  Uiso   1.00
H1205  H     0.68896   0.87653   0.81621   0.00000  Uiso   1.00
C1206  C     0.96518   0.85706   0.78701   0.00000  Uiso   1.00
H1207  H     0.93844   0.87625   0.81661   0.00000  Uiso   1.00
N1208  N     0.95239   0.83331   0.75001   0.00000  Uiso   1.00
S1209  S     0.73864   0.77955   0.65528   0.00000  Uiso   1.00
O1210  O     0.70985   0.74463   0.64259   0.00000  Uiso   1.00
O1211  O     0.75322   0.80797   0.60769   0.00000  Uiso   1.00
O1212  O     0.78782   0.75762   0.66045   0.00000  Uiso   1.00
H1213  H     0.80674   0.74781   0.62306   0.00000  Uiso   1.00
S1214  S     0.93495   0.74548   0.89898   0.00000  Uiso   1.00
O1215  O     0.98480   0.76294   0.88326   0.00000  Uiso   1.00
O1216  O     0.93060   0.70925   0.93564   0.00000  Uiso   1.00
O1217  O     0.92486   0.72890   0.84235   0.00000  Uiso   1.00
H1218  H     0.95196   0.70994   0.82335   0.00000  Uiso   1.00
N1219  N     0.71374   0.87255   0.91952   0.00000  Uiso   1.00
O1220  O     0.69573   0.90970   0.92201   0.00000  Uiso   1.00
O1221  O     0.69082   0.84085   0.90861   0.00000  Uiso   1.00
N1222  N     0.80489   0.91810   0.53284   0.00000  Uiso   1.00
O1223  O     0.77023   0.93978   0.56717   0.00000  Uiso   1.00
O1224  O     0.84885   0.93073   0.52199   0.00000  Uiso   1.00
loop_
_geom_bond_atom_site_label_1
_geom_bond_atom_site_label_2
_geom_bond_distance
_geom_bond_site_symmetry_2
_ccdc_geom_bond_type
O1     C3      1.286   .     A
O1     Zn7     1.996   .     S
O2     C3      1.288   .     A
O2     Zn8     2.000   .     S
C3     C43     1.419   .     S
O4     Zn7     1.955   .     S
O4     C6      1.296   .     A
O5     Zn8     1.905   .     S
O5     C6      1.300   .     A
C6     C30     1.468   .     S
Zn7    O11     1.905   .     S
Zn7    O9      2.000   .     S
Zn7    N47     2.020   .     S
Zn8    O12     1.955   .     S
Zn8    O10     1.996   .     S
Zn8    N52     2.020   .     S
O9     C13     1.289   .     A
O10    C13     1.285   .     A
O11    C14     1.301   .     A
O12    C14     1.287   .     A
C13    C38     1.418   .     S
C14    C18     1.447   .     S
C15    C29     1.391   .     A
C15    H629    1.080   1_554 S
C15    C637    1.410   1_554 S
H16    C29     1.084   .     S
H17    C627    1.080   .     S
C18    C28     1.381   .     A
C18    C29     1.396   .     A
C19    C20     1.394   .     A
C19    N63     1.435   .     S
C19    C30     1.411   .     A
C20    H32     1.083   .     S
C20    C633    1.398   .     S
C21    N66     1.439   .     S
C21    C632    1.398   1_554 S
C21    C634    1.430   1_554 S
C22    C23     1.407   .     A
C22    C633    1.430   .     S
C22    C636    1.416   .     S
C23    C27     1.411   .     A
C23    C30     1.409   .     A
C24    C28     1.392   .     A
C24    C634    1.416   1_554 S
C24    C637    1.428   1_554 S
C25    C26     1.408   .     A
C25    C627    1.410   .     S
C25    C636    1.428   .     S
C26    S58     1.775   .     S
C26    C27     1.390   .     A
C27    H33     1.082   .     S
C28    H31     1.079   .     S
C34    C43     1.396   .     A
C34    H35     1.084   .     S
C34    C240    1.369   .     S
C36    C38     1.398   .     A
C36    H37     1.084   .     S
C36    C442    1.369   1_545 S
C38    C39     1.396   .     A
C39    H40     1.084   .     S
C39    C449    1.370   1_545 S
C41    H42     1.084   .     S
C41    C43     1.398   .     A
C41    C243    1.370   .     S
C44    N52     1.343   .     A
C44    H45     1.082   .     S
C44    C114    1.413   .     S
C46    S53     1.791   .     S
C46    N47     1.405   .     A
C46    C180    1.413   1_455 S
N47    C48     1.366   .     A
C48    H49     1.081   .     S
C48    C186    1.420   1_455 S
C50    N52     1.369   .     A
C50    H51     1.082   .     S
C50    C116    1.420   .     S
S53    O54     1.504   .     D
S53    O55     1.501   .     D
S53    O56     1.673   .     S
O56    H57     0.991   .     S
S58    O61     1.683   .     S
S58    O59     1.503   .     D
S58    O60     1.503   .     D
O61    H62     0.991   .     S
N63    O65     1.300   .     A
N63    O64     1.301   .     A
N66    O68     1.302   .     A
N66    O67     1.302   .     A
O69    C71     1.286   .     A
O69    Zn75    1.996   .     S
O70    C71     1.288   .     A
O70    Zn76    2.000   .     S
C71    C111    1.419   .     S
O72    Zn75    1.955   .     S
O72    C74     1.296   .     A
O73    Zn76    1.905   .     S
O73    C74     1.300   .     A
C74    C98     1.468   .     S
Zn75   O79     1.905   .     S
Zn75   O77     2.000   .     S
Zn75   N115    2.020   .     S
Zn76   O80     1.955   .     S
Zn76   O78     1.996   .     S
Zn76   N120    2.020   .     S
O77    C81     1.289   .     A
O78    C81     1.285   .     A
O79    C82     1.301   .     A
O80    C82     1.287   .     A
C81    C106    1.418   .     S
C82    C86     1.447   .     S
C83    C97     1.391   .     A
C83    H697    1.080   1_554 S
C83    C705    1.410   1_554 S
H84    C97     1.084   .     S
H85    C695    1.080   .     S
C86    C96     1.381   .     A
C86    C97     1.396   .     A
C87    C88     1.394   .     A
C87    N131    1.435   .     S
C87    C98     1.411   .     A
C88    H100    1.083   .     S
C88    C701    1.398   .     S
C89    N134    1.439   .     S
C89    C700    1.398   1_554 S
C89    C702    1.430   1_554 S
C90    C91     1.407   .     A
C90    C701    1.430   .     S
C90    C704    1.416   .     S
C91    C95     1.411   .     A
C91    C98     1.409   .     A
C92    C96     1.392   .     A
C92    C702    1.416   1_554 S
C92    C705    1.428   1_554 S
C93    C94     1.408   .     A
C93    C695    1.410   .     S
C93    C704    1.428   .     S
C94    S126    1.775   .     S
C94    C95     1.390   .     A
C95    H101    1.082   .     S
C96    H99     1.079   .     S
C102   C111    1.396   .     A
C102   H103    1.084   .     S
C102   C308    1.369   .     S
C104   C106    1.398   .     A
C104   H105    1.084   .     S
C104   C510    1.369   1_545 S
C106   C107    1.396   .     A
C107   H108    1.084   .     S
C107   C517    1.370   1_545 S
C109   H110    1.084   .     S
C109   C111    1.398   .     A
C109   C311    1.370   .     S
C112   N120    1.343   .     A
C112   H113    1.082   .     S
C112   C182    1.413   .     S
C114   S121    1.791   .     S
C114   N115    1.405   .     A
N115   C116    1.366   .     A
C116   H117    1.081   .     S
C118   N120    1.369   .     A
C118   H119    1.082   .     S
C118   C184    1.420   .     S
S121   O122    1.504   .     D
S121   O123    1.501   .     D
S121   O124    1.673   .     S
O124   H125    0.991   .     S
S126   O129    1.683   .     S
S126   O127    1.503   .     D
S126   O128    1.503   .     D
O129   H130    0.991   .     S
N131   O133    1.300   .     A
N131   O132    1.301   .     A
N134   O136    1.302   .     A
N134   O135    1.302   .     A
O137   C139    1.286   .     A
O137   Zn143   1.996   .     S
O138   C139    1.288   .     A
O138   Zn144   2.000   .     S
C139   C179    1.419   .     S
O140   Zn143   1.955   .     S
O140   C142    1.296   .     A
O141   Zn144   1.905   .     S
O141   C142    1.300   .     A
C142   C166    1.468   .     S
Zn143  O147    1.905   .     S
Zn143  O145    2.000   .     S
Zn143  N183    2.020   .     S
Zn144  O148    1.955   .     S
Zn144  O146    1.996   .     S
Zn144  N188    2.020   .     S
O145   C149    1.289   .     A
O146   C149    1.285   .     A
O147   C150    1.301   .     A
O148   C150    1.287   .     A
C149   C174    1.418   .     S
C150   C154    1.447   .     S
C151   C165    1.391   .     A
C151   H765    1.080   1_554 S
C151   C773    1.410   1_554 S
H152   C165    1.084   .     S
H153   C763    1.080   .     S
C154   C164    1.381   .     A
C154   C165    1.396   .     A
C155   C156    1.394   .     A
C155   N199    1.435   .     S
C155   C166    1.411   .     A
C156   H168    1.083   .     S
C156   C769    1.398   .     S
C157   N202    1.439   .     S
C157   C768    1.398   1_554 S
C157   C770    1.430   1_554 S
C158   C159    1.407   .     A
C158   C769    1.430   .     S
C158   C772    1.416   .     S
C159   C163    1.411   .     A
C159   C166    1.409   .     A
C160   C164    1.392   .     A
C160   C770    1.416   1_554 S
C160   C773    1.428   1_554 S
C161   C162    1.408   .     A
C161   C763    1.410   .     S
C161   C772    1.428   .     S
C162   S194    1.775   .     S
C162   C163    1.390   .     A
C163   H169    1.082   .     S
C164   H167    1.079   .     S
C170   C179    1.396   .     A
C170   H171    1.084   .     S
C170   C376    1.369   .     S
C172   C174    1.398   .     A
C172   H173    1.084   .     S
C172   C578    1.369   1_545 S
C174   C175    1.396   .     A
C175   H176    1.084   .     S
C175   C585    1.370   1_545 S
C177   H178    1.084   .     S
C177   C179    1.398   .     A
C177   C379    1.370   .     S
C180   N188    1.343   .     A
C180   H181    1.082   .     S
C180   C46     1.413   1_655 S
C182   S189    1.791   .     S
C182   N183    1.405   .     A
N183   C184    1.366   .     A
C184   H185    1.081   .     S
C186   N188    1.369   .     A
C186   H187    1.082   .     S
C186   C48     1.420   1_655 S
S189   O190    1.504   .     D
S189   O191    1.501   .     D
S189   O192    1.673   .     S
O192   H193    0.991   .     S
S194   O197    1.683   .     S
S194   O195    1.503   .     D
S194   O196    1.503   .     D
O197   H198    0.991   .     S
N199   O201    1.300   .     A
N199   O200    1.301   .     A
N202   O204    1.302   .     A
N202   O203    1.302   .     A
O205   C207    1.286   .     A
O205   Zn211   1.996   .     S
O206   C207    1.288   .     A
O206   Zn212   2.000   .     S
C207   C247    1.419   .     S
O208   Zn211   1.955   .     S
O208   C210    1.296   .     A
O209   Zn212   1.905   .     S
O209   C210    1.300   .     A
C210   C234    1.468   .     S
Zn211  O215    1.905   .     S
Zn211  O213    2.000   .     S
Zn211  N251    2.020   .     S
Zn212  O216    1.955   .     S
Zn212  O214    1.996   .     S
Zn212  N256    2.020   .     S
O213   C217    1.289   .     A
O214   C217    1.285   .     A
O215   C218    1.301   .     A
O216   C218    1.287   .     A
C217   C242    1.418   .     S
C218   C222    1.447   .     S
C219   C233    1.391   .     A
C219   H833    1.080   1_554 S
C219   C841    1.410   1_554 S
H220   C233    1.084   .     S
H221   C831    1.080   .     S
C222   C232    1.381   .     A
C222   C233    1.396   .     A
C223   C224    1.394   .     A
C223   N267    1.435   .     S
C223   C234    1.411   .     A
C224   H236    1.083   .     S
C224   C837    1.398   .     S
C225   N270    1.439   .     S
C225   C836    1.398   1_554 S
C225   C838    1.430   1_554 S
C226   C227    1.407   .     A
C226   C837    1.430   .     S
C226   C840    1.416   .     S
C227   C231    1.411   .     A
C227   C234    1.409   .     A
C228   C232    1.392   .     A
C228   C838    1.416   1_554 S
C228   C841    1.428   1_554 S
C229   C230    1.408   .     A
C229   C831    1.410   .     S
C229   C840    1.428   .     S
C230   S262    1.775   .     S
C230   C231    1.390   .     A
C231   H237    1.082   .     S
C232   H235    1.079   .     S
C238   C247    1.396   .     A
C238   H239    1.084   .     S
C238   C444    1.369   .     S
C240   C242    1.398   .     A
C240   H241    1.084   .     S
C242   C243    1.396   .     A
C243   H244    1.084   .     S
C245   H246    1.084   .     S
C245   C247    1.398   .     A
C245   C447    1.370   .     S
C248   N256    1.343   .     A
C248   H249    1.082   .     S
C248   C318    1.413   .     S
C250   S257    1.791   .     S
C250   N251    1.405   .     A
C250   C384    1.413   1_455 S
N251   C252    1.366   .     A
C252   H253    1.081   .     S
C252   C390    1.420   1_455 S
C254   N256    1.369   .     A
C254   H255    1.082   .     S
C254   C320    1.420   .     S
S257   O258    1.504   .     D
S257   O259    1.501   .     D
S257   O260    1.673   .     S
O260   H261    0.991   .     S
S262   O265    1.683   .     S
S262   O263    1.503   .     D
S262   O264    1.503   .     D
O265   H266    0.991   .     S
N267   O269    1.300   .     A
N267   O268    1.301   .     A
N270   O272    1.302   .     A
N270   O271    1.302   .     A
O273   C275    1.286   .     A
O273   Zn279   1.996   .     S
O274   C275    1.288   .     A
O274   Zn280   2.000   .     S
C275   C315    1.419   .     S
O276   Zn279   1.955   .     S
O276   C278    1.296   .     A
O277   Zn280   1.905   .     S
O277   C278    1.300   .     A
C278   C302    1.468   .     S
Zn279  O283    1.905   .     S
Zn279  O281    2.000   .     S
Zn279  N319    2.020   .     S
Zn280  O284    1.955   .     S
Zn280  O282    1.996   .     S
Zn280  N324    2.020   .     S
O281   C285    1.289   .     A
O282   C285    1.285   .     A
O283   C286    1.301   .     A
O284   C286    1.287   .     A
C285   C310    1.418   .     S
C286   C290    1.447   .     S
C287   C301    1.391   .     A
C287   H901    1.080   1_554 S
C287   C909    1.410   1_554 S
H288   C301    1.084   .     S
H289   C899    1.080   .     S
C290   C300    1.381   .     A
C290   C301    1.396   .     A
C291   C292    1.394   .     A
C291   N335    1.435   .     S
C291   C302    1.411   .     A
C292   H304    1.083   .     S
C292   C905    1.398   .     S
C293   N338    1.439   .     S
C293   C904    1.398   1_554 S
C293   C906    1.430   1_554 S
C294   C295    1.407   .     A
C294   C905    1.430   .     S
C294   C908    1.416   .     S
C295   C299    1.411   .     A
C295   C302    1.409   .     A
C296   C300    1.392   .     A
C296   C906    1.416   1_554 S
C296   C909    1.428   1_554 S
C297   C298    1.408   .     A
C297   C899    1.410   .     S
C297   C908    1.428   .     S
C298   S330    1.775   .     S
C298   C299    1.390   .     A
C299   H305    1.082   .     S
C300   H303    1.079   .     S
C306   C315    1.396   .     A
C306   H307    1.084   .     S
C306   C512    1.369   .     S
C308   C310    1.398   .     A
C308   H309    1.084   .     S
C310   C311    1.396   .     A
C311   H312    1.084   .     S
C313   H314    1.084   .     S
C313   C315    1.398   .     A
C313   C515    1.370   .     S
C316   N324    1.343   .     A
C316   H317    1.082   .     S
C316   C386    1.413   .     S
C318   S325    1.791   .     S
C318   N319    1.405   .     A
N319   C320    1.366   .     A
C320   H321    1.081   .     S
C322   N324    1.369   .     A
C322   H323    1.082   .     S
C322   C388    1.420   .     S
S325   O326    1.504   .     D
S325   O327    1.501   .     D
S325   O328    1.673   .     S
O328   H329    0.991   .     S
S330   O333    1.683   .     S
S330   O331    1.503   .     D
S330   O332    1.503   .     D
O333   H334    0.991   .     S
N335   O337    1.300   .     A
N335   O336    1.301   .     A
N338   O340    1.302   .     A
N338   O339    1.302   .     A
O341   C343    1.286   .     A
O341   Zn347   1.996   .     S
O342   C343    1.288   .     A
O342   Zn348   2.000   .     S
C343   C383    1.419   .     S
O344   Zn347   1.955   .     S
O344   C346    1.296   .     A
O345   Zn348   1.905   .     S
O345   C346    1.300   .     A
C346   C370    1.468   .     S
Zn347  O351    1.905   .     S
Zn347  O349    2.000   .     S
Zn347  N387    2.020   .     S
Zn348  O352    1.955   .     S
Zn348  O350    1.996   .     S
Zn348  N392    2.020   .     S
O349   C353    1.289   .     A
O350   C353    1.285   .     A
O351   C354    1.301   .     A
O352   C354    1.287   .     A
C353   C378    1.418   .     S
C354   C358    1.447   .     S
C355   C369    1.391   .     A
C355   H969    1.080   1_554 S
C355   C977    1.410   1_554 S
H356   C369    1.084   .     S
H357   C967    1.080   .     S
C358   C368    1.381   .     A
C358   C369    1.396   .     A
C359   C360    1.394   .     A
C359   N403    1.435   .     S
C359   C370    1.411   .     A
C360   H372    1.083   .     S
C360   C973    1.398   .     S
C361   N406    1.439   .     S
C361   C972    1.398   1_554 S
C361   C974    1.430   1_554 S
C362   C363    1.407   .     A
C362   C973    1.430   .     S
C362   C976    1.416   .     S
C363   C367    1.411   .     A
C363   C370    1.409   .     A
C364   C368    1.392   .     A
C364   C974    1.416   1_554 S
C364   C977    1.428   1_554 S
C365   C366    1.408   .     A
C365   C967    1.410   .     S
C365   C976    1.428   .     S
C366   S398    1.775   .     S
C366   C367    1.390   .     A
C367   H373    1.082   .     S
C368   H371    1.079   .     S
C374   C383    1.396   .     A
C374   H375    1.084   .     S
C374   C580    1.369   .     S
C376   C378    1.398   .     A
C376   H377    1.084   .     S
C378   C379    1.396   .     A
C379   H380    1.084   .     S
C381   H382    1.084   .     S
C381   C383    1.398   .     A
C381   C583    1.370   .     S
C384   N392    1.343   .     A
C384   H385    1.082   .     S
C384   C250    1.413   1_655 S
C386   S393    1.791   .     S
C386   N387    1.405   .     A
N387   C388    1.366   .     A
C388   H389    1.081   .     S
C390   N392    1.369   .     A
C390   H391    1.082   .     S
C390   C252    1.420   1_655 S
S393   O394    1.504   .     D
S393   O395    1.501   .     D
S393   O396    1.673   .     S
O396   H397    0.991   .     S
S398   O401    1.683   .     S
S398   O399    1.503   .     D
S398   O400    1.503   .     D
O401   H402    0.991   .     S
N403   O405    1.300   .     A
N403   O404    1.301   .     A
N406   O408    1.302   .     A
N406   O407    1.302   .     A
O409   C411    1.286   .     A
O409   Zn415   1.996   .     S
O410   C411    1.288   .     A
O410   Zn416   2.000   .     S
C411   C451    1.419   .     S
O412   Zn415   1.955   .     S
O412   C414    1.296   .     A
O413   Zn416   1.905   .     S
O413   C414    1.300   .     A
C414   C438    1.468   .     S
Zn415  O419    1.905   .     S
Zn415  O417    2.000   .     S
Zn415  N455    2.020   .     S
Zn416  O420    1.955   .     S
Zn416  O418    1.996   .     S
Zn416  N460    2.020   .     S
O417   C421    1.289   .     A
O418   C421    1.285   .     A
O419   C422    1.301   .     A
O420   C422    1.287   .     A
C421   C446    1.418   .     S
C422   C426    1.447   .     S
C423   C437    1.391   .     A
C423   H1037   1.080   1_554 S
C423   C1045   1.410   1_554 S
H424   C437    1.084   .     S
H425   C1035   1.080   .     S
C426   C436    1.381   .     A
C426   C437    1.396   .     A
C427   C428    1.394   .     A
C427   N471    1.435   .     S
C427   C438    1.411   .     A
C428   H440    1.083   .     S
C428   C1041   1.398   .     S
C429   N474    1.439   .     S
C429   C1040   1.398   1_554 S
C429   C1042   1.430   1_554 S
C430   C431    1.407   .     A
C430   C1041   1.430   .     S
C430   C1044   1.416   .     S
C431   C435    1.411   .     A
C431   C438    1.409   .     A
C432   C436    1.392   .     A
C432   C1042   1.416   1_554 S
C432   C1045   1.428   1_554 S
C433   C434    1.408   .     A
C433   C1035   1.410   .     S
C433   C1044   1.428   .     S
C434   S466    1.775   .     S
C434   C435    1.390   .     A
C435   H441    1.082   .     S
C436   H439    1.079   .     S
C442   C451    1.396   .     A
C442   H443    1.084   .     S
C442   C36     1.369   1_565 S
C444   C446    1.398   .     A
C444   H445    1.084   .     S
C446   C447    1.396   .     A
C447   H448    1.084   .     S
C449   H450    1.084   .     S
C449   C451    1.398   .     A
C449   C39     1.370   1_565 S
C452   N460    1.343   .     A
C452   H453    1.082   .     S
C452   C522    1.413   .     S
C454   S461    1.791   .     S
C454   N455    1.405   .     A
C454   C588    1.413   1_455 S
N455   C456    1.366   .     A
C456   H457    1.081   .     S
C456   C594    1.420   1_455 S
C458   N460    1.369   .     A
C458   H459    1.082   .     S
C458   C524    1.420   .     S
S461   O462    1.504   .     D
S461   O463    1.501   .     D
S461   O464    1.673   .     S
O464   H465    0.991   .     S
S466   O469    1.683   .     S
S466   O467    1.503   .     D
S466   O468    1.503   .     D
O469   H470    0.991   .     S
N471   O473    1.300   .     A
N471   O472    1.301   .     A
N474   O476    1.302   .     A
N474   O475    1.302   .     A
O477   C479    1.286   .     A
O477   Zn483   1.996   .     S
O478   C479    1.288   .     A
O478   Zn484   2.000   .     S
C479   C519    1.419   .     S
O480   Zn483   1.955   .     S
O480   C482    1.296   .     A
O481   Zn484   1.905   .     S
O481   C482    1.300   .     A
C482   C506    1.468   .     S
Zn483  O487    1.905   .     S
Zn483  O485    2.000   .     S
Zn483  N523    2.020   .     S
Zn484  O488    1.955   .     S
Zn484  O486    1.996   .     S
Zn484  N528    2.020   .     S
O485   C489    1.289   .     A
O486   C489    1.285   .     A
O487   C490    1.301   .     A
O488   C490    1.287   .     A
C489   C514    1.418   .     S
C490   C494    1.447   .     S
C491   C505    1.391   .     A
C491   H1105   1.080   1_554 S
C491   C1113   1.410   1_554 S
H492   C505    1.084   .     S
H493   C1103   1.080   .     S
C494   C504    1.381   .     A
C494   C505    1.396   .     A
C495   C496    1.394   .     A
C495   N539    1.435   .     S
C495   C506    1.411   .     A
C496   H508    1.083   .     S
C496   C1109   1.398   .     S
C497   N542    1.439   .     S
C497   C1108   1.398   1_554 S
C497   C1110   1.430   1_554 S
C498   C499    1.407   .     A
C498   C1109   1.430   .     S
C498   C1112   1.416   .     S
C499   C503    1.411   .     A
C499   C506    1.409   .     A
C500   C504    1.392   .     A
C500   C1110   1.416   1_554 S
C500   C1113   1.428   1_554 S
C501   C502    1.408   .     A
C501   C1103   1.410   .     S
C501   C1112   1.428   .     S
C502   S534    1.775   .     S
C502   C503    1.390   .     A
C503   H509    1.082   .     S
C504   H507    1.079   .     S
C510   C519    1.396   .     A
C510   H511    1.084   .     S
C510   C104    1.369   1_565 S
C512   C514    1.398   .     A
C512   H513    1.084   .     S
C514   C515    1.396   .     A
C515   H516    1.084   .     S
C517   H518    1.084   .     S
C517   C519    1.398   .     A
C517   C107    1.370   1_565 S
C520   N528    1.343   .     A
C520   H521    1.082   .     S
C520   C590    1.413   .     S
C522   S529    1.791   .     S
C522   N523    1.405   .     A
N523   C524    1.366   .     A
C524   H525    1.081   .     S
C526   N528    1.369   .     A
C526   H527    1.082   .     S
C526   C592    1.420   .     S
S529   O530    1.504   .     D
S529   O531    1.501   .     D
S529   O532    1.673   .     S
O532   H533    0.991   .     S
S534   O537    1.683   .     S
S534   O535    1.503   .     D
S534   O536    1.503   .     D
O537   H538    0.991   .     S
N539   O541    1.300   .     A
N539   O540    1.301   .     A
N542   O544    1.302   .     A
N542   O543    1.302   .     A
O545   C547    1.286   .     A
O545   Zn551   1.996   .     S
O546   C547    1.288   .     A
O546   Zn552   2.000   .     S
C547   C587    1.419   .     S
O548   Zn551   1.955   .     S
O548   C550    1.296   .     A
O549   Zn552   1.905   .     S
O549   C550    1.300   .     A
C550   C574    1.468   .     S
Zn551  O555    1.905   .     S
Zn551  O553    2.000   .     S
Zn551  N591    2.020   .     S
Zn552  O556    1.955   .     S
Zn552  O554    1.996   .     S
Zn552  N596    2.020   .     S
O553   C557    1.289   .     A
O554   C557    1.285   .     A
O555   C558    1.301   .     A
O556   C558    1.287   .     A
C557   C582    1.418   .     S
C558   C562    1.447   .     S
C559   C573    1.391   .     A
C559   H1173   1.080   1_554 S
C559   C1181   1.410   1_554 S
H560   C573    1.084   .     S
H561   C1171   1.080   .     S
C562   C572    1.381   .     A
C562   C573    1.396   .     A
C563   C564    1.394   .     A
C563   N607    1.435   .     S
C563   C574    1.411   .     A
C564   H576    1.083   .     S
C564   C1177   1.398   .     S
C565   N610    1.439   .     S
C565   C1176   1.398   1_554 S
C565   C1178   1.430   1_554 S
C566   C567    1.407   .     A
C566   C1177   1.430   .     S
C566   C1180   1.416   .     S
C567   C571    1.411   .     A
C567   C574    1.409   .     A
C568   C572    1.392   .     A
C568   C1178   1.416   1_554 S
C568   C1181   1.428   1_554 S
C569   C570    1.408   .     A
C569   C1171   1.410   .     S
C569   C1180   1.428   .     S
C570   S602    1.775   .     S
C570   C571    1.390   .     A
C571   H577    1.082   .     S
C572   H575    1.079   .     S
C578   C587    1.396   .     A
C578   H579    1.084   .     S
C578   C172    1.369   1_565 S
C580   C582    1.398   .     A
C580   H581    1.084   .     S
C582   C583    1.396   .     A
C583   H584    1.084   .     S
C585   H586    1.084   .     S
C585   C587    1.398   .     A
C585   C175    1.370   1_565 S
C588   N596    1.343   .     A
C588   H589    1.082   .     S
C588   C454    1.413   1_655 S
C590   S597    1.791   .     S
C590   N591    1.405   .     A
N591   C592    1.366   .     A
C592   H593    1.081   .     S
C594   N596    1.369   .     A
C594   H595    1.082   .     S
C594   C456    1.420   1_655 S
S597   O598    1.504   .     D
S597   O599    1.501   .     D
S597   O600    1.673   .     S
O600   H601    0.991   .     S
S602   O605    1.683   .     S
S602   O603    1.503   .     D
S602   O604    1.503   .     D
O605   H606    0.991   .     S
N607   O609    1.300   .     A
N607   O608    1.301   .     A
N610   O612    1.302   .     A
N610   O611    1.302   .     A
O613   C615    1.286   .     A
O613   Zn619   1.996   .     S
O614   C615    1.288   .     A
O614   Zn620   2.000   .     S
C615   C655    1.419   .     S
O616   Zn619   1.955   .     S
O616   C618    1.296   .     A
O617   Zn620   1.905   .     S
O617   C618    1.300   .     A
C618   C642    1.468   .     S
Zn619  O623    1.905   .     S
Zn619  O621    2.000   .     S
Zn619  N659    2.020   .     S
Zn620  O624    1.955   .     S
Zn620  O622    1.996   .     S
Zn620  N664    2.020   .     S
O621   C625    1.289   .     A
O622   C625    1.285   .     A
O623   C626    1.301   .     A
O624   C626    1.287   .     A
C625   C650    1.418   .     S
C626   C630    1.447   .     S
C627   C641    1.391   .     A
H628   C641    1.084   .     S
H629   C15     1.080   1_556 S
C630   C640    1.381   .     A
C630   C641    1.396   .     A
C631   C632    1.394   .     A
C631   N675    1.435   .     S
C631   C642    1.411   .     A
C632   H644    1.083   .     S
C632   C21     1.398   1_556 S
C633   N678    1.439   .     S
C634   C635    1.407   .     A
C634   C21     1.430   1_556 S
C634   C24     1.416   1_556 S
C635   C639    1.411   .     A
C635   C642    1.409   .     A
C636   C640    1.392   .     A
C637   C638    1.408   .     A
C637   C15     1.410   1_556 S
C637   C24     1.428   1_556 S
C638   S670    1.775   .     S
C638   C639    1.390   .     A
C639   H645    1.082   .     S
C640   H643    1.079   .     S
C646   C655    1.396   .     A
C646   H647    1.084   .     S
C646   C852    1.369   .     S
C648   C650    1.398   .     A
C648   H649    1.084   .     S
C648   C1054   1.369   1_545 S
C650   C651    1.396   .     A
C651   H652    1.084   .     S
C651   C1061   1.370   1_545 S
C653   H654    1.084   .     S
C653   C655    1.398   .     A
C653   C855    1.370   .     S
C656   N664    1.343   .     A
C656   H657    1.082   .     S
C656   C726    1.413   .     S
C658   S665    1.791   .     S
C658   N659    1.405   .     A
C658   C792    1.413   1_455 S
N659   C660    1.366   .     A
C660   H661    1.081   .     S
C660   C798    1.420   1_455 S
C662   N664    1.369   .     A
C662   H663    1.082   .     S
C662   C728    1.420   .     S
S665   O666    1.504   .     D
S665   O667    1.501   .     D
S665   O668    1.673   .     S
O668   H669    0.991   .     S
S670   O673    1.683   .     S
S670   O671    1.503   .     D
S670   O672    1.503   .     D
O673   H674    0.991   .     S
N675   O677    1.300   .     A
N675   O676    1.301   .     A
N678   O680    1.302   .     A
N678   O679    1.302   .     A
O681   C683    1.286   .     A
O681   Zn687   1.996   .     S
O682   C683    1.288   .     A
O682   Zn688   2.000   .     S
C683   C723    1.419   .     S
O684   Zn687   1.955   .     S
O684   C686    1.296   .     A
O685   Zn688   1.905   .     S
O685   C686    1.300   .     A
C686   C710    1.468   .     S
Zn687  O691    1.905   .     S
Zn687  O689    2.000   .     S
Zn687  N727    2.020   .     S
Zn688  O692    1.955   .     S
Zn688  O690    1.996   .     S
Zn688  N732    2.020   .     S
O689   C693    1.289   .     A
O690   C693    1.285   .     A
O691   C694    1.301   .     A
O692   C694    1.287   .     A
C693   C718    1.418   .     S
C694   C698    1.447   .     S
C695   C709    1.391   .     A
H696   C709    1.084   .     S
H697   C83     1.080   1_556 S
C698   C708    1.381   .     A
C698   C709    1.396   .     A
C699   C700    1.394   .     A
C699   N743    1.435   .     S
C699   C710    1.411   .     A
C700   H712    1.083   .     S
C700   C89     1.398   1_556 S
C701   N746    1.439   .     S
C702   C703    1.407   .     A
C702   C89     1.430   1_556 S
C702   C92     1.416   1_556 S
C703   C707    1.411   .     A
C703   C710    1.409   .     A
C704   C708    1.392   .     A
C705   C706    1.408   .     A
C705   C83     1.410   1_556 S
C705   C92     1.428   1_556 S
C706   S738    1.775   .     S
C706   C707    1.390   .     A
C707   H713    1.082   .     S
C708   H711    1.079   .     S
C714   C723    1.396   .     A
C714   H715    1.084   .     S
C714   C920    1.369   .     S
C716   C718    1.398   .     A
C716   H717    1.084   .     S
C716   C1122   1.369   1_545 S
C718   C719    1.396   .     A
C719   H720    1.084   .     S
C719   C1129   1.370   1_545 S
C721   H722    1.084   .     S
C721   C723    1.398   .     A
C721   C923    1.370   .     S
C724   N732    1.343   .     A
C724   H725    1.082   .     S
C724   C794    1.413   .     S
C726   S733    1.791   .     S
C726   N727    1.405   .     A
N727   C728    1.366   .     A
C728   H729    1.081   .     S
C730   N732    1.369   .     A
C730   H731    1.082   .     S
C730   C796    1.420   .     S
S733   O734    1.504   .     D
S733   O735    1.501   .     D
S733   O736    1.673   .     S
O736   H737    0.991   .     S
S738   O741    1.683   .     S
S738   O739    1.503   .     D
S738   O740    1.503   .     D
O741   H742    0.991   .     S
N743   O745    1.300   .     A
N743   O744    1.301   .     A
N746   O748    1.302   .     A
N746   O747    1.302   .     A
O749   C751    1.286   .     A
O749   Zn755   1.996   .     S
O750   C751    1.288   .     A
O750   Zn756   2.000   .     S
C751   C791    1.419   .     S
O752   Zn755   1.955   .     S
O752   C754    1.296   .     A
O753   Zn756   1.905   .     S
O753   C754    1.300   .     A
C754   C778    1.468   .     S
Zn755  O759    1.905   .     S
Zn755  O757    2.000   .     S
Zn755  N795    2.020   .     S
Zn756  O760    1.955   .     S
Zn756  O758    1.996   .     S
Zn756  N800    2.020   .     S
O757   C761    1.289   .     A
O758   C761    1.285   .     A
O759   C762    1.301   .     A
O760   C762    1.287   .     A
C761   C786    1.418   .     S
C762   C766    1.447   .     S
C763   C777    1.391   .     A
H764   C777    1.084   .     S
H765   C151    1.080   1_556 S
C766   C776    1.381   .     A
C766   C777    1.396   .     A
C767   C768    1.394   .     A
C767   N811    1.435   .     S
C767   C778    1.411   .     A
C768   H780    1.083   .     S
C768   C157    1.398   1_556 S
C769   N814    1.439   .     S
C770   C771    1.407   .     A
C770   C157    1.430   1_556 S
C770   C160    1.416   1_556 S
C771   C775    1.411   .     A
C771   C778    1.409   .     A
C772   C776    1.392   .     A
C773   C774    1.408   .     A
C773   C151    1.410   1_556 S
C773   C160    1.428   1_556 S
C774   S806    1.775   .     S
C774   C775    1.390   .     A
C775   H781    1.082   .     S
C776   H779    1.079   .     S
C782   C791    1.396   .     A
C782   H783    1.084   .     S
C782   C988    1.369   .     S
C784   C786    1.398   .     A
C784   H785    1.084   .     S
C784   C1190   1.369   1_545 S
C786   C787    1.396   .     A
C787   H788    1.084   .     S
C787   C1197   1.370   1_545 S
C789   H790    1.084   .     S
C789   C791    1.398   .     A
C789   C991    1.370   .     S
C792   N800    1.343   .     A
C792   H793    1.082   .     S
C792   C658    1.413   1_655 S
C794   S801    1.791   .     S
C794   N795    1.405   .     A
N795   C796    1.366   .     A
C796   H797    1.081   .     S
C798   N800    1.369   .     A
C798   H799    1.082   .     S
C798   C660    1.420   1_655 S
S801   O802    1.504   .     D
S801   O803    1.501   .     D
S801   O804    1.673   .     S
O804   H805    0.991   .     S
S806   O809    1.683   .     S
S806   O807    1.503   .     D
S806   O808    1.503   .     D
O809   H810    0.991   .     S
N811   O813    1.300   .     A
N811   O812    1.301   .     A
N814   O816    1.302   .     A
N814   O815    1.302   .     A
O817   C819    1.286   .     A
O817   Zn823   1.996   .     S
O818   C819    1.288   .     A
O818   Zn824   2.000   .     S
C819   C859    1.419   .     S
O820   Zn823   1.955   .     S
O820   C822    1.296   .     A
O821   Zn824   1.905   .     S
O821   C822    1.300   .     A
C822   C846    1.468   .     S
Zn823  O827    1.905   .     S
Zn823  O825    2.000   .     S
Zn823  N863    2.020   .     S
Zn824  O828    1.955   .     S
Zn824  O826    1.996   .     S
Zn824  N868    2.020   .     S
O825   C829    1.289   .     A
O826   C829    1.285   .     A
O827   C830    1.301   .     A
O828   C830    1.287   .     A
C829   C854    1.418   .     S
C830   C834    1.447   .     S
C831   C845    1.391   .     A
H832   C845    1.084   .     S
H833   C219    1.080   1_556 S
C834   C844    1.381   .     A
C834   C845    1.396   .     A
C835   C836    1.394   .     A
C835   N879    1.435   .     S
C835   C846    1.411   .     A
C836   H848    1.083   .     S
C836   C225    1.398   1_556 S
C837   N882    1.439   .     S
C838   C839    1.407   .     A
C838   C225    1.430   1_556 S
C838   C228    1.416   1_556 S
C839   C843    1.411   .     A
C839   C846    1.409   .     A
C840   C844    1.392   .     A
C841   C842    1.408   .     A
C841   C219    1.410   1_556 S
C841   C228    1.428   1_556 S
C842   S874    1.775   .     S
C842   C843    1.390   .     A
C843   H849    1.082   .     S
C844   H847    1.079   .     S
C850   C859    1.396   .     A
C850   H851    1.084   .     S
C850   C1056   1.369   .     S
C852   C854    1.398   .     A
C852   H853    1.084   .     S
C854   C855    1.396   .     A
C855   H856    1.084   .     S
C857   H858    1.084   .     S
C857   C859    1.398   .     A
C857   C1059   1.370   .     S
C860   N868    1.343   .     A
C860   H861    1.082   .     S
C860   C930    1.413   .     S
C862   S869    1.791   .     S
C862   N863    1.405   .     A
C862   C996    1.413   1_455 S
N863   C864    1.366   .     A
C864   H865    1.081   .     S
C864   C1002   1.420   1_455 S
C866   N868    1.369   .     A
C866   H867    1.082   .     S
C866   C932    1.420   .     S
S869   O870    1.504   .     D
S869   O871    1.501   .     D
S869   O872    1.673   .     S
O872   H873    0.991   .     S
S874   O877    1.683   .     S
S874   O875    1.503   .     D
S874   O876    1.503   .     D
O877   H878    0.991   .     S
N879   O881    1.300   .     A
N879   O880    1.301   .     A
N882   O884    1.302   .     A
N882   O883    1.302   .     A
O885   C887    1.286   .     A
O885   Zn891   1.996   .     S
O886   C887    1.288   .     A
O886   Zn892   2.000   .     S
C887   C927    1.419   .     S
O888   Zn891   1.955   .     S
O888   C890    1.296   .     A
O889   Zn892   1.905   .     S
O889   C890    1.300   .     A
C890   C914    1.468   .     S
Zn891  O895    1.905   .     S
Zn891  O893    2.000   .     S
Zn891  N931    2.020   .     S
Zn892  O896    1.955   .     S
Zn892  O894    1.996   .     S
Zn892  N936    2.020   .     S
O893   C897    1.289   .     A
O894   C897    1.285   .     A
O895   C898    1.301   .     A
O896   C898    1.287   .     A
C897   C922    1.418   .     S
C898   C902    1.447   .     S
C899   C913    1.391   .     A
H900   C913    1.084   .     S
H901   C287    1.080   1_556 S
C902   C912    1.381   .     A
C902   C913    1.396   .     A
C903   C904    1.394   .     A
C903   N947    1.435   .     S
C903   C914    1.411   .     A
C904   H916    1.083   .     S
C904   C293    1.398   1_556 S
C905   N950    1.439   .     S
C906   C907    1.407   .     A
C906   C293    1.430   1_556 S
C906   C296    1.416   1_556 S
C907   C911    1.411   .     A
C907   C914    1.409   .     A
C908   C912    1.392   .     A
C909   C910    1.408   .     A
C909   C287    1.410   1_556 S
C909   C296    1.428   1_556 S
C910   S942    1.775   .     S
C910   C911    1.390   .     A
C911   H917    1.082   .     S
C912   H915    1.079   .     S
C918   C927    1.396   .     A
C918   H919    1.084   .     S
C918   C1124   1.369   .     S
C920   C922    1.398   .     A
C920   H921    1.084   .     S
C922   C923    1.396   .     A
C923   H924    1.084   .     S
C925   H926    1.084   .     S
C925   C927    1.398   .     A
C925   C1127   1.370   .     S
C928   N936    1.343   .     A
C928   H929    1.082   .     S
C928   C998    1.413   .     S
C930   S937    1.791   .     S
C930   N931    1.405   .     A
N931   C932    1.366   .     A
C932   H933    1.081   .     S
C934   N936    1.369   .     A
C934   H935    1.082   .     S
C934   C1000   1.420   .     S
S937   O938    1.504   .     D
S937   O939    1.501   .     D
S937   O940    1.673   .     S
O940   H941    0.991   .     S
S942   O945    1.683   .     S
S942   O943    1.503   .     D
S942   O944    1.503   .     D
O945   H946    0.991   .     S
N947   O949    1.300   .     A
N947   O948    1.301   .     A
N950   O952    1.302   .     A
N950   O951    1.302   .     A
O953   C955    1.286   .     A
O953   Zn959   1.996   .     S
O954   C955    1.288   .     A
O954   Zn960   2.000   .     S
C955   C995    1.419   .     S
O956   Zn959   1.955   .     S
O956   C958    1.296   .     A
O957   Zn960   1.905   .     S
O957   C958    1.300   .     A
C958   C982    1.468   .     S
Zn959  O963    1.905   .     S
Zn959  O961    2.000   .     S
Zn959  N999    2.020   .     S
Zn960  O964    1.955   .     S
Zn960  O962    1.996   .     S
Zn960  N1004   2.020   .     S
O961   C965    1.289   .     A
O962   C965    1.285   .     A
O963   C966    1.301   .     A
O964   C966    1.287   .     A
C965   C990    1.418   .     S
C966   C970    1.447   .     S
C967   C981    1.391   .     A
H968   C981    1.084   .     S
H969   C355    1.080   1_556 S
C970   C980    1.381   .     A
C970   C981    1.396   .     A
C971   C972    1.394   .     A
C971   N1015   1.435   .     S
C971   C982    1.411   .     A
C972   H984    1.083   .     S
C972   C361    1.398   1_556 S
C973   N1018   1.439   .     S
C974   C975    1.407   .     A
C974   C361    1.430   1_556 S
C974   C364    1.416   1_556 S
C975   C979    1.411   .     A
C975   C982    1.409   .     A
C976   C980    1.392   .     A
C977   C978    1.408   .     A
C977   C355    1.410   1_556 S
C977   C364    1.428   1_556 S
C978   S1010   1.775   .     S
C978   C979    1.390   .     A
C979   H985    1.082   .     S
C980   H983    1.079   .     S
C986   C995    1.396   .     A
C986   H987    1.084   .     S
C986   C1192   1.369   .     S
C988   C990    1.398   .     A
C988   H989    1.084   .     S
C990   C991    1.396   .     A
C991   H992    1.084   .     S
C993   H994    1.084   .     S
C993   C995    1.398   .     A
C993   C1195   1.370   .     S
C996   N1004   1.343   .     A
C996   H997    1.082   .     S
C996   C862    1.413   1_655 S
C998   S1005   1.791   .     S
C998   N999    1.405   .     A
N999   C1000   1.366   .     A
C1000  H1001   1.081   .     S
C1002  N1004   1.369   .     A
C1002  H1003   1.082   .     S
C1002  C864    1.420   1_655 S
S1005  O1006   1.504   .     D
S1005  O1007   1.501   .     D
S1005  O1008   1.673   .     S
O1008  H1009   0.991   .     S
S1010  O1013   1.683   .     S
S1010  O1011   1.503   .     D
S1010  O1012   1.503   .     D
O1013  H1014   0.991   .     S
N1015  O1017   1.300   .     A
N1015  O1016   1.301   .     A
N1018  O1020   1.302   .     A
N1018  O1019   1.302   .     A
O1021  C1023   1.286   .     A
O1021  Zn1027  1.996   .     S
O1022  C1023   1.288   .     A
O1022  Zn1028  2.000   .     S
C1023  C1063   1.419   .     S
O1024  Zn1027  1.955   .     S
O1024  C1026   1.296   .     A
O1025  Zn1028  1.905   .     S
O1025  C1026   1.300   .     A
C1026  C1050   1.468   .     S
Zn1027 O1031   1.905   .     S
Zn1027 O1029   2.000   .     S
Zn1027 N1067   2.020   .     S
Zn1028 O1032   1.955   .     S
Zn1028 O1030   1.996   .     S
Zn1028 N1072   2.020   .     S
O1029  C1033   1.289   .     A
O1030  C1033   1.285   .     A
O1031  C1034   1.301   .     A
O1032  C1034   1.287   .     A
C1033  C1058   1.418   .     S
C1034  C1038   1.447   .     S
C1035  C1049   1.391   .     A
H1036  C1049   1.084   .     S
H1037  C423    1.080   1_556 S
C1038  C1048   1.381   .     A
C1038  C1049   1.396   .     A
C1039  C1040   1.394   .     A
C1039  N1083   1.435   .     S
C1039  C1050   1.411   .     A
C1040  H1052   1.083   .     S
C1040  C429    1.398   1_556 S
C1041  N1086   1.439   .     S
C1042  C1043   1.407   .     A
C1042  C429    1.430   1_556 S
C1042  C432    1.416   1_556 S
C1043  C1047   1.411   .     A
C1043  C1050   1.409   .     A
C1044  C1048   1.392   .     A
C1045  C1046   1.408   .     A
C1045  C423    1.410   1_556 S
C1045  C432    1.428   1_556 S
C1046  S1078   1.775   .     S
C1046  C1047   1.390   .     A
C1047  H1053   1.082   .     S
C1048  H1051   1.079   .     S
C1054  C1063   1.396   .     A
C1054  H1055   1.084   .     S
C1054  C648    1.369   1_565 S
C1056  C1058   1.398   .     A
C1056  H1057   1.084   .     S
C1058  C1059   1.396   .     A
C1059  H1060   1.084   .     S
C1061  H1062   1.084   .     S
C1061  C1063   1.398   .     A
C1061  C651    1.370   1_565 S
C1064  N1072   1.343   .     A
C1064  H1065   1.082   .     S
C1064  C1134   1.413   .     S
C1066  S1073   1.791   .     S
C1066  N1067   1.405   .     A
C1066  C1200   1.413   1_455 S
N1067  C1068   1.366   .     A
C1068  H1069   1.081   .     S
C1068  C1206   1.420   1_455 S
C1070  N1072   1.369   .     A
C1070  H1071   1.082   .     S
C1070  C1136   1.420   .     S
S1073  O1074   1.504   .     D
S1073  O1075   1.501   .     D
S1073  O1076   1.673   .     S
O1076  H1077   0.991   .     S
S1078  O1081   1.683   .     S
S1078  O1079   1.503   .     D
S1078  O1080   1.503   .     D
O1081  H1082   0.991   .     S
N1083  O1085   1.300   .     A
N1083  O1084   1.301   .     A
N1086  O1088   1.302   .     A
N1086  O1087   1.302   .     A
O1089  C1091   1.286   .     A
O1089  Zn1095  1.996   .     S
O1090  C1091   1.288   .     A
O1090  Zn1096  2.000   .     S
C1091  C1131   1.419   .     S
O1092  Zn1095  1.955   .     S
O1092  C1094   1.296   .     A
O1093  Zn1096  1.905   .     S
O1093  C1094   1.300   .     A
C1094  C1118   1.468   .     S
Zn1095 O1099   1.905   .     S
Zn1095 O1097   2.000   .     S
Zn1095 N1135   2.020   .     S
Zn1096 O1100   1.955   .     S
Zn1096 O1098   1.996   .     S
Zn1096 N1140   2.020   .     S
O1097  C1101   1.289   .     A
O1098  C1101   1.285   .     A
O1099  C1102   1.301   .     A
O1100  C1102   1.287   .     A
C1101  C1126   1.418   .     S
C1102  C1106   1.447   .     S
C1103  C1117   1.391   .     A
H1104  C1117   1.084   .     S
H1105  C491    1.080   1_556 S
C1106  C1116   1.381   .     A
C1106  C1117   1.396   .     A
C1107  C1108   1.394   .     A
C1107  N1151   1.435   .     S
C1107  C1118   1.411   .     A
C1108  H1120   1.083   .     S
C1108  C497    1.398   1_556 S
C1109  N1154   1.439   .     S
C1110  C1111   1.407   .     A
C1110  C497    1.430   1_556 S
C1110  C500    1.416   1_556 S
C1111  C1115   1.411   .     A
C1111  C1118   1.409   .     A
C1112  C1116   1.392   .     A
C1113  C1114   1.408   .     A
C1113  C491    1.410   1_556 S
C1113  C500    1.428   1_556 S
C1114  S1146   1.775   .     S
C1114  C1115   1.390   .     A
C1115  H1121   1.082   .     S
C1116  H1119   1.079   .     S
C1122  C1131   1.396   .     A
C1122  H1123   1.084   .     S
C1122  C716    1.369   1_565 S
C1124  C1126   1.398   .     A
C1124  H1125   1.084   .     S
C1126  C1127   1.396   .     A
C1127  H1128   1.084   .     S
C1129  H1130   1.084   .     S
C1129  C1131   1.398   .     A
C1129  C719    1.370   1_565 S
C1132  N1140   1.343   .     A
C1132  H1133   1.082   .     S
C1132  C1202   1.413   .     S
C1134  S1141   1.791   .     S
C1134  N1135   1.405   .     A
N1135  C1136   1.366   .     A
C1136  H1137   1.081   .     S
C1138  N1140   1.369   .     A
C1138  H1139   1.082   .     S
C1138  C1204   1.420   .     S
S1141  O1142   1.504   .     D
S1141  O1143   1.501   .     D
S1141  O1144   1.673   .     S
O1144  H1145   0.991   .     S
S1146  O1149   1.683   .     S
S1146  O1147   1.503   .     D
S1146  O1148   1.503   .     D
O1149  H1150   0.991   .     S
N1151  O1153   1.300   .     A
N1151  O1152   1.301   .     A
N1154  O1156   1.302   .     A
N1154  O1155   1.302   .     A
O1157  C1159   1.286   .     A
O1157  Zn1163  1.996   .     S
O1158  C1159   1.288   .     A
O1158  Zn1164  2.000   .     S
C1159  C1199   1.419   .     S
O1160  Zn1163  1.955   .     S
O1160  C1162   1.296   .     A
O1161  Zn1164  1.905   .     S
O1161  C1162   1.300   .     A
C1162  C1186   1.468   .     S
Zn1163 O1167   1.905   .     S
Zn1163 O1165   2.000   .     S
Zn1163 N1203   2.020   .     S
Zn1164 O1168   1.955   .     S
Zn1164 O1166   1.996   .     S
Zn1164 N1208   2.020   .     S
O1165  C1169   1.289   .     A
O1166  C1169   1.285   .     A
O1167  C1170   1.301   .     A
O1168  C1170   1.287   .     A
C1169  C1194   1.418   .     S
C1170  C1174   1.447   .     S
C1171  C1185   1.391   .     A
H1172  C1185   1.084   .     S
H1173  C559    1.080   1_556 S
C1174  C1184   1.381   .     A
C1174  C1185   1.396   .     A
C1175  C1176   1.394   .     A
C1175  N1219   1.435   .     S
C1175  C1186   1.411   .     A
C1176  H1188   1.083   .     S
C1176  C565    1.398   1_556 S
C1177  N1222   1.439   .     S
C1178  C1179   1.407   .     A
C1178  C565    1.430   1_556 S
C1178  C568    1.416   1_556 S
C1179  C1183   1.411   .     A
C1179  C1186   1.409   .     A
C1180  C1184   1.392   .     A
C1181  C1182   1.408   .     A
C1181  C559    1.410   1_556 S
C1181  C568    1.428   1_556 S
C1182  S1214   1.775   .     S
C1182  C1183   1.390   .     A
C1183  H1189   1.082   .     S
C1184  H1187   1.079   .     S
C1190  C1199   1.396   .     A
C1190  H1191   1.084   .     S
C1190  C784    1.369   1_565 S
C1192  C1194   1.398   .     A
C1192  H1193   1.084   .     S
C1194  C1195   1.396   .     A
C1195  H1196   1.084   .     S
C1197  H1198   1.084   .     S
C1197  C1199   1.398   .     A
C1197  C787    1.370   1_565 S
C1200  N1208   1.343   .     A
C1200  H1201   1.082   .     S
C1200  C1066   1.413   1_655 S
C1202  S1209   1.791   .     S
C1202  N1203   1.405   .     A
N1203  C1204   1.366   .     A
C1204  H1205   1.081   .     S
C1206  N1208   1.369   .     A
C1206  H1207   1.082   .     S
C1206  C1068   1.420   1_655 S
S1209  O1210   1.504   .     D
S1209  O1211   1.501   .     D
S1209  O1212   1.673   .     S
O1212  H1213   0.991   .     S
S1214  O1217   1.683   .     S
S1214  O1215   1.503   .     D
S1214  O1216   1.503   .     D
O1217  H1218   0.991   .     S
N1219  O1221   1.300   .     A
N1219  O1220   1.301   .     A
N1222  O1224   1.302   .     A
N1222  O1223   1.302   .     A
