data_str_m2_o1_o18_pcu_sym.100
_audit_creation_date              2020-01-03
_audit_creation_method            'Materials Studio'
_symmetry_space_group_name_H-M    'P1'
_symmetry_Int_Tables_number       1
_symmetry_cell_setting            triclinic
loop_
_symmetry_equiv_pos_as_xyz
  x,y,z
_cell_length_a                    28.6093
_cell_length_b                    32.4888
_cell_length_c                    30.9870
_cell_angle_alpha                 89.7174
_cell_angle_beta                  74.4924
_cell_angle_gamma                 90.2881
loop_
_atom_site_label
_atom_site_type_symbol
_atom_site_fract_x
_atom_site_fract_y
_atom_site_fract_z
_atom_site_U_iso_or_equiv
_atom_site_adp_type
_atom_site_occupancy
C1     C     0.33323   0.08738   0.25009   0.00000  Uiso   1.00
C2     C     0.00011   0.24596   0.24991   0.00000  Uiso   1.00
C3     C     0.19333   0.14990   0.04596   0.00000  Uiso   1.00
C4     C     0.14001   0.18343   0.45404   0.00000  Uiso   1.00
C5     C     0.24174   0.14496   0.02340   0.00000  Uiso   1.00
C6     C     0.09159   0.18837   0.47660   0.00000  Uiso   1.00
C7     C     0.29012   0.02106   0.25267   0.00000  Uiso   1.00
C8     C     0.04321   0.31227   0.24733   0.00000  Uiso   1.00
C9     C     0.29025   0.31182   0.25254   0.00000  Uiso   1.00
C10    C     0.04309   0.02152   0.24746   0.00000  Uiso   1.00
C11    C     0.00012   0.29058   0.24990   0.00000  Uiso   1.00
C12    C     0.33321   0.04275   0.25010   0.00000  Uiso   1.00
C13    C     0.18413   0.13820   0.27495   0.00000  Uiso   1.00
C14    C     0.14921   0.19514   0.22505   0.00000  Uiso   1.00
C15    C     0.13448   0.13808   0.27410   0.00000  Uiso   1.00
C16    C     0.19885   0.19526   0.22590   0.00000  Uiso   1.00
C17    C     0.30615   0.16669   0.33604   0.00000  Uiso   1.00
C18    C     0.02718   0.16664   0.16396   0.00000  Uiso   1.00
C19    C     0.29130   0.16473   0.38510   0.00000  Uiso   1.00
C20    C     0.04203   0.16861   0.11490   0.00000  Uiso   1.00
C21    C     0.30683   0.14604   0.45544   0.00000  Uiso   1.00
C22    C     0.02650   0.18729   0.04456   0.00000  Uiso   1.00
C23    C     0.32346   0.15195   0.40936   0.00000  Uiso   1.00
C24    C     0.00987   0.18139   0.09064   0.00000  Uiso   1.00
C25    C     0.24303   0.17299   0.40742   0.00000  Uiso   1.00
C26    C     0.09030   0.16035   0.09258   0.00000  Uiso   1.00
C27    C     0.22474   0.16582   0.45368   0.00000  Uiso   1.00
C28    C     0.10859   0.16751   0.04632   0.00000  Uiso   1.00
C29    C     0.25782   0.15239   0.47763   0.00000  Uiso   1.00
C30    C     0.07552   0.18094   0.02237   0.00000  Uiso   1.00
C31    C     0.17467   0.17082   0.47654   0.00000  Uiso   1.00
C32    C     0.15866   0.16251   0.02346   0.00000  Uiso   1.00
Cu33   Cu    0.04689   0.16667   0.25000   0.00000  Uiso   1.00
Cu34   Cu    0.28645   0.16666   0.25000   0.00000  Uiso   1.00
H35    H     0.26681   0.13490   0.04202   0.00000  Uiso   1.00
H36    H     0.06652   0.19843   0.45798   0.00000  Uiso   1.00
H37    H     0.11285   0.14900   0.11261   0.00000  Uiso   1.00
H38    H     0.22048   0.18434   0.38739   0.00000  Uiso   1.00
H39    H     0.30564   0.18787   0.10736   0.00000  Uiso   1.00
H40    H     0.02769   0.14546   0.39264   0.00000  Uiso   1.00
H41    H     0.33208   0.13547   0.47360   0.00000  Uiso   1.00
H42    H     0.00125   0.19786   0.02640   0.00000  Uiso   1.00
H43    H     0.18465   0.14330   0.08124   0.00000  Uiso   1.00
H44    H     0.14868   0.19004   0.41876   0.00000  Uiso   1.00
H45    H     0.25635   0.03688   0.25483   0.00000  Uiso   1.00
H46    H     0.07698   0.29645   0.24517   0.00000  Uiso   1.00
H47    H     0.25652   0.29562   0.25461   0.00000  Uiso   1.00
H48    H     0.07681   0.03771   0.24539   0.00000  Uiso   1.00
H49    H     0.10967   0.11482   0.29218   0.00000  Uiso   1.00
H50    H     0.22366   0.21852   0.20782   0.00000  Uiso   1.00
N51    N     0.11736   0.16668   0.24999   0.00000  Uiso   1.00
N52    N     0.21597   0.16666   0.25001   0.00000  Uiso   1.00
O53    O     0.03958   0.10655   0.25000   0.00000  Uiso   1.00
O54    O     0.29375   0.22678   0.25000   0.00000  Uiso   1.00
O55    O     0.29372   0.10654   0.25000   0.00000  Uiso   1.00
O56    O     0.03961   0.22679   0.24999   0.00000  Uiso   1.00
O57    O     0.01852   0.16668   0.31491   0.00000  Uiso   1.00
O58    O     0.31481   0.16666   0.18508   0.00000  Uiso   1.00
O59    O     0.27267   0.16667   0.31492   0.00000  Uiso   1.00
O60    O     0.06067   0.16667   0.18508   0.00000  Uiso   1.00
O61    O     0.20205   0.10767   0.29744   0.00000  Uiso   1.00
C62    C     0.17523   0.10518   0.34286   0.00000  Uiso   1.00
H63    H     0.13966   0.08977   0.34627   0.00000  Uiso   1.00
H64    H     0.16937   0.13619   0.35845   0.00000  Uiso   1.00
C65    C     0.20317   0.07922   0.36840   0.00000  Uiso   1.00
H66    H     0.24007   0.09219   0.36420   0.00000  Uiso   1.00
H67    H     0.18376   0.07871   0.40460   0.00000  Uiso   1.00
H68    H     0.20653   0.04721   0.35556   0.00000  Uiso   1.00
O69    O     0.13128   0.22566   0.20256   0.00000  Uiso   1.00
C70    C     0.15810   0.22815   0.15714   0.00000  Uiso   1.00
H71    H     0.16396   0.19714   0.14155   0.00000  Uiso   1.00
H72    H     0.19367   0.24356   0.15373   0.00000  Uiso   1.00
C73    C     0.13016   0.25411   0.13160   0.00000  Uiso   1.00
H74    H     0.12680   0.28612   0.14444   0.00000  Uiso   1.00
H75    H     0.14958   0.25462   0.09540   0.00000  Uiso   1.00
H76    H     0.09326   0.24115   0.13580   0.00000  Uiso   1.00
C77    C     0.66656   0.08738   0.25009   0.00000  Uiso   1.00
C78    C     0.33344   0.24596   0.24991   0.00000  Uiso   1.00
C79    C     0.52666   0.14990   0.04596   0.00000  Uiso   1.00
C80    C     0.47334   0.18343   0.45404   0.00000  Uiso   1.00
C81    C     0.57508   0.14496   0.02340   0.00000  Uiso   1.00
C82    C     0.42492   0.18837   0.47660   0.00000  Uiso   1.00
C83    C     0.62346   0.02106   0.25267   0.00000  Uiso   1.00
C84    C     0.37654   0.31227   0.24733   0.00000  Uiso   1.00
C85    C     0.62358   0.31182   0.25254   0.00000  Uiso   1.00
C86    C     0.37642   0.02152   0.24746   0.00000  Uiso   1.00
C87    C     0.33345   0.29058   0.24990   0.00000  Uiso   1.00
C88    C     0.66655   0.04275   0.25010   0.00000  Uiso   1.00
C89    C     0.51746   0.13820   0.27495   0.00000  Uiso   1.00
C90    C     0.48254   0.19514   0.22505   0.00000  Uiso   1.00
C91    C     0.46781   0.13808   0.27410   0.00000  Uiso   1.00
C92    C     0.53219   0.19526   0.22590   0.00000  Uiso   1.00
C93    C     0.63949   0.16669   0.33604   0.00000  Uiso   1.00
C94    C     0.36051   0.16664   0.16396   0.00000  Uiso   1.00
C95    C     0.62463   0.16473   0.38510   0.00000  Uiso   1.00
C96    C     0.37537   0.16861   0.11490   0.00000  Uiso   1.00
C97    C     0.64017   0.14604   0.45544   0.00000  Uiso   1.00
C98    C     0.35983   0.18729   0.04456   0.00000  Uiso   1.00
C99    C     0.65679   0.15195   0.40936   0.00000  Uiso   1.00
C100   C     0.34321   0.18139   0.09064   0.00000  Uiso   1.00
C101   C     0.57636   0.17299   0.40742   0.00000  Uiso   1.00
C102   C     0.42364   0.16035   0.09258   0.00000  Uiso   1.00
C103   C     0.55807   0.16582   0.45368   0.00000  Uiso   1.00
C104   C     0.44192   0.16751   0.04632   0.00000  Uiso   1.00
C105   C     0.59115   0.15239   0.47763   0.00000  Uiso   1.00
C106   C     0.40885   0.18094   0.02237   0.00000  Uiso   1.00
C107   C     0.50801   0.17082   0.47654   0.00000  Uiso   1.00
C108   C     0.49199   0.16251   0.02346   0.00000  Uiso   1.00
Cu109  Cu    0.38022   0.16667   0.25000   0.00000  Uiso   1.00
Cu110  Cu    0.61978   0.16666   0.25000   0.00000  Uiso   1.00
H111   H     0.60015   0.13490   0.04202   0.00000  Uiso   1.00
H112   H     0.39985   0.19843   0.45798   0.00000  Uiso   1.00
H113   H     0.44619   0.14900   0.11261   0.00000  Uiso   1.00
H114   H     0.55381   0.18434   0.38739   0.00000  Uiso   1.00
H115   H     0.63897   0.18787   0.10736   0.00000  Uiso   1.00
H116   H     0.36103   0.14546   0.39264   0.00000  Uiso   1.00
H117   H     0.66541   0.13547   0.47360   0.00000  Uiso   1.00
H118   H     0.33459   0.19786   0.02640   0.00000  Uiso   1.00
H119   H     0.51799   0.14330   0.08124   0.00000  Uiso   1.00
H120   H     0.48201   0.19004   0.41876   0.00000  Uiso   1.00
H121   H     0.58968   0.03688   0.25483   0.00000  Uiso   1.00
H122   H     0.41032   0.29645   0.24517   0.00000  Uiso   1.00
H123   H     0.58985   0.29562   0.25461   0.00000  Uiso   1.00
H124   H     0.41015   0.03771   0.24539   0.00000  Uiso   1.00
H125   H     0.44300   0.11482   0.29218   0.00000  Uiso   1.00
H126   H     0.55700   0.21852   0.20782   0.00000  Uiso   1.00
N127   N     0.45069   0.16668   0.24999   0.00000  Uiso   1.00
N128   N     0.54931   0.16666   0.25001   0.00000  Uiso   1.00
O129   O     0.37291   0.10655   0.25000   0.00000  Uiso   1.00
O130   O     0.62709   0.22678   0.25000   0.00000  Uiso   1.00
O131   O     0.62706   0.10654   0.25000   0.00000  Uiso   1.00
O132   O     0.37294   0.22679   0.24999   0.00000  Uiso   1.00
O133   O     0.35186   0.16668   0.31491   0.00000  Uiso   1.00
O134   O     0.64814   0.16666   0.18508   0.00000  Uiso   1.00
O135   O     0.60600   0.16667   0.31492   0.00000  Uiso   1.00
O136   O     0.39400   0.16667   0.18508   0.00000  Uiso   1.00
O137   O     0.53539   0.10767   0.29744   0.00000  Uiso   1.00
C138   C     0.50857   0.10518   0.34286   0.00000  Uiso   1.00
H139   H     0.47300   0.08977   0.34627   0.00000  Uiso   1.00
H140   H     0.50270   0.13619   0.35845   0.00000  Uiso   1.00
C141   C     0.53651   0.07922   0.36840   0.00000  Uiso   1.00
H142   H     0.57341   0.09219   0.36420   0.00000  Uiso   1.00
H143   H     0.51709   0.07871   0.40460   0.00000  Uiso   1.00
H144   H     0.53987   0.04721   0.35556   0.00000  Uiso   1.00
O145   O     0.46461   0.22566   0.20256   0.00000  Uiso   1.00
C146   C     0.49143   0.22815   0.15714   0.00000  Uiso   1.00
H147   H     0.49730   0.19714   0.14155   0.00000  Uiso   1.00
H148   H     0.52700   0.24356   0.15373   0.00000  Uiso   1.00
C149   C     0.46349   0.25411   0.13160   0.00000  Uiso   1.00
H150   H     0.46014   0.28612   0.14444   0.00000  Uiso   1.00
H151   H     0.48291   0.25462   0.09540   0.00000  Uiso   1.00
H152   H     0.42659   0.24115   0.13580   0.00000  Uiso   1.00
C153   C     0.99989   0.08738   0.25009   0.00000  Uiso   1.00
C154   C     0.66677   0.24596   0.24991   0.00000  Uiso   1.00
C155   C     0.85999   0.14990   0.04596   0.00000  Uiso   1.00
C156   C     0.80667   0.18343   0.45404   0.00000  Uiso   1.00
C157   C     0.90841   0.14496   0.02340   0.00000  Uiso   1.00
C158   C     0.75826   0.18837   0.47660   0.00000  Uiso   1.00
C159   C     0.95679   0.02106   0.25267   0.00000  Uiso   1.00
C160   C     0.70987   0.31227   0.24733   0.00000  Uiso   1.00
C161   C     0.95691   0.31182   0.25254   0.00000  Uiso   1.00
C162   C     0.70975   0.02152   0.24746   0.00000  Uiso   1.00
C163   C     0.66679   0.29058   0.24990   0.00000  Uiso   1.00
C164   C     0.99988   0.04275   0.25010   0.00000  Uiso   1.00
C165   C     0.85079   0.13820   0.27495   0.00000  Uiso   1.00
C166   C     0.81587   0.19514   0.22505   0.00000  Uiso   1.00
C167   C     0.80115   0.13808   0.27410   0.00000  Uiso   1.00
C168   C     0.86552   0.19526   0.22590   0.00000  Uiso   1.00
C169   C     0.97282   0.16669   0.33604   0.00000  Uiso   1.00
C170   C     0.69385   0.16664   0.16396   0.00000  Uiso   1.00
C171   C     0.95797   0.16473   0.38510   0.00000  Uiso   1.00
C172   C     0.70870   0.16861   0.11490   0.00000  Uiso   1.00
C173   C     0.97350   0.14604   0.45544   0.00000  Uiso   1.00
C174   C     0.69317   0.18729   0.04456   0.00000  Uiso   1.00
C175   C     0.99013   0.15195   0.40936   0.00000  Uiso   1.00
C176   C     0.67654   0.18139   0.09064   0.00000  Uiso   1.00
C177   C     0.90970   0.17299   0.40742   0.00000  Uiso   1.00
C178   C     0.75697   0.16035   0.09258   0.00000  Uiso   1.00
C179   C     0.89141   0.16582   0.45368   0.00000  Uiso   1.00
C180   C     0.77526   0.16751   0.04632   0.00000  Uiso   1.00
C181   C     0.92448   0.15239   0.47763   0.00000  Uiso   1.00
C182   C     0.74218   0.18094   0.02237   0.00000  Uiso   1.00
C183   C     0.84134   0.17082   0.47654   0.00000  Uiso   1.00
C184   C     0.82533   0.16251   0.02346   0.00000  Uiso   1.00
Cu185  Cu    0.71355   0.16667   0.25000   0.00000  Uiso   1.00
Cu186  Cu    0.95311   0.16666   0.25000   0.00000  Uiso   1.00
H187   H     0.93348   0.13490   0.04202   0.00000  Uiso   1.00
H188   H     0.73319   0.19843   0.45798   0.00000  Uiso   1.00
H189   H     0.77952   0.14900   0.11261   0.00000  Uiso   1.00
H190   H     0.88714   0.18434   0.38739   0.00000  Uiso   1.00
H191   H     0.97231   0.18787   0.10736   0.00000  Uiso   1.00
H192   H     0.69436   0.14546   0.39264   0.00000  Uiso   1.00
H193   H     0.99875   0.13547   0.47360   0.00000  Uiso   1.00
H194   H     0.66792   0.19786   0.02640   0.00000  Uiso   1.00
H195   H     0.85132   0.14330   0.08124   0.00000  Uiso   1.00
H196   H     0.81534   0.19004   0.41876   0.00000  Uiso   1.00
H197   H     0.92302   0.03688   0.25483   0.00000  Uiso   1.00
H198   H     0.74365   0.29645   0.24517   0.00000  Uiso   1.00
H199   H     0.92319   0.29562   0.25461   0.00000  Uiso   1.00
H200   H     0.74348   0.03771   0.24539   0.00000  Uiso   1.00
H201   H     0.77634   0.11482   0.29218   0.00000  Uiso   1.00
H202   H     0.89033   0.21852   0.20782   0.00000  Uiso   1.00
N203   N     0.78403   0.16668   0.24999   0.00000  Uiso   1.00
N204   N     0.88264   0.16666   0.25001   0.00000  Uiso   1.00
O205   O     0.70625   0.10655   0.25000   0.00000  Uiso   1.00
O206   O     0.96042   0.22678   0.25000   0.00000  Uiso   1.00
O207   O     0.96039   0.10654   0.25000   0.00000  Uiso   1.00
O208   O     0.70628   0.22679   0.24999   0.00000  Uiso   1.00
O209   O     0.68519   0.16668   0.31491   0.00000  Uiso   1.00
O210   O     0.98148   0.16666   0.18508   0.00000  Uiso   1.00
O211   O     0.93933   0.16667   0.31492   0.00000  Uiso   1.00
O212   O     0.72733   0.16667   0.18508   0.00000  Uiso   1.00
O213   O     0.86872   0.10767   0.29744   0.00000  Uiso   1.00
C214   C     0.84190   0.10518   0.34286   0.00000  Uiso   1.00
H215   H     0.80633   0.08977   0.34627   0.00000  Uiso   1.00
H216   H     0.83603   0.13619   0.35845   0.00000  Uiso   1.00
C217   C     0.86984   0.07922   0.36840   0.00000  Uiso   1.00
H218   H     0.90674   0.09219   0.36420   0.00000  Uiso   1.00
H219   H     0.85042   0.07871   0.40460   0.00000  Uiso   1.00
H220   H     0.87320   0.04721   0.35556   0.00000  Uiso   1.00
O221   O     0.79795   0.22566   0.20256   0.00000  Uiso   1.00
C222   C     0.82477   0.22815   0.15714   0.00000  Uiso   1.00
H223   H     0.83063   0.19714   0.14155   0.00000  Uiso   1.00
H224   H     0.86034   0.24356   0.15373   0.00000  Uiso   1.00
C225   C     0.79683   0.25411   0.13160   0.00000  Uiso   1.00
H226   H     0.79347   0.28612   0.14444   0.00000  Uiso   1.00
H227   H     0.81624   0.25462   0.09540   0.00000  Uiso   1.00
H228   H     0.75992   0.24115   0.13580   0.00000  Uiso   1.00
C229   C     0.33323   0.42071   0.25009   0.00000  Uiso   1.00
C230   C     0.00011   0.57929   0.24991   0.00000  Uiso   1.00
C231   C     0.19333   0.48323   0.04596   0.00000  Uiso   1.00
C232   C     0.14001   0.51677   0.45404   0.00000  Uiso   1.00
C233   C     0.24174   0.47830   0.02340   0.00000  Uiso   1.00
C234   C     0.09159   0.52171   0.47660   0.00000  Uiso   1.00
C235   C     0.29012   0.35439   0.25267   0.00000  Uiso   1.00
C236   C     0.04321   0.64561   0.24733   0.00000  Uiso   1.00
C237   C     0.29025   0.64515   0.25254   0.00000  Uiso   1.00
C238   C     0.04309   0.35485   0.24746   0.00000  Uiso   1.00
C239   C     0.00012   0.62392   0.24990   0.00000  Uiso   1.00
C240   C     0.33321   0.37608   0.25010   0.00000  Uiso   1.00
C241   C     0.18413   0.47153   0.27495   0.00000  Uiso   1.00
C242   C     0.14921   0.52847   0.22505   0.00000  Uiso   1.00
C243   C     0.13448   0.47141   0.27410   0.00000  Uiso   1.00
C244   C     0.19885   0.52859   0.22590   0.00000  Uiso   1.00
C245   C     0.30615   0.50003   0.33604   0.00000  Uiso   1.00
C246   C     0.02718   0.49997   0.16396   0.00000  Uiso   1.00
C247   C     0.29130   0.49806   0.38510   0.00000  Uiso   1.00
C248   C     0.04203   0.50194   0.11490   0.00000  Uiso   1.00
C249   C     0.30683   0.47938   0.45544   0.00000  Uiso   1.00
C250   C     0.02650   0.52063   0.04456   0.00000  Uiso   1.00
C251   C     0.32346   0.48528   0.40936   0.00000  Uiso   1.00
C252   C     0.00987   0.51472   0.09064   0.00000  Uiso   1.00
C253   C     0.24303   0.50632   0.40742   0.00000  Uiso   1.00
C254   C     0.09030   0.49368   0.09258   0.00000  Uiso   1.00
C255   C     0.22474   0.49916   0.45368   0.00000  Uiso   1.00
C256   C     0.10859   0.50084   0.04632   0.00000  Uiso   1.00
C257   C     0.25782   0.48573   0.47763   0.00000  Uiso   1.00
C258   C     0.07552   0.51427   0.02237   0.00000  Uiso   1.00
C259   C     0.17467   0.50416   0.47654   0.00000  Uiso   1.00
C260   C     0.15866   0.49584   0.02346   0.00000  Uiso   1.00
Cu261  Cu    0.04689   0.50001   0.25000   0.00000  Uiso   1.00
Cu262  Cu    0.28645   0.49999   0.25000   0.00000  Uiso   1.00
H263   H     0.26681   0.46824   0.04202   0.00000  Uiso   1.00
H264   H     0.06652   0.53177   0.45798   0.00000  Uiso   1.00
H265   H     0.11285   0.48233   0.11261   0.00000  Uiso   1.00
H266   H     0.22048   0.51767   0.38739   0.00000  Uiso   1.00
H267   H     0.30564   0.52121   0.10736   0.00000  Uiso   1.00
H268   H     0.02769   0.47880   0.39264   0.00000  Uiso   1.00
H269   H     0.33208   0.46880   0.47360   0.00000  Uiso   1.00
H270   H     0.00125   0.53120   0.02640   0.00000  Uiso   1.00
H271   H     0.18465   0.47663   0.08124   0.00000  Uiso   1.00
H272   H     0.14868   0.52337   0.41876   0.00000  Uiso   1.00
H273   H     0.25635   0.37021   0.25483   0.00000  Uiso   1.00
H274   H     0.07698   0.62979   0.24517   0.00000  Uiso   1.00
H275   H     0.25652   0.62895   0.25461   0.00000  Uiso   1.00
H276   H     0.07681   0.37105   0.24539   0.00000  Uiso   1.00
H277   H     0.10967   0.44815   0.29218   0.00000  Uiso   1.00
H278   H     0.22366   0.55185   0.20782   0.00000  Uiso   1.00
N279   N     0.11736   0.50001   0.24999   0.00000  Uiso   1.00
N280   N     0.21597   0.49999   0.25001   0.00000  Uiso   1.00
O281   O     0.03958   0.43989   0.25000   0.00000  Uiso   1.00
O282   O     0.29375   0.56011   0.25000   0.00000  Uiso   1.00
O283   O     0.29372   0.43988   0.25000   0.00000  Uiso   1.00
O284   O     0.03961   0.56012   0.24999   0.00000  Uiso   1.00
O285   O     0.01852   0.50001   0.31491   0.00000  Uiso   1.00
O286   O     0.31481   0.49999   0.18508   0.00000  Uiso   1.00
O287   O     0.27267   0.50000   0.31492   0.00000  Uiso   1.00
O288   O     0.06067   0.50000   0.18508   0.00000  Uiso   1.00
O289   O     0.20205   0.44100   0.29744   0.00000  Uiso   1.00
C290   C     0.17523   0.43851   0.34286   0.00000  Uiso   1.00
H291   H     0.13966   0.42310   0.34627   0.00000  Uiso   1.00
H292   H     0.16937   0.46953   0.35845   0.00000  Uiso   1.00
C293   C     0.20317   0.41256   0.36840   0.00000  Uiso   1.00
H294   H     0.24007   0.42552   0.36420   0.00000  Uiso   1.00
H295   H     0.18376   0.41204   0.40460   0.00000  Uiso   1.00
H296   H     0.20653   0.38055   0.35556   0.00000  Uiso   1.00
O297   O     0.13128   0.55900   0.20256   0.00000  Uiso   1.00
C298   C     0.15810   0.56149   0.15714   0.00000  Uiso   1.00
H299   H     0.16396   0.53047   0.14155   0.00000  Uiso   1.00
H300   H     0.19367   0.57689   0.15373   0.00000  Uiso   1.00
C301   C     0.13016   0.58744   0.13160   0.00000  Uiso   1.00
H302   H     0.12680   0.61945   0.14444   0.00000  Uiso   1.00
H303   H     0.14958   0.58796   0.09540   0.00000  Uiso   1.00
H304   H     0.09326   0.57448   0.13580   0.00000  Uiso   1.00
C305   C     0.66656   0.42071   0.25009   0.00000  Uiso   1.00
C306   C     0.33344   0.57929   0.24991   0.00000  Uiso   1.00
C307   C     0.52666   0.48323   0.04596   0.00000  Uiso   1.00
C308   C     0.47334   0.51677   0.45404   0.00000  Uiso   1.00
C309   C     0.57508   0.47830   0.02340   0.00000  Uiso   1.00
C310   C     0.42492   0.52171   0.47660   0.00000  Uiso   1.00
C311   C     0.62346   0.35439   0.25267   0.00000  Uiso   1.00
C312   C     0.37654   0.64561   0.24733   0.00000  Uiso   1.00
C313   C     0.62358   0.64515   0.25254   0.00000  Uiso   1.00
C314   C     0.37642   0.35485   0.24746   0.00000  Uiso   1.00
C315   C     0.33345   0.62392   0.24990   0.00000  Uiso   1.00
C316   C     0.66655   0.37608   0.25010   0.00000  Uiso   1.00
C317   C     0.51746   0.47153   0.27495   0.00000  Uiso   1.00
C318   C     0.48254   0.52847   0.22505   0.00000  Uiso   1.00
C319   C     0.46781   0.47141   0.27410   0.00000  Uiso   1.00
C320   C     0.53219   0.52859   0.22590   0.00000  Uiso   1.00
C321   C     0.63949   0.50003   0.33604   0.00000  Uiso   1.00
C322   C     0.36051   0.49997   0.16396   0.00000  Uiso   1.00
C323   C     0.62463   0.49806   0.38510   0.00000  Uiso   1.00
C324   C     0.37537   0.50194   0.11490   0.00000  Uiso   1.00
C325   C     0.64017   0.47938   0.45544   0.00000  Uiso   1.00
C326   C     0.35983   0.52063   0.04456   0.00000  Uiso   1.00
C327   C     0.65679   0.48528   0.40936   0.00000  Uiso   1.00
C328   C     0.34321   0.51472   0.09064   0.00000  Uiso   1.00
C329   C     0.57636   0.50632   0.40742   0.00000  Uiso   1.00
C330   C     0.42364   0.49368   0.09258   0.00000  Uiso   1.00
C331   C     0.55807   0.49916   0.45368   0.00000  Uiso   1.00
C332   C     0.44192   0.50084   0.04632   0.00000  Uiso   1.00
C333   C     0.59115   0.48573   0.47763   0.00000  Uiso   1.00
C334   C     0.40885   0.51427   0.02237   0.00000  Uiso   1.00
C335   C     0.50801   0.50416   0.47654   0.00000  Uiso   1.00
C336   C     0.49199   0.49584   0.02346   0.00000  Uiso   1.00
Cu337  Cu    0.38022   0.50001   0.25000   0.00000  Uiso   1.00
Cu338  Cu    0.61978   0.49999   0.25000   0.00000  Uiso   1.00
H339   H     0.60015   0.46824   0.04202   0.00000  Uiso   1.00
H340   H     0.39985   0.53177   0.45798   0.00000  Uiso   1.00
H341   H     0.44619   0.48233   0.11261   0.00000  Uiso   1.00
H342   H     0.55381   0.51767   0.38739   0.00000  Uiso   1.00
H343   H     0.63897   0.52121   0.10736   0.00000  Uiso   1.00
H344   H     0.36103   0.47880   0.39264   0.00000  Uiso   1.00
H345   H     0.66541   0.46880   0.47360   0.00000  Uiso   1.00
H346   H     0.33459   0.53120   0.02640   0.00000  Uiso   1.00
H347   H     0.51799   0.47663   0.08124   0.00000  Uiso   1.00
H348   H     0.48201   0.52337   0.41876   0.00000  Uiso   1.00
H349   H     0.58968   0.37021   0.25483   0.00000  Uiso   1.00
H350   H     0.41032   0.62979   0.24517   0.00000  Uiso   1.00
H351   H     0.58985   0.62895   0.25461   0.00000  Uiso   1.00
H352   H     0.41015   0.37105   0.24539   0.00000  Uiso   1.00
H353   H     0.44300   0.44815   0.29218   0.00000  Uiso   1.00
H354   H     0.55700   0.55185   0.20782   0.00000  Uiso   1.00
N355   N     0.45069   0.50001   0.24999   0.00000  Uiso   1.00
N356   N     0.54931   0.49999   0.25001   0.00000  Uiso   1.00
O357   O     0.37291   0.43989   0.25000   0.00000  Uiso   1.00
O358   O     0.62709   0.56011   0.25000   0.00000  Uiso   1.00
O359   O     0.62706   0.43988   0.25000   0.00000  Uiso   1.00
O360   O     0.37294   0.56012   0.24999   0.00000  Uiso   1.00
O361   O     0.35186   0.50001   0.31491   0.00000  Uiso   1.00
O362   O     0.64814   0.49999   0.18508   0.00000  Uiso   1.00
O363   O     0.60600   0.50000   0.31492   0.00000  Uiso   1.00
O364   O     0.39400   0.50000   0.18508   0.00000  Uiso   1.00
O365   O     0.53539   0.44100   0.29744   0.00000  Uiso   1.00
C366   C     0.50857   0.43851   0.34286   0.00000  Uiso   1.00
H367   H     0.47300   0.42310   0.34627   0.00000  Uiso   1.00
H368   H     0.50270   0.46953   0.35845   0.00000  Uiso   1.00
C369   C     0.53651   0.41256   0.36840   0.00000  Uiso   1.00
H370   H     0.57341   0.42552   0.36420   0.00000  Uiso   1.00
H371   H     0.51709   0.41204   0.40460   0.00000  Uiso   1.00
H372   H     0.53987   0.38055   0.35556   0.00000  Uiso   1.00
O373   O     0.46461   0.55900   0.20256   0.00000  Uiso   1.00
C374   C     0.49143   0.56149   0.15714   0.00000  Uiso   1.00
H375   H     0.49730   0.53047   0.14155   0.00000  Uiso   1.00
H376   H     0.52700   0.57689   0.15373   0.00000  Uiso   1.00
C377   C     0.46349   0.58744   0.13160   0.00000  Uiso   1.00
H378   H     0.46014   0.61945   0.14444   0.00000  Uiso   1.00
H379   H     0.48291   0.58796   0.09540   0.00000  Uiso   1.00
H380   H     0.42659   0.57448   0.13580   0.00000  Uiso   1.00
C381   C     0.99989   0.42071   0.25009   0.00000  Uiso   1.00
C382   C     0.66677   0.57929   0.24991   0.00000  Uiso   1.00
C383   C     0.85999   0.48323   0.04596   0.00000  Uiso   1.00
C384   C     0.80667   0.51677   0.45404   0.00000  Uiso   1.00
C385   C     0.90841   0.47830   0.02340   0.00000  Uiso   1.00
C386   C     0.75826   0.52171   0.47660   0.00000  Uiso   1.00
C387   C     0.95679   0.35439   0.25267   0.00000  Uiso   1.00
C388   C     0.70987   0.64561   0.24733   0.00000  Uiso   1.00
C389   C     0.95691   0.64515   0.25254   0.00000  Uiso   1.00
C390   C     0.70975   0.35485   0.24746   0.00000  Uiso   1.00
C391   C     0.66679   0.62392   0.24990   0.00000  Uiso   1.00
C392   C     0.99988   0.37608   0.25010   0.00000  Uiso   1.00
C393   C     0.85079   0.47153   0.27495   0.00000  Uiso   1.00
C394   C     0.81587   0.52847   0.22505   0.00000  Uiso   1.00
C395   C     0.80115   0.47141   0.27410   0.00000  Uiso   1.00
C396   C     0.86552   0.52859   0.22590   0.00000  Uiso   1.00
C397   C     0.97282   0.50003   0.33604   0.00000  Uiso   1.00
C398   C     0.69385   0.49997   0.16396   0.00000  Uiso   1.00
C399   C     0.95797   0.49806   0.38510   0.00000  Uiso   1.00
C400   C     0.70870   0.50194   0.11490   0.00000  Uiso   1.00
C401   C     0.97350   0.47938   0.45544   0.00000  Uiso   1.00
C402   C     0.69317   0.52063   0.04456   0.00000  Uiso   1.00
C403   C     0.99013   0.48528   0.40936   0.00000  Uiso   1.00
C404   C     0.67654   0.51472   0.09064   0.00000  Uiso   1.00
C405   C     0.90970   0.50632   0.40742   0.00000  Uiso   1.00
C406   C     0.75697   0.49368   0.09258   0.00000  Uiso   1.00
C407   C     0.89141   0.49916   0.45368   0.00000  Uiso   1.00
C408   C     0.77526   0.50084   0.04632   0.00000  Uiso   1.00
C409   C     0.92448   0.48573   0.47763   0.00000  Uiso   1.00
C410   C     0.74218   0.51427   0.02237   0.00000  Uiso   1.00
C411   C     0.84134   0.50416   0.47654   0.00000  Uiso   1.00
C412   C     0.82533   0.49584   0.02346   0.00000  Uiso   1.00
Cu413  Cu    0.71355   0.50001   0.25000   0.00000  Uiso   1.00
Cu414  Cu    0.95311   0.49999   0.25000   0.00000  Uiso   1.00
H415   H     0.93348   0.46824   0.04202   0.00000  Uiso   1.00
H416   H     0.73319   0.53177   0.45798   0.00000  Uiso   1.00
H417   H     0.77952   0.48233   0.11261   0.00000  Uiso   1.00
H418   H     0.88714   0.51767   0.38739   0.00000  Uiso   1.00
H419   H     0.97231   0.52121   0.10736   0.00000  Uiso   1.00
H420   H     0.69436   0.47880   0.39264   0.00000  Uiso   1.00
H421   H     0.99875   0.46880   0.47360   0.00000  Uiso   1.00
H422   H     0.66792   0.53120   0.02640   0.00000  Uiso   1.00
H423   H     0.85132   0.47663   0.08124   0.00000  Uiso   1.00
H424   H     0.81534   0.52337   0.41876   0.00000  Uiso   1.00
H425   H     0.92302   0.37021   0.25483   0.00000  Uiso   1.00
H426   H     0.74365   0.62979   0.24517   0.00000  Uiso   1.00
H427   H     0.92319   0.62895   0.25461   0.00000  Uiso   1.00
H428   H     0.74348   0.37105   0.24539   0.00000  Uiso   1.00
H429   H     0.77634   0.44815   0.29218   0.00000  Uiso   1.00
H430   H     0.89033   0.55185   0.20782   0.00000  Uiso   1.00
N431   N     0.78403   0.50001   0.24999   0.00000  Uiso   1.00
N432   N     0.88264   0.49999   0.25001   0.00000  Uiso   1.00
O433   O     0.70625   0.43989   0.25000   0.00000  Uiso   1.00
O434   O     0.96042   0.56011   0.25000   0.00000  Uiso   1.00
O435   O     0.96039   0.43988   0.25000   0.00000  Uiso   1.00
O436   O     0.70628   0.56012   0.24999   0.00000  Uiso   1.00
O437   O     0.68519   0.50001   0.31491   0.00000  Uiso   1.00
O438   O     0.98148   0.49999   0.18508   0.00000  Uiso   1.00
O439   O     0.93933   0.50000   0.31492   0.00000  Uiso   1.00
O440   O     0.72733   0.50000   0.18508   0.00000  Uiso   1.00
O441   O     0.86872   0.44100   0.29744   0.00000  Uiso   1.00
C442   C     0.84190   0.43851   0.34286   0.00000  Uiso   1.00
H443   H     0.80633   0.42310   0.34627   0.00000  Uiso   1.00
H444   H     0.83603   0.46953   0.35845   0.00000  Uiso   1.00
C445   C     0.86984   0.41256   0.36840   0.00000  Uiso   1.00
H446   H     0.90674   0.42552   0.36420   0.00000  Uiso   1.00
H447   H     0.85042   0.41204   0.40460   0.00000  Uiso   1.00
H448   H     0.87320   0.38055   0.35556   0.00000  Uiso   1.00
O449   O     0.79795   0.55900   0.20256   0.00000  Uiso   1.00
C450   C     0.82477   0.56149   0.15714   0.00000  Uiso   1.00
H451   H     0.83063   0.53047   0.14155   0.00000  Uiso   1.00
H452   H     0.86034   0.57689   0.15373   0.00000  Uiso   1.00
C453   C     0.79683   0.58744   0.13160   0.00000  Uiso   1.00
H454   H     0.79347   0.61945   0.14444   0.00000  Uiso   1.00
H455   H     0.81624   0.58796   0.09540   0.00000  Uiso   1.00
H456   H     0.75992   0.57448   0.13580   0.00000  Uiso   1.00
C457   C     0.33323   0.75404   0.25009   0.00000  Uiso   1.00
C458   C     0.00011   0.91262   0.24991   0.00000  Uiso   1.00
C459   C     0.19333   0.81657   0.04596   0.00000  Uiso   1.00
C460   C     0.14001   0.85010   0.45404   0.00000  Uiso   1.00
C461   C     0.24174   0.81163   0.02340   0.00000  Uiso   1.00
C462   C     0.09159   0.85504   0.47660   0.00000  Uiso   1.00
C463   C     0.29012   0.68773   0.25267   0.00000  Uiso   1.00
C464   C     0.04321   0.97894   0.24733   0.00000  Uiso   1.00
C465   C     0.29025   0.97848   0.25254   0.00000  Uiso   1.00
C466   C     0.04309   0.68818   0.24746   0.00000  Uiso   1.00
C467   C     0.00012   0.95725   0.24990   0.00000  Uiso   1.00
C468   C     0.33321   0.70942   0.25010   0.00000  Uiso   1.00
C469   C     0.18413   0.80486   0.27495   0.00000  Uiso   1.00
C470   C     0.14921   0.86180   0.22505   0.00000  Uiso   1.00
C471   C     0.13448   0.80474   0.27410   0.00000  Uiso   1.00
C472   C     0.19885   0.86193   0.22590   0.00000  Uiso   1.00
C473   C     0.30615   0.83336   0.33604   0.00000  Uiso   1.00
C474   C     0.02718   0.83331   0.16396   0.00000  Uiso   1.00
C475   C     0.29130   0.83139   0.38510   0.00000  Uiso   1.00
C476   C     0.04203   0.83527   0.11490   0.00000  Uiso   1.00
C477   C     0.30683   0.81271   0.45544   0.00000  Uiso   1.00
C478   C     0.02650   0.85396   0.04456   0.00000  Uiso   1.00
C479   C     0.32346   0.81861   0.40936   0.00000  Uiso   1.00
C480   C     0.00987   0.84805   0.09064   0.00000  Uiso   1.00
C481   C     0.24303   0.83965   0.40742   0.00000  Uiso   1.00
C482   C     0.09030   0.82701   0.09258   0.00000  Uiso   1.00
C483   C     0.22474   0.83249   0.45368   0.00000  Uiso   1.00
C484   C     0.10859   0.83418   0.04632   0.00000  Uiso   1.00
C485   C     0.25782   0.81906   0.47763   0.00000  Uiso   1.00
C486   C     0.07552   0.84761   0.02237   0.00000  Uiso   1.00
C487   C     0.17467   0.83749   0.47654   0.00000  Uiso   1.00
C488   C     0.15866   0.82918   0.02346   0.00000  Uiso   1.00
Cu489  Cu    0.04689   0.83334   0.25000   0.00000  Uiso   1.00
Cu490  Cu    0.28645   0.83333   0.25000   0.00000  Uiso   1.00
H491   H     0.26681   0.80157   0.04202   0.00000  Uiso   1.00
H492   H     0.06652   0.86510   0.45798   0.00000  Uiso   1.00
H493   H     0.11285   0.81566   0.11261   0.00000  Uiso   1.00
H494   H     0.22048   0.85100   0.38739   0.00000  Uiso   1.00
H495   H     0.30564   0.85454   0.10736   0.00000  Uiso   1.00
H496   H     0.02769   0.81213   0.39264   0.00000  Uiso   1.00
H497   H     0.33208   0.80214   0.47360   0.00000  Uiso   1.00
H498   H     0.00125   0.86453   0.02640   0.00000  Uiso   1.00
H499   H     0.18465   0.80996   0.08124   0.00000  Uiso   1.00
H500   H     0.14868   0.85670   0.41876   0.00000  Uiso   1.00
H501   H     0.25635   0.70355   0.25483   0.00000  Uiso   1.00
H502   H     0.07698   0.96312   0.24517   0.00000  Uiso   1.00
H503   H     0.25652   0.96229   0.25461   0.00000  Uiso   1.00
H504   H     0.07681   0.70438   0.24539   0.00000  Uiso   1.00
H505   H     0.10967   0.78148   0.29218   0.00000  Uiso   1.00
H506   H     0.22366   0.88518   0.20782   0.00000  Uiso   1.00
N507   N     0.11736   0.83334   0.24999   0.00000  Uiso   1.00
N508   N     0.21597   0.83332   0.25001   0.00000  Uiso   1.00
O509   O     0.03958   0.77322   0.25000   0.00000  Uiso   1.00
O510   O     0.29375   0.89345   0.25000   0.00000  Uiso   1.00
O511   O     0.29372   0.77321   0.25000   0.00000  Uiso   1.00
O512   O     0.03961   0.89346   0.24999   0.00000  Uiso   1.00
O513   O     0.01852   0.83334   0.31491   0.00000  Uiso   1.00
O514   O     0.31481   0.83332   0.18508   0.00000  Uiso   1.00
O515   O     0.27267   0.83333   0.31492   0.00000  Uiso   1.00
O516   O     0.06067   0.83333   0.18508   0.00000  Uiso   1.00
O517   O     0.20205   0.77434   0.29744   0.00000  Uiso   1.00
C518   C     0.17523   0.77184   0.34286   0.00000  Uiso   1.00
H519   H     0.13966   0.75644   0.34627   0.00000  Uiso   1.00
H520   H     0.16937   0.80286   0.35845   0.00000  Uiso   1.00
C521   C     0.20317   0.74589   0.36840   0.00000  Uiso   1.00
H522   H     0.24007   0.75885   0.36420   0.00000  Uiso   1.00
H523   H     0.18376   0.74537   0.40460   0.00000  Uiso   1.00
H524   H     0.20653   0.71388   0.35556   0.00000  Uiso   1.00
O525   O     0.13128   0.89233   0.20256   0.00000  Uiso   1.00
C526   C     0.15810   0.89482   0.15714   0.00000  Uiso   1.00
H527   H     0.16396   0.86380   0.14155   0.00000  Uiso   1.00
H528   H     0.19367   0.91022   0.15373   0.00000  Uiso   1.00
C529   C     0.13016   0.92078   0.13160   0.00000  Uiso   1.00
H530   H     0.12680   0.95279   0.14444   0.00000  Uiso   1.00
H531   H     0.14958   0.92129   0.09540   0.00000  Uiso   1.00
H532   H     0.09326   0.90781   0.13580   0.00000  Uiso   1.00
C533   C     0.66656   0.75404   0.25009   0.00000  Uiso   1.00
C534   C     0.33344   0.91262   0.24991   0.00000  Uiso   1.00
C535   C     0.52666   0.81657   0.04596   0.00000  Uiso   1.00
C536   C     0.47334   0.85010   0.45404   0.00000  Uiso   1.00
C537   C     0.57508   0.81163   0.02340   0.00000  Uiso   1.00
C538   C     0.42492   0.85504   0.47660   0.00000  Uiso   1.00
C539   C     0.62346   0.68773   0.25267   0.00000  Uiso   1.00
C540   C     0.37654   0.97894   0.24733   0.00000  Uiso   1.00
C541   C     0.62358   0.97848   0.25254   0.00000  Uiso   1.00
C542   C     0.37642   0.68818   0.24746   0.00000  Uiso   1.00
C543   C     0.33345   0.95725   0.24990   0.00000  Uiso   1.00
C544   C     0.66655   0.70942   0.25010   0.00000  Uiso   1.00
C545   C     0.51746   0.80486   0.27495   0.00000  Uiso   1.00
C546   C     0.48254   0.86180   0.22505   0.00000  Uiso   1.00
C547   C     0.46781   0.80474   0.27410   0.00000  Uiso   1.00
C548   C     0.53219   0.86193   0.22590   0.00000  Uiso   1.00
C549   C     0.63949   0.83336   0.33604   0.00000  Uiso   1.00
C550   C     0.36051   0.83331   0.16396   0.00000  Uiso   1.00
C551   C     0.62463   0.83139   0.38510   0.00000  Uiso   1.00
C552   C     0.37537   0.83527   0.11490   0.00000  Uiso   1.00
C553   C     0.64017   0.81271   0.45544   0.00000  Uiso   1.00
C554   C     0.35983   0.85396   0.04456   0.00000  Uiso   1.00
C555   C     0.65679   0.81861   0.40936   0.00000  Uiso   1.00
C556   C     0.34321   0.84805   0.09064   0.00000  Uiso   1.00
C557   C     0.57636   0.83965   0.40742   0.00000  Uiso   1.00
C558   C     0.42364   0.82701   0.09258   0.00000  Uiso   1.00
C559   C     0.55807   0.83249   0.45368   0.00000  Uiso   1.00
C560   C     0.44192   0.83418   0.04632   0.00000  Uiso   1.00
C561   C     0.59115   0.81906   0.47763   0.00000  Uiso   1.00
C562   C     0.40885   0.84761   0.02237   0.00000  Uiso   1.00
C563   C     0.50801   0.83749   0.47654   0.00000  Uiso   1.00
C564   C     0.49199   0.82918   0.02346   0.00000  Uiso   1.00
Cu565  Cu    0.38022   0.83334   0.25000   0.00000  Uiso   1.00
Cu566  Cu    0.61978   0.83333   0.25000   0.00000  Uiso   1.00
H567   H     0.60015   0.80157   0.04202   0.00000  Uiso   1.00
H568   H     0.39985   0.86510   0.45798   0.00000  Uiso   1.00
H569   H     0.44619   0.81566   0.11261   0.00000  Uiso   1.00
H570   H     0.55381   0.85100   0.38739   0.00000  Uiso   1.00
H571   H     0.63897   0.85454   0.10736   0.00000  Uiso   1.00
H572   H     0.36103   0.81213   0.39264   0.00000  Uiso   1.00
H573   H     0.66541   0.80214   0.47360   0.00000  Uiso   1.00
H574   H     0.33459   0.86453   0.02640   0.00000  Uiso   1.00
H575   H     0.51799   0.80996   0.08124   0.00000  Uiso   1.00
H576   H     0.48201   0.85670   0.41876   0.00000  Uiso   1.00
H577   H     0.58968   0.70355   0.25483   0.00000  Uiso   1.00
H578   H     0.41032   0.96312   0.24517   0.00000  Uiso   1.00
H579   H     0.58985   0.96229   0.25461   0.00000  Uiso   1.00
H580   H     0.41015   0.70438   0.24539   0.00000  Uiso   1.00
H581   H     0.44300   0.78148   0.29218   0.00000  Uiso   1.00
H582   H     0.55700   0.88518   0.20782   0.00000  Uiso   1.00
N583   N     0.45069   0.83334   0.24999   0.00000  Uiso   1.00
N584   N     0.54931   0.83332   0.25001   0.00000  Uiso   1.00
O585   O     0.37291   0.77322   0.25000   0.00000  Uiso   1.00
O586   O     0.62709   0.89345   0.25000   0.00000  Uiso   1.00
O587   O     0.62706   0.77321   0.25000   0.00000  Uiso   1.00
O588   O     0.37294   0.89346   0.24999   0.00000  Uiso   1.00
O589   O     0.35186   0.83334   0.31491   0.00000  Uiso   1.00
O590   O     0.64814   0.83332   0.18508   0.00000  Uiso   1.00
O591   O     0.60600   0.83333   0.31492   0.00000  Uiso   1.00
O592   O     0.39400   0.83333   0.18508   0.00000  Uiso   1.00
O593   O     0.53539   0.77434   0.29744   0.00000  Uiso   1.00
C594   C     0.50857   0.77184   0.34286   0.00000  Uiso   1.00
H595   H     0.47300   0.75644   0.34627   0.00000  Uiso   1.00
H596   H     0.50270   0.80286   0.35845   0.00000  Uiso   1.00
C597   C     0.53651   0.74589   0.36840   0.00000  Uiso   1.00
H598   H     0.57341   0.75885   0.36420   0.00000  Uiso   1.00
H599   H     0.51709   0.74537   0.40460   0.00000  Uiso   1.00
H600   H     0.53987   0.71388   0.35556   0.00000  Uiso   1.00
O601   O     0.46461   0.89233   0.20256   0.00000  Uiso   1.00
C602   C     0.49143   0.89482   0.15714   0.00000  Uiso   1.00
H603   H     0.49730   0.86380   0.14155   0.00000  Uiso   1.00
H604   H     0.52700   0.91022   0.15373   0.00000  Uiso   1.00
C605   C     0.46349   0.92078   0.13160   0.00000  Uiso   1.00
H606   H     0.46014   0.95279   0.14444   0.00000  Uiso   1.00
H607   H     0.48291   0.92129   0.09540   0.00000  Uiso   1.00
H608   H     0.42659   0.90781   0.13580   0.00000  Uiso   1.00
C609   C     0.99989   0.75404   0.25009   0.00000  Uiso   1.00
C610   C     0.66677   0.91262   0.24991   0.00000  Uiso   1.00
C611   C     0.85999   0.81657   0.04596   0.00000  Uiso   1.00
C612   C     0.80667   0.85010   0.45404   0.00000  Uiso   1.00
C613   C     0.90841   0.81163   0.02340   0.00000  Uiso   1.00
C614   C     0.75826   0.85504   0.47660   0.00000  Uiso   1.00
C615   C     0.95679   0.68773   0.25267   0.00000  Uiso   1.00
C616   C     0.70987   0.97894   0.24733   0.00000  Uiso   1.00
C617   C     0.95691   0.97848   0.25254   0.00000  Uiso   1.00
C618   C     0.70975   0.68818   0.24746   0.00000  Uiso   1.00
C619   C     0.66679   0.95725   0.24990   0.00000  Uiso   1.00
C620   C     0.99988   0.70942   0.25010   0.00000  Uiso   1.00
C621   C     0.85079   0.80486   0.27495   0.00000  Uiso   1.00
C622   C     0.81587   0.86180   0.22505   0.00000  Uiso   1.00
C623   C     0.80115   0.80474   0.27410   0.00000  Uiso   1.00
C624   C     0.86552   0.86193   0.22590   0.00000  Uiso   1.00
C625   C     0.97282   0.83336   0.33604   0.00000  Uiso   1.00
C626   C     0.69385   0.83331   0.16396   0.00000  Uiso   1.00
C627   C     0.95797   0.83139   0.38510   0.00000  Uiso   1.00
C628   C     0.70870   0.83527   0.11490   0.00000  Uiso   1.00
C629   C     0.97350   0.81271   0.45544   0.00000  Uiso   1.00
C630   C     0.69317   0.85396   0.04456   0.00000  Uiso   1.00
C631   C     0.99013   0.81861   0.40936   0.00000  Uiso   1.00
C632   C     0.67654   0.84805   0.09064   0.00000  Uiso   1.00
C633   C     0.90970   0.83965   0.40742   0.00000  Uiso   1.00
C634   C     0.75697   0.82701   0.09258   0.00000  Uiso   1.00
C635   C     0.89141   0.83249   0.45368   0.00000  Uiso   1.00
C636   C     0.77526   0.83418   0.04632   0.00000  Uiso   1.00
C637   C     0.92448   0.81906   0.47763   0.00000  Uiso   1.00
C638   C     0.74218   0.84761   0.02237   0.00000  Uiso   1.00
C639   C     0.84134   0.83749   0.47654   0.00000  Uiso   1.00
C640   C     0.82533   0.82918   0.02346   0.00000  Uiso   1.00
Cu641  Cu    0.71355   0.83334   0.25000   0.00000  Uiso   1.00
Cu642  Cu    0.95311   0.83333   0.25000   0.00000  Uiso   1.00
H643   H     0.93348   0.80157   0.04202   0.00000  Uiso   1.00
H644   H     0.73319   0.86510   0.45798   0.00000  Uiso   1.00
H645   H     0.77952   0.81566   0.11261   0.00000  Uiso   1.00
H646   H     0.88714   0.85100   0.38739   0.00000  Uiso   1.00
H647   H     0.97231   0.85454   0.10736   0.00000  Uiso   1.00
H648   H     0.69436   0.81213   0.39264   0.00000  Uiso   1.00
H649   H     0.99875   0.80214   0.47360   0.00000  Uiso   1.00
H650   H     0.66792   0.86453   0.02640   0.00000  Uiso   1.00
H651   H     0.85132   0.80996   0.08124   0.00000  Uiso   1.00
H652   H     0.81534   0.85670   0.41876   0.00000  Uiso   1.00
H653   H     0.92302   0.70355   0.25483   0.00000  Uiso   1.00
H654   H     0.74365   0.96312   0.24517   0.00000  Uiso   1.00
H655   H     0.92319   0.96229   0.25461   0.00000  Uiso   1.00
H656   H     0.74348   0.70438   0.24539   0.00000  Uiso   1.00
H657   H     0.77634   0.78148   0.29218   0.00000  Uiso   1.00
H658   H     0.89033   0.88518   0.20782   0.00000  Uiso   1.00
N659   N     0.78403   0.83334   0.24999   0.00000  Uiso   1.00
N660   N     0.88264   0.83332   0.25001   0.00000  Uiso   1.00
O661   O     0.70625   0.77322   0.25000   0.00000  Uiso   1.00
O662   O     0.96042   0.89345   0.25000   0.00000  Uiso   1.00
O663   O     0.96039   0.77321   0.25000   0.00000  Uiso   1.00
O664   O     0.70628   0.89346   0.24999   0.00000  Uiso   1.00
O665   O     0.68519   0.83334   0.31491   0.00000  Uiso   1.00
O666   O     0.98148   0.83332   0.18508   0.00000  Uiso   1.00
O667   O     0.93933   0.83333   0.31492   0.00000  Uiso   1.00
O668   O     0.72733   0.83333   0.18508   0.00000  Uiso   1.00
O669   O     0.86872   0.77434   0.29744   0.00000  Uiso   1.00
C670   C     0.84190   0.77184   0.34286   0.00000  Uiso   1.00
H671   H     0.80633   0.75644   0.34627   0.00000  Uiso   1.00
H672   H     0.83603   0.80286   0.35845   0.00000  Uiso   1.00
C673   C     0.86984   0.74589   0.36840   0.00000  Uiso   1.00
H674   H     0.90674   0.75885   0.36420   0.00000  Uiso   1.00
H675   H     0.85042   0.74537   0.40460   0.00000  Uiso   1.00
H676   H     0.87320   0.71388   0.35556   0.00000  Uiso   1.00
O677   O     0.79795   0.89233   0.20256   0.00000  Uiso   1.00
C678   C     0.82477   0.89482   0.15714   0.00000  Uiso   1.00
H679   H     0.83063   0.86380   0.14155   0.00000  Uiso   1.00
H680   H     0.86034   0.91022   0.15373   0.00000  Uiso   1.00
C681   C     0.79683   0.92078   0.13160   0.00000  Uiso   1.00
H682   H     0.79347   0.95279   0.14444   0.00000  Uiso   1.00
H683   H     0.81624   0.92129   0.09540   0.00000  Uiso   1.00
H684   H     0.75992   0.90781   0.13580   0.00000  Uiso   1.00
C685   C     0.33323   0.08738   0.75009   0.00000  Uiso   1.00
C686   C     0.00011   0.24596   0.74991   0.00000  Uiso   1.00
C687   C     0.19333   0.14990   0.54596   0.00000  Uiso   1.00
C688   C     0.14001   0.18343   0.95404   0.00000  Uiso   1.00
C689   C     0.24174   0.14496   0.52340   0.00000  Uiso   1.00
C690   C     0.09159   0.18837   0.97660   0.00000  Uiso   1.00
C691   C     0.29012   0.02106   0.75267   0.00000  Uiso   1.00
C692   C     0.04321   0.31227   0.74733   0.00000  Uiso   1.00
C693   C     0.29025   0.31182   0.75254   0.00000  Uiso   1.00
C694   C     0.04309   0.02152   0.74746   0.00000  Uiso   1.00
C695   C     0.00012   0.29058   0.74990   0.00000  Uiso   1.00
C696   C     0.33321   0.04275   0.75010   0.00000  Uiso   1.00
C697   C     0.18413   0.13820   0.77495   0.00000  Uiso   1.00
C698   C     0.14921   0.19514   0.72505   0.00000  Uiso   1.00
C699   C     0.13448   0.13808   0.77410   0.00000  Uiso   1.00
C700   C     0.19885   0.19526   0.72590   0.00000  Uiso   1.00
C701   C     0.30615   0.16669   0.83604   0.00000  Uiso   1.00
C702   C     0.02718   0.16664   0.66396   0.00000  Uiso   1.00
C703   C     0.29130   0.16473   0.88510   0.00000  Uiso   1.00
C704   C     0.04203   0.16861   0.61490   0.00000  Uiso   1.00
C705   C     0.30683   0.14604   0.95544   0.00000  Uiso   1.00
C706   C     0.02650   0.18729   0.54456   0.00000  Uiso   1.00
C707   C     0.32346   0.15195   0.90936   0.00000  Uiso   1.00
C708   C     0.00987   0.18139   0.59064   0.00000  Uiso   1.00
C709   C     0.24303   0.17299   0.90742   0.00000  Uiso   1.00
C710   C     0.09030   0.16035   0.59258   0.00000  Uiso   1.00
C711   C     0.22474   0.16582   0.95368   0.00000  Uiso   1.00
C712   C     0.10859   0.16751   0.54632   0.00000  Uiso   1.00
C713   C     0.25782   0.15239   0.97763   0.00000  Uiso   1.00
C714   C     0.07552   0.18094   0.52237   0.00000  Uiso   1.00
C715   C     0.17467   0.17082   0.97654   0.00000  Uiso   1.00
C716   C     0.15866   0.16251   0.52346   0.00000  Uiso   1.00
Cu717  Cu    0.04689   0.16667   0.75000   0.00000  Uiso   1.00
Cu718  Cu    0.28645   0.16666   0.75000   0.00000  Uiso   1.00
H719   H     0.26681   0.13490   0.54202   0.00000  Uiso   1.00
H720   H     0.06652   0.19843   0.95798   0.00000  Uiso   1.00
H721   H     0.11285   0.14900   0.61261   0.00000  Uiso   1.00
H722   H     0.22048   0.18434   0.88739   0.00000  Uiso   1.00
H723   H     0.30564   0.18787   0.60736   0.00000  Uiso   1.00
H724   H     0.02769   0.14546   0.89264   0.00000  Uiso   1.00
H725   H     0.33208   0.13547   0.97360   0.00000  Uiso   1.00
H726   H     0.00125   0.19786   0.52640   0.00000  Uiso   1.00
H727   H     0.18465   0.14330   0.58124   0.00000  Uiso   1.00
H728   H     0.14868   0.19004   0.91876   0.00000  Uiso   1.00
H729   H     0.25635   0.03688   0.75483   0.00000  Uiso   1.00
H730   H     0.07698   0.29645   0.74517   0.00000  Uiso   1.00
H731   H     0.25652   0.29562   0.75461   0.00000  Uiso   1.00
H732   H     0.07681   0.03771   0.74539   0.00000  Uiso   1.00
H733   H     0.10967   0.11482   0.79218   0.00000  Uiso   1.00
H734   H     0.22366   0.21852   0.70782   0.00000  Uiso   1.00
N735   N     0.11736   0.16668   0.74999   0.00000  Uiso   1.00
N736   N     0.21597   0.16666   0.75001   0.00000  Uiso   1.00
O737   O     0.03958   0.10655   0.75000   0.00000  Uiso   1.00
O738   O     0.29375   0.22678   0.75000   0.00000  Uiso   1.00
O739   O     0.29372   0.10654   0.75000   0.00000  Uiso   1.00
O740   O     0.03961   0.22679   0.74999   0.00000  Uiso   1.00
O741   O     0.01852   0.16668   0.81491   0.00000  Uiso   1.00
O742   O     0.31481   0.16666   0.68508   0.00000  Uiso   1.00
O743   O     0.27267   0.16667   0.81492   0.00000  Uiso   1.00
O744   O     0.06067   0.16667   0.68508   0.00000  Uiso   1.00
O745   O     0.20205   0.10767   0.79744   0.00000  Uiso   1.00
C746   C     0.17523   0.10518   0.84286   0.00000  Uiso   1.00
H747   H     0.13966   0.08977   0.84627   0.00000  Uiso   1.00
H748   H     0.16937   0.13619   0.85845   0.00000  Uiso   1.00
C749   C     0.20317   0.07922   0.86840   0.00000  Uiso   1.00
H750   H     0.24007   0.09219   0.86420   0.00000  Uiso   1.00
H751   H     0.18376   0.07871   0.90460   0.00000  Uiso   1.00
H752   H     0.20653   0.04721   0.85556   0.00000  Uiso   1.00
O753   O     0.13128   0.22566   0.70256   0.00000  Uiso   1.00
C754   C     0.15810   0.22815   0.65714   0.00000  Uiso   1.00
H755   H     0.16396   0.19714   0.64155   0.00000  Uiso   1.00
H756   H     0.19367   0.24356   0.65373   0.00000  Uiso   1.00
C757   C     0.13016   0.25411   0.63160   0.00000  Uiso   1.00
H758   H     0.12680   0.28612   0.64444   0.00000  Uiso   1.00
H759   H     0.14958   0.25462   0.59540   0.00000  Uiso   1.00
H760   H     0.09326   0.24115   0.63580   0.00000  Uiso   1.00
C761   C     0.66656   0.08738   0.75009   0.00000  Uiso   1.00
C762   C     0.33344   0.24596   0.74991   0.00000  Uiso   1.00
C763   C     0.52666   0.14990   0.54596   0.00000  Uiso   1.00
C764   C     0.47334   0.18343   0.95404   0.00000  Uiso   1.00
C765   C     0.57508   0.14496   0.52340   0.00000  Uiso   1.00
C766   C     0.42492   0.18837   0.97660   0.00000  Uiso   1.00
C767   C     0.62346   0.02106   0.75267   0.00000  Uiso   1.00
C768   C     0.37654   0.31227   0.74733   0.00000  Uiso   1.00
C769   C     0.62358   0.31182   0.75254   0.00000  Uiso   1.00
C770   C     0.37642   0.02152   0.74746   0.00000  Uiso   1.00
C771   C     0.33345   0.29058   0.74990   0.00000  Uiso   1.00
C772   C     0.66655   0.04275   0.75010   0.00000  Uiso   1.00
C773   C     0.51746   0.13820   0.77495   0.00000  Uiso   1.00
C774   C     0.48254   0.19514   0.72505   0.00000  Uiso   1.00
C775   C     0.46781   0.13808   0.77410   0.00000  Uiso   1.00
C776   C     0.53219   0.19526   0.72590   0.00000  Uiso   1.00
C777   C     0.63949   0.16669   0.83604   0.00000  Uiso   1.00
C778   C     0.36051   0.16664   0.66396   0.00000  Uiso   1.00
C779   C     0.62463   0.16473   0.88510   0.00000  Uiso   1.00
C780   C     0.37537   0.16861   0.61490   0.00000  Uiso   1.00
C781   C     0.64017   0.14604   0.95544   0.00000  Uiso   1.00
C782   C     0.35983   0.18729   0.54456   0.00000  Uiso   1.00
C783   C     0.65679   0.15195   0.90936   0.00000  Uiso   1.00
C784   C     0.34321   0.18139   0.59064   0.00000  Uiso   1.00
C785   C     0.57636   0.17299   0.90742   0.00000  Uiso   1.00
C786   C     0.42364   0.16035   0.59258   0.00000  Uiso   1.00
C787   C     0.55807   0.16582   0.95368   0.00000  Uiso   1.00
C788   C     0.44192   0.16751   0.54632   0.00000  Uiso   1.00
C789   C     0.59115   0.15239   0.97763   0.00000  Uiso   1.00
C790   C     0.40885   0.18094   0.52237   0.00000  Uiso   1.00
C791   C     0.50801   0.17082   0.97654   0.00000  Uiso   1.00
C792   C     0.49199   0.16251   0.52346   0.00000  Uiso   1.00
Cu793  Cu    0.38022   0.16667   0.75000   0.00000  Uiso   1.00
Cu794  Cu    0.61978   0.16666   0.75000   0.00000  Uiso   1.00
H795   H     0.60015   0.13490   0.54202   0.00000  Uiso   1.00
H796   H     0.39985   0.19843   0.95798   0.00000  Uiso   1.00
H797   H     0.44619   0.14900   0.61261   0.00000  Uiso   1.00
H798   H     0.55381   0.18434   0.88739   0.00000  Uiso   1.00
H799   H     0.63897   0.18787   0.60736   0.00000  Uiso   1.00
H800   H     0.36103   0.14546   0.89264   0.00000  Uiso   1.00
H801   H     0.66541   0.13547   0.97360   0.00000  Uiso   1.00
H802   H     0.33459   0.19786   0.52640   0.00000  Uiso   1.00
H803   H     0.51799   0.14330   0.58124   0.00000  Uiso   1.00
H804   H     0.48201   0.19004   0.91876   0.00000  Uiso   1.00
H805   H     0.58968   0.03688   0.75483   0.00000  Uiso   1.00
H806   H     0.41032   0.29645   0.74517   0.00000  Uiso   1.00
H807   H     0.58985   0.29562   0.75461   0.00000  Uiso   1.00
H808   H     0.41015   0.03771   0.74539   0.00000  Uiso   1.00
H809   H     0.44300   0.11482   0.79218   0.00000  Uiso   1.00
H810   H     0.55700   0.21852   0.70782   0.00000  Uiso   1.00
N811   N     0.45069   0.16668   0.74999   0.00000  Uiso   1.00
N812   N     0.54931   0.16666   0.75001   0.00000  Uiso   1.00
O813   O     0.37291   0.10655   0.75000   0.00000  Uiso   1.00
O814   O     0.62709   0.22678   0.75000   0.00000  Uiso   1.00
O815   O     0.62706   0.10654   0.75000   0.00000  Uiso   1.00
O816   O     0.37294   0.22679   0.74999   0.00000  Uiso   1.00
O817   O     0.35186   0.16668   0.81491   0.00000  Uiso   1.00
O818   O     0.64814   0.16666   0.68508   0.00000  Uiso   1.00
O819   O     0.60600   0.16667   0.81492   0.00000  Uiso   1.00
O820   O     0.39400   0.16667   0.68508   0.00000  Uiso   1.00
O821   O     0.53539   0.10767   0.79744   0.00000  Uiso   1.00
C822   C     0.50857   0.10518   0.84286   0.00000  Uiso   1.00
H823   H     0.47300   0.08977   0.84627   0.00000  Uiso   1.00
H824   H     0.50270   0.13619   0.85845   0.00000  Uiso   1.00
C825   C     0.53651   0.07922   0.86840   0.00000  Uiso   1.00
H826   H     0.57341   0.09219   0.86420   0.00000  Uiso   1.00
H827   H     0.51709   0.07871   0.90460   0.00000  Uiso   1.00
H828   H     0.53987   0.04721   0.85556   0.00000  Uiso   1.00
O829   O     0.46461   0.22566   0.70256   0.00000  Uiso   1.00
C830   C     0.49143   0.22815   0.65714   0.00000  Uiso   1.00
H831   H     0.49730   0.19714   0.64155   0.00000  Uiso   1.00
H832   H     0.52700   0.24356   0.65373   0.00000  Uiso   1.00
C833   C     0.46349   0.25411   0.63160   0.00000  Uiso   1.00
H834   H     0.46014   0.28612   0.64444   0.00000  Uiso   1.00
H835   H     0.48291   0.25462   0.59540   0.00000  Uiso   1.00
H836   H     0.42659   0.24115   0.63580   0.00000  Uiso   1.00
C837   C     0.99989   0.08738   0.75009   0.00000  Uiso   1.00
C838   C     0.66677   0.24596   0.74991   0.00000  Uiso   1.00
C839   C     0.85999   0.14990   0.54596   0.00000  Uiso   1.00
C840   C     0.80667   0.18343   0.95404   0.00000  Uiso   1.00
C841   C     0.90841   0.14496   0.52340   0.00000  Uiso   1.00
C842   C     0.75826   0.18837   0.97660   0.00000  Uiso   1.00
C843   C     0.95679   0.02106   0.75267   0.00000  Uiso   1.00
C844   C     0.70987   0.31227   0.74733   0.00000  Uiso   1.00
C845   C     0.95691   0.31182   0.75254   0.00000  Uiso   1.00
C846   C     0.70975   0.02152   0.74746   0.00000  Uiso   1.00
C847   C     0.66679   0.29058   0.74990   0.00000  Uiso   1.00
C848   C     0.99988   0.04275   0.75010   0.00000  Uiso   1.00
C849   C     0.85079   0.13820   0.77495   0.00000  Uiso   1.00
C850   C     0.81587   0.19514   0.72505   0.00000  Uiso   1.00
C851   C     0.80115   0.13808   0.77410   0.00000  Uiso   1.00
C852   C     0.86552   0.19526   0.72590   0.00000  Uiso   1.00
C853   C     0.97282   0.16669   0.83604   0.00000  Uiso   1.00
C854   C     0.69385   0.16664   0.66396   0.00000  Uiso   1.00
C855   C     0.95797   0.16473   0.88510   0.00000  Uiso   1.00
C856   C     0.70870   0.16861   0.61490   0.00000  Uiso   1.00
C857   C     0.97350   0.14604   0.95544   0.00000  Uiso   1.00
C858   C     0.69317   0.18729   0.54456   0.00000  Uiso   1.00
C859   C     0.99013   0.15195   0.90936   0.00000  Uiso   1.00
C860   C     0.67654   0.18139   0.59064   0.00000  Uiso   1.00
C861   C     0.90970   0.17299   0.90742   0.00000  Uiso   1.00
C862   C     0.75697   0.16035   0.59258   0.00000  Uiso   1.00
C863   C     0.89141   0.16582   0.95368   0.00000  Uiso   1.00
C864   C     0.77526   0.16751   0.54632   0.00000  Uiso   1.00
C865   C     0.92448   0.15239   0.97763   0.00000  Uiso   1.00
C866   C     0.74218   0.18094   0.52237   0.00000  Uiso   1.00
C867   C     0.84134   0.17082   0.97654   0.00000  Uiso   1.00
C868   C     0.82533   0.16251   0.52346   0.00000  Uiso   1.00
Cu869  Cu    0.71355   0.16667   0.75000   0.00000  Uiso   1.00
Cu870  Cu    0.95311   0.16666   0.75000   0.00000  Uiso   1.00
H871   H     0.93348   0.13490   0.54202   0.00000  Uiso   1.00
H872   H     0.73319   0.19843   0.95798   0.00000  Uiso   1.00
H873   H     0.77952   0.14900   0.61261   0.00000  Uiso   1.00
H874   H     0.88714   0.18434   0.88739   0.00000  Uiso   1.00
H875   H     0.97231   0.18787   0.60736   0.00000  Uiso   1.00
H876   H     0.69436   0.14546   0.89264   0.00000  Uiso   1.00
H877   H     0.99875   0.13547   0.97360   0.00000  Uiso   1.00
H878   H     0.66792   0.19786   0.52640   0.00000  Uiso   1.00
H879   H     0.85132   0.14330   0.58124   0.00000  Uiso   1.00
H880   H     0.81534   0.19004   0.91876   0.00000  Uiso   1.00
H881   H     0.92302   0.03688   0.75483   0.00000  Uiso   1.00
H882   H     0.74365   0.29645   0.74517   0.00000  Uiso   1.00
H883   H     0.92319   0.29562   0.75461   0.00000  Uiso   1.00
H884   H     0.74348   0.03771   0.74539   0.00000  Uiso   1.00
H885   H     0.77634   0.11482   0.79218   0.00000  Uiso   1.00
H886   H     0.89033   0.21852   0.70782   0.00000  Uiso   1.00
N887   N     0.78403   0.16668   0.74999   0.00000  Uiso   1.00
N888   N     0.88264   0.16666   0.75001   0.00000  Uiso   1.00
O889   O     0.70625   0.10655   0.75000   0.00000  Uiso   1.00
O890   O     0.96042   0.22678   0.75000   0.00000  Uiso   1.00
O891   O     0.96039   0.10654   0.75000   0.00000  Uiso   1.00
O892   O     0.70628   0.22679   0.74999   0.00000  Uiso   1.00
O893   O     0.68519   0.16668   0.81491   0.00000  Uiso   1.00
O894   O     0.98148   0.16666   0.68508   0.00000  Uiso   1.00
O895   O     0.93933   0.16667   0.81492   0.00000  Uiso   1.00
O896   O     0.72733   0.16667   0.68508   0.00000  Uiso   1.00
O897   O     0.86872   0.10767   0.79744   0.00000  Uiso   1.00
C898   C     0.84190   0.10518   0.84286   0.00000  Uiso   1.00
H899   H     0.80633   0.08977   0.84627   0.00000  Uiso   1.00
H900   H     0.83603   0.13619   0.85845   0.00000  Uiso   1.00
C901   C     0.86984   0.07922   0.86840   0.00000  Uiso   1.00
H902   H     0.90674   0.09219   0.86420   0.00000  Uiso   1.00
H903   H     0.85042   0.07871   0.90460   0.00000  Uiso   1.00
H904   H     0.87320   0.04721   0.85556   0.00000  Uiso   1.00
O905   O     0.79795   0.22566   0.70256   0.00000  Uiso   1.00
C906   C     0.82477   0.22815   0.65714   0.00000  Uiso   1.00
H907   H     0.83063   0.19714   0.64155   0.00000  Uiso   1.00
H908   H     0.86034   0.24356   0.65373   0.00000  Uiso   1.00
C909   C     0.79683   0.25411   0.63160   0.00000  Uiso   1.00
H910   H     0.79347   0.28612   0.64444   0.00000  Uiso   1.00
H911   H     0.81624   0.25462   0.59540   0.00000  Uiso   1.00
H912   H     0.75992   0.24115   0.63580   0.00000  Uiso   1.00
C913   C     0.33323   0.42071   0.75009   0.00000  Uiso   1.00
C914   C     0.00011   0.57929   0.74991   0.00000  Uiso   1.00
C915   C     0.19333   0.48323   0.54596   0.00000  Uiso   1.00
C916   C     0.14001   0.51677   0.95404   0.00000  Uiso   1.00
C917   C     0.24174   0.47830   0.52340   0.00000  Uiso   1.00
C918   C     0.09159   0.52171   0.97660   0.00000  Uiso   1.00
C919   C     0.29012   0.35439   0.75267   0.00000  Uiso   1.00
C920   C     0.04321   0.64561   0.74733   0.00000  Uiso   1.00
C921   C     0.29025   0.64515   0.75254   0.00000  Uiso   1.00
C922   C     0.04309   0.35485   0.74746   0.00000  Uiso   1.00
C923   C     0.00012   0.62392   0.74990   0.00000  Uiso   1.00
C924   C     0.33321   0.37608   0.75010   0.00000  Uiso   1.00
C925   C     0.18413   0.47153   0.77495   0.00000  Uiso   1.00
C926   C     0.14921   0.52847   0.72505   0.00000  Uiso   1.00
C927   C     0.13448   0.47141   0.77410   0.00000  Uiso   1.00
C928   C     0.19885   0.52859   0.72590   0.00000  Uiso   1.00
C929   C     0.30615   0.50003   0.83604   0.00000  Uiso   1.00
C930   C     0.02718   0.49997   0.66396   0.00000  Uiso   1.00
C931   C     0.29130   0.49806   0.88510   0.00000  Uiso   1.00
C932   C     0.04203   0.50194   0.61490   0.00000  Uiso   1.00
C933   C     0.30683   0.47938   0.95544   0.00000  Uiso   1.00
C934   C     0.02650   0.52063   0.54456   0.00000  Uiso   1.00
C935   C     0.32346   0.48528   0.90936   0.00000  Uiso   1.00
C936   C     0.00987   0.51472   0.59064   0.00000  Uiso   1.00
C937   C     0.24303   0.50632   0.90742   0.00000  Uiso   1.00
C938   C     0.09030   0.49368   0.59258   0.00000  Uiso   1.00
C939   C     0.22474   0.49916   0.95368   0.00000  Uiso   1.00
C940   C     0.10859   0.50084   0.54632   0.00000  Uiso   1.00
C941   C     0.25782   0.48573   0.97763   0.00000  Uiso   1.00
C942   C     0.07552   0.51427   0.52237   0.00000  Uiso   1.00
C943   C     0.17467   0.50416   0.97654   0.00000  Uiso   1.00
C944   C     0.15866   0.49584   0.52346   0.00000  Uiso   1.00
Cu945  Cu    0.04689   0.50001   0.75000   0.00000  Uiso   1.00
Cu946  Cu    0.28645   0.49999   0.75000   0.00000  Uiso   1.00
H947   H     0.26681   0.46824   0.54202   0.00000  Uiso   1.00
H948   H     0.06652   0.53177   0.95798   0.00000  Uiso   1.00
H949   H     0.11285   0.48233   0.61261   0.00000  Uiso   1.00
H950   H     0.22048   0.51767   0.88739   0.00000  Uiso   1.00
H951   H     0.30564   0.52121   0.60736   0.00000  Uiso   1.00
H952   H     0.02769   0.47880   0.89264   0.00000  Uiso   1.00
H953   H     0.33208   0.46880   0.97360   0.00000  Uiso   1.00
H954   H     0.00125   0.53120   0.52640   0.00000  Uiso   1.00
H955   H     0.18465   0.47663   0.58124   0.00000  Uiso   1.00
H956   H     0.14868   0.52337   0.91876   0.00000  Uiso   1.00
H957   H     0.25635   0.37021   0.75483   0.00000  Uiso   1.00
H958   H     0.07698   0.62979   0.74517   0.00000  Uiso   1.00
H959   H     0.25652   0.62895   0.75461   0.00000  Uiso   1.00
H960   H     0.07681   0.37105   0.74539   0.00000  Uiso   1.00
H961   H     0.10967   0.44815   0.79218   0.00000  Uiso   1.00
H962   H     0.22366   0.55185   0.70782   0.00000  Uiso   1.00
N963   N     0.11736   0.50001   0.74999   0.00000  Uiso   1.00
N964   N     0.21597   0.49999   0.75001   0.00000  Uiso   1.00
O965   O     0.03958   0.43989   0.75000   0.00000  Uiso   1.00
O966   O     0.29375   0.56011   0.75000   0.00000  Uiso   1.00
O967   O     0.29372   0.43988   0.75000   0.00000  Uiso   1.00
O968   O     0.03961   0.56012   0.74999   0.00000  Uiso   1.00
O969   O     0.01852   0.50001   0.81491   0.00000  Uiso   1.00
O970   O     0.31481   0.49999   0.68508   0.00000  Uiso   1.00
O971   O     0.27267   0.50000   0.81492   0.00000  Uiso   1.00
O972   O     0.06067   0.50000   0.68508   0.00000  Uiso   1.00
O973   O     0.20205   0.44100   0.79744   0.00000  Uiso   1.00
C974   C     0.17523   0.43851   0.84286   0.00000  Uiso   1.00
H975   H     0.13966   0.42310   0.84627   0.00000  Uiso   1.00
H976   H     0.16937   0.46953   0.85845   0.00000  Uiso   1.00
C977   C     0.20317   0.41256   0.86840   0.00000  Uiso   1.00
H978   H     0.24007   0.42552   0.86420   0.00000  Uiso   1.00
H979   H     0.18376   0.41204   0.90460   0.00000  Uiso   1.00
H980   H     0.20653   0.38055   0.85556   0.00000  Uiso   1.00
O981   O     0.13128   0.55900   0.70256   0.00000  Uiso   1.00
C982   C     0.15810   0.56149   0.65714   0.00000  Uiso   1.00
H983   H     0.16396   0.53047   0.64155   0.00000  Uiso   1.00
H984   H     0.19367   0.57689   0.65373   0.00000  Uiso   1.00
C985   C     0.13016   0.58744   0.63160   0.00000  Uiso   1.00
H986   H     0.12680   0.61945   0.64444   0.00000  Uiso   1.00
H987   H     0.14958   0.58796   0.59540   0.00000  Uiso   1.00
H988   H     0.09326   0.57448   0.63580   0.00000  Uiso   1.00
C989   C     0.66656   0.42071   0.75009   0.00000  Uiso   1.00
C990   C     0.33344   0.57929   0.74991   0.00000  Uiso   1.00
C991   C     0.52666   0.48323   0.54596   0.00000  Uiso   1.00
C992   C     0.47334   0.51677   0.95404   0.00000  Uiso   1.00
C993   C     0.57508   0.47830   0.52340   0.00000  Uiso   1.00
C994   C     0.42492   0.52171   0.97660   0.00000  Uiso   1.00
C995   C     0.62346   0.35439   0.75267   0.00000  Uiso   1.00
C996   C     0.37654   0.64561   0.74733   0.00000  Uiso   1.00
C997   C     0.62358   0.64515   0.75254   0.00000  Uiso   1.00
C998   C     0.37642   0.35485   0.74746   0.00000  Uiso   1.00
C999   C     0.33345   0.62392   0.74990   0.00000  Uiso   1.00
C1000  C     0.66655   0.37608   0.75010   0.00000  Uiso   1.00
C1001  C     0.51746   0.47153   0.77495   0.00000  Uiso   1.00
C1002  C     0.48254   0.52847   0.72505   0.00000  Uiso   1.00
C1003  C     0.46781   0.47141   0.77410   0.00000  Uiso   1.00
C1004  C     0.53219   0.52859   0.72590   0.00000  Uiso   1.00
C1005  C     0.63949   0.50003   0.83604   0.00000  Uiso   1.00
C1006  C     0.36051   0.49997   0.66396   0.00000  Uiso   1.00
C1007  C     0.62463   0.49806   0.88510   0.00000  Uiso   1.00
C1008  C     0.37537   0.50194   0.61490   0.00000  Uiso   1.00
C1009  C     0.64017   0.47938   0.95544   0.00000  Uiso   1.00
C1010  C     0.35983   0.52063   0.54456   0.00000  Uiso   1.00
C1011  C     0.65679   0.48528   0.90936   0.00000  Uiso   1.00
C1012  C     0.34321   0.51472   0.59064   0.00000  Uiso   1.00
C1013  C     0.57636   0.50632   0.90742   0.00000  Uiso   1.00
C1014  C     0.42364   0.49368   0.59258   0.00000  Uiso   1.00
C1015  C     0.55807   0.49916   0.95368   0.00000  Uiso   1.00
C1016  C     0.44192   0.50084   0.54632   0.00000  Uiso   1.00
C1017  C     0.59115   0.48573   0.97763   0.00000  Uiso   1.00
C1018  C     0.40885   0.51427   0.52237   0.00000  Uiso   1.00
C1019  C     0.50801   0.50416   0.97654   0.00000  Uiso   1.00
C1020  C     0.49199   0.49584   0.52346   0.00000  Uiso   1.00
Cu1021 Cu    0.38022   0.50001   0.75000   0.00000  Uiso   1.00
Cu1022 Cu    0.61978   0.49999   0.75000   0.00000  Uiso   1.00
H1023  H     0.60015   0.46824   0.54202   0.00000  Uiso   1.00
H1024  H     0.39985   0.53177   0.95798   0.00000  Uiso   1.00
H1025  H     0.44619   0.48233   0.61261   0.00000  Uiso   1.00
H1026  H     0.55381   0.51767   0.88739   0.00000  Uiso   1.00
H1027  H     0.63897   0.52121   0.60736   0.00000  Uiso   1.00
H1028  H     0.36103   0.47880   0.89264   0.00000  Uiso   1.00
H1029  H     0.66541   0.46880   0.97360   0.00000  Uiso   1.00
H1030  H     0.33459   0.53120   0.52640   0.00000  Uiso   1.00
H1031  H     0.51799   0.47663   0.58124   0.00000  Uiso   1.00
H1032  H     0.48201   0.52337   0.91876   0.00000  Uiso   1.00
H1033  H     0.58968   0.37021   0.75483   0.00000  Uiso   1.00
H1034  H     0.41032   0.62979   0.74517   0.00000  Uiso   1.00
H1035  H     0.58985   0.62895   0.75461   0.00000  Uiso   1.00
H1036  H     0.41015   0.37105   0.74539   0.00000  Uiso   1.00
H1037  H     0.44300   0.44815   0.79218   0.00000  Uiso   1.00
H1038  H     0.55700   0.55185   0.70782   0.00000  Uiso   1.00
N1039  N     0.45069   0.50001   0.74999   0.00000  Uiso   1.00
N1040  N     0.54931   0.49999   0.75001   0.00000  Uiso   1.00
O1041  O     0.37291   0.43989   0.75000   0.00000  Uiso   1.00
O1042  O     0.62709   0.56011   0.75000   0.00000  Uiso   1.00
O1043  O     0.62706   0.43988   0.75000   0.00000  Uiso   1.00
O1044  O     0.37294   0.56012   0.74999   0.00000  Uiso   1.00
O1045  O     0.35186   0.50001   0.81491   0.00000  Uiso   1.00
O1046  O     0.64814   0.49999   0.68508   0.00000  Uiso   1.00
O1047  O     0.60600   0.50000   0.81492   0.00000  Uiso   1.00
O1048  O     0.39400   0.50000   0.68508   0.00000  Uiso   1.00
O1049  O     0.53539   0.44100   0.79744   0.00000  Uiso   1.00
C1050  C     0.50857   0.43851   0.84286   0.00000  Uiso   1.00
H1051  H     0.47300   0.42310   0.84627   0.00000  Uiso   1.00
H1052  H     0.50270   0.46953   0.85845   0.00000  Uiso   1.00
C1053  C     0.53651   0.41256   0.86840   0.00000  Uiso   1.00
H1054  H     0.57341   0.42552   0.86420   0.00000  Uiso   1.00
H1055  H     0.51709   0.41204   0.90460   0.00000  Uiso   1.00
H1056  H     0.53987   0.38055   0.85556   0.00000  Uiso   1.00
O1057  O     0.46461   0.55900   0.70256   0.00000  Uiso   1.00
C1058  C     0.49143   0.56149   0.65714   0.00000  Uiso   1.00
H1059  H     0.49730   0.53047   0.64155   0.00000  Uiso   1.00
H1060  H     0.52700   0.57689   0.65373   0.00000  Uiso   1.00
C1061  C     0.46349   0.58744   0.63160   0.00000  Uiso   1.00
H1062  H     0.46014   0.61945   0.64444   0.00000  Uiso   1.00
H1063  H     0.48291   0.58796   0.59540   0.00000  Uiso   1.00
H1064  H     0.42659   0.57448   0.63580   0.00000  Uiso   1.00
C1065  C     0.99989   0.42071   0.75009   0.00000  Uiso   1.00
C1066  C     0.66677   0.57929   0.74991   0.00000  Uiso   1.00
C1067  C     0.85999   0.48323   0.54596   0.00000  Uiso   1.00
C1068  C     0.80667   0.51677   0.95404   0.00000  Uiso   1.00
C1069  C     0.90841   0.47830   0.52340   0.00000  Uiso   1.00
C1070  C     0.75826   0.52171   0.97660   0.00000  Uiso   1.00
C1071  C     0.95679   0.35439   0.75267   0.00000  Uiso   1.00
C1072  C     0.70987   0.64561   0.74733   0.00000  Uiso   1.00
C1073  C     0.95691   0.64515   0.75254   0.00000  Uiso   1.00
C1074  C     0.70975   0.35485   0.74746   0.00000  Uiso   1.00
C1075  C     0.66679   0.62392   0.74990   0.00000  Uiso   1.00
C1076  C     0.99988   0.37608   0.75010   0.00000  Uiso   1.00
C1077  C     0.85079   0.47153   0.77495   0.00000  Uiso   1.00
C1078  C     0.81587   0.52847   0.72505   0.00000  Uiso   1.00
C1079  C     0.80115   0.47141   0.77410   0.00000  Uiso   1.00
C1080  C     0.86552   0.52859   0.72590   0.00000  Uiso   1.00
C1081  C     0.97282   0.50003   0.83604   0.00000  Uiso   1.00
C1082  C     0.69385   0.49997   0.66396   0.00000  Uiso   1.00
C1083  C     0.95797   0.49806   0.88510   0.00000  Uiso   1.00
C1084  C     0.70870   0.50194   0.61490   0.00000  Uiso   1.00
C1085  C     0.97350   0.47938   0.95544   0.00000  Uiso   1.00
C1086  C     0.69317   0.52063   0.54456   0.00000  Uiso   1.00
C1087  C     0.99013   0.48528   0.90936   0.00000  Uiso   1.00
C1088  C     0.67654   0.51472   0.59064   0.00000  Uiso   1.00
C1089  C     0.90970   0.50632   0.90742   0.00000  Uiso   1.00
C1090  C     0.75697   0.49368   0.59258   0.00000  Uiso   1.00
C1091  C     0.89141   0.49916   0.95368   0.00000  Uiso   1.00
C1092  C     0.77526   0.50084   0.54632   0.00000  Uiso   1.00
C1093  C     0.92448   0.48573   0.97763   0.00000  Uiso   1.00
C1094  C     0.74218   0.51427   0.52237   0.00000  Uiso   1.00
C1095  C     0.84134   0.50416   0.97654   0.00000  Uiso   1.00
C1096  C     0.82533   0.49584   0.52346   0.00000  Uiso   1.00
Cu1097 Cu    0.71355   0.50001   0.75000   0.00000  Uiso   1.00
Cu1098 Cu    0.95311   0.49999   0.75000   0.00000  Uiso   1.00
H1099  H     0.93348   0.46824   0.54202   0.00000  Uiso   1.00
H1100  H     0.73319   0.53177   0.95798   0.00000  Uiso   1.00
H1101  H     0.77952   0.48233   0.61261   0.00000  Uiso   1.00
H1102  H     0.88714   0.51767   0.88739   0.00000  Uiso   1.00
H1103  H     0.97231   0.52121   0.60736   0.00000  Uiso   1.00
H1104  H     0.69436   0.47880   0.89264   0.00000  Uiso   1.00
H1105  H     0.99875   0.46880   0.97360   0.00000  Uiso   1.00
H1106  H     0.66792   0.53120   0.52640   0.00000  Uiso   1.00
H1107  H     0.85132   0.47663   0.58124   0.00000  Uiso   1.00
H1108  H     0.81534   0.52337   0.91876   0.00000  Uiso   1.00
H1109  H     0.92302   0.37021   0.75483   0.00000  Uiso   1.00
H1110  H     0.74365   0.62979   0.74517   0.00000  Uiso   1.00
H1111  H     0.92319   0.62895   0.75461   0.00000  Uiso   1.00
H1112  H     0.74348   0.37105   0.74539   0.00000  Uiso   1.00
H1113  H     0.77634   0.44815   0.79218   0.00000  Uiso   1.00
H1114  H     0.89033   0.55185   0.70782   0.00000  Uiso   1.00
N1115  N     0.78403   0.50001   0.74999   0.00000  Uiso   1.00
N1116  N     0.88264   0.49999   0.75001   0.00000  Uiso   1.00
O1117  O     0.70625   0.43989   0.75000   0.00000  Uiso   1.00
O1118  O     0.96042   0.56011   0.75000   0.00000  Uiso   1.00
O1119  O     0.96039   0.43988   0.75000   0.00000  Uiso   1.00
O1120  O     0.70628   0.56012   0.74999   0.00000  Uiso   1.00
O1121  O     0.68519   0.50001   0.81491   0.00000  Uiso   1.00
O1122  O     0.98148   0.49999   0.68508   0.00000  Uiso   1.00
O1123  O     0.93933   0.50000   0.81492   0.00000  Uiso   1.00
O1124  O     0.72733   0.50000   0.68508   0.00000  Uiso   1.00
O1125  O     0.86872   0.44100   0.79744   0.00000  Uiso   1.00
C1126  C     0.84190   0.43851   0.84286   0.00000  Uiso   1.00
H1127  H     0.80633   0.42310   0.84627   0.00000  Uiso   1.00
H1128  H     0.83603   0.46953   0.85845   0.00000  Uiso   1.00
C1129  C     0.86984   0.41256   0.86840   0.00000  Uiso   1.00
H1130  H     0.90674   0.42552   0.86420   0.00000  Uiso   1.00
H1131  H     0.85042   0.41204   0.90460   0.00000  Uiso   1.00
H1132  H     0.87320   0.38055   0.85556   0.00000  Uiso   1.00
O1133  O     0.79795   0.55900   0.70256   0.00000  Uiso   1.00
C1134  C     0.82477   0.56149   0.65714   0.00000  Uiso   1.00
H1135  H     0.83063   0.53047   0.64155   0.00000  Uiso   1.00
H1136  H     0.86034   0.57689   0.65373   0.00000  Uiso   1.00
C1137  C     0.79683   0.58744   0.63160   0.00000  Uiso   1.00
H1138  H     0.79347   0.61945   0.64444   0.00000  Uiso   1.00
H1139  H     0.81624   0.58796   0.59540   0.00000  Uiso   1.00
H1140  H     0.75992   0.57448   0.63580   0.00000  Uiso   1.00
C1141  C     0.33323   0.75404   0.75009   0.00000  Uiso   1.00
C1142  C     0.00011   0.91262   0.74991   0.00000  Uiso   1.00
C1143  C     0.19333   0.81657   0.54596   0.00000  Uiso   1.00
C1144  C     0.14001   0.85010   0.95404   0.00000  Uiso   1.00
C1145  C     0.24174   0.81163   0.52340   0.00000  Uiso   1.00
C1146  C     0.09159   0.85504   0.97660   0.00000  Uiso   1.00
C1147  C     0.29012   0.68773   0.75267   0.00000  Uiso   1.00
C1148  C     0.04321   0.97894   0.74733   0.00000  Uiso   1.00
C1149  C     0.29025   0.97848   0.75254   0.00000  Uiso   1.00
C1150  C     0.04309   0.68818   0.74746   0.00000  Uiso   1.00
C1151  C     0.00012   0.95725   0.74990   0.00000  Uiso   1.00
C1152  C     0.33321   0.70942   0.75010   0.00000  Uiso   1.00
C1153  C     0.18413   0.80486   0.77495   0.00000  Uiso   1.00
C1154  C     0.14921   0.86180   0.72505   0.00000  Uiso   1.00
C1155  C     0.13448   0.80474   0.77410   0.00000  Uiso   1.00
C1156  C     0.19885   0.86193   0.72590   0.00000  Uiso   1.00
C1157  C     0.30615   0.83336   0.83604   0.00000  Uiso   1.00
C1158  C     0.02718   0.83331   0.66396   0.00000  Uiso   1.00
C1159  C     0.29130   0.83139   0.88510   0.00000  Uiso   1.00
C1160  C     0.04203   0.83527   0.61490   0.00000  Uiso   1.00
C1161  C     0.30683   0.81271   0.95544   0.00000  Uiso   1.00
C1162  C     0.02650   0.85396   0.54456   0.00000  Uiso   1.00
C1163  C     0.32346   0.81861   0.90936   0.00000  Uiso   1.00
C1164  C     0.00987   0.84805   0.59064   0.00000  Uiso   1.00
C1165  C     0.24303   0.83965   0.90742   0.00000  Uiso   1.00
C1166  C     0.09030   0.82701   0.59258   0.00000  Uiso   1.00
C1167  C     0.22474   0.83249   0.95368   0.00000  Uiso   1.00
C1168  C     0.10859   0.83418   0.54632   0.00000  Uiso   1.00
C1169  C     0.25782   0.81906   0.97763   0.00000  Uiso   1.00
C1170  C     0.07552   0.84761   0.52237   0.00000  Uiso   1.00
C1171  C     0.17467   0.83749   0.97654   0.00000  Uiso   1.00
C1172  C     0.15866   0.82918   0.52346   0.00000  Uiso   1.00
Cu1173 Cu    0.04689   0.83334   0.75000   0.00000  Uiso   1.00
Cu1174 Cu    0.28645   0.83333   0.75000   0.00000  Uiso   1.00
H1175  H     0.26681   0.80157   0.54202   0.00000  Uiso   1.00
H1176  H     0.06652   0.86510   0.95798   0.00000  Uiso   1.00
H1177  H     0.11285   0.81566   0.61261   0.00000  Uiso   1.00
H1178  H     0.22048   0.85100   0.88739   0.00000  Uiso   1.00
H1179  H     0.30564   0.85454   0.60736   0.00000  Uiso   1.00
H1180  H     0.02769   0.81213   0.89264   0.00000  Uiso   1.00
H1181  H     0.33208   0.80214   0.97360   0.00000  Uiso   1.00
H1182  H     0.00125   0.86453   0.52640   0.00000  Uiso   1.00
H1183  H     0.18465   0.80996   0.58124   0.00000  Uiso   1.00
H1184  H     0.14868   0.85670   0.91876   0.00000  Uiso   1.00
H1185  H     0.25635   0.70355   0.75483   0.00000  Uiso   1.00
H1186  H     0.07698   0.96312   0.74517   0.00000  Uiso   1.00
H1187  H     0.25652   0.96229   0.75461   0.00000  Uiso   1.00
H1188  H     0.07681   0.70438   0.74539   0.00000  Uiso   1.00
H1189  H     0.10967   0.78148   0.79218   0.00000  Uiso   1.00
H1190  H     0.22366   0.88518   0.70782   0.00000  Uiso   1.00
N1191  N     0.11736   0.83334   0.74999   0.00000  Uiso   1.00
N1192  N     0.21597   0.83332   0.75001   0.00000  Uiso   1.00
O1193  O     0.03958   0.77322   0.75000   0.00000  Uiso   1.00
O1194  O     0.29375   0.89345   0.75000   0.00000  Uiso   1.00
O1195  O     0.29372   0.77321   0.75000   0.00000  Uiso   1.00
O1196  O     0.03961   0.89346   0.74999   0.00000  Uiso   1.00
O1197  O     0.01852   0.83334   0.81491   0.00000  Uiso   1.00
O1198  O     0.31481   0.83332   0.68508   0.00000  Uiso   1.00
O1199  O     0.27267   0.83333   0.81492   0.00000  Uiso   1.00
O1200  O     0.06067   0.83333   0.68508   0.00000  Uiso   1.00
O1201  O     0.20205   0.77434   0.79744   0.00000  Uiso   1.00
C1202  C     0.17523   0.77184   0.84286   0.00000  Uiso   1.00
H1203  H     0.13966   0.75644   0.84627   0.00000  Uiso   1.00
H1204  H     0.16937   0.80286   0.85845   0.00000  Uiso   1.00
C1205  C     0.20317   0.74589   0.86840   0.00000  Uiso   1.00
H1206  H     0.24007   0.75885   0.86420   0.00000  Uiso   1.00
H1207  H     0.18376   0.74537   0.90460   0.00000  Uiso   1.00
H1208  H     0.20653   0.71388   0.85556   0.00000  Uiso   1.00
O1209  O     0.13128   0.89233   0.70256   0.00000  Uiso   1.00
C1210  C     0.15810   0.89482   0.65714   0.00000  Uiso   1.00
H1211  H     0.16396   0.86380   0.64155   0.00000  Uiso   1.00
H1212  H     0.19367   0.91022   0.65373   0.00000  Uiso   1.00
C1213  C     0.13016   0.92078   0.63160   0.00000  Uiso   1.00
H1214  H     0.12680   0.95279   0.64444   0.00000  Uiso   1.00
H1215  H     0.14958   0.92129   0.59540   0.00000  Uiso   1.00
H1216  H     0.09326   0.90781   0.63580   0.00000  Uiso   1.00
C1217  C     0.66656   0.75404   0.75009   0.00000  Uiso   1.00
C1218  C     0.33344   0.91262   0.74991   0.00000  Uiso   1.00
C1219  C     0.52666   0.81657   0.54596   0.00000  Uiso   1.00
C1220  C     0.47334   0.85010   0.95404   0.00000  Uiso   1.00
C1221  C     0.57508   0.81163   0.52340   0.00000  Uiso   1.00
C1222  C     0.42492   0.85504   0.97660   0.00000  Uiso   1.00
C1223  C     0.62346   0.68773   0.75267   0.00000  Uiso   1.00
C1224  C     0.37654   0.97894   0.74733   0.00000  Uiso   1.00
C1225  C     0.62358   0.97848   0.75254   0.00000  Uiso   1.00
C1226  C     0.37642   0.68818   0.74746   0.00000  Uiso   1.00
C1227  C     0.33345   0.95725   0.74990   0.00000  Uiso   1.00
C1228  C     0.66655   0.70942   0.75010   0.00000  Uiso   1.00
C1229  C     0.51746   0.80486   0.77495   0.00000  Uiso   1.00
C1230  C     0.48254   0.86180   0.72505   0.00000  Uiso   1.00
C1231  C     0.46781   0.80474   0.77410   0.00000  Uiso   1.00
C1232  C     0.53219   0.86193   0.72590   0.00000  Uiso   1.00
C1233  C     0.63949   0.83336   0.83604   0.00000  Uiso   1.00
C1234  C     0.36051   0.83331   0.66396   0.00000  Uiso   1.00
C1235  C     0.62463   0.83139   0.88510   0.00000  Uiso   1.00
C1236  C     0.37537   0.83527   0.61490   0.00000  Uiso   1.00
C1237  C     0.64017   0.81271   0.95544   0.00000  Uiso   1.00
C1238  C     0.35983   0.85396   0.54456   0.00000  Uiso   1.00
C1239  C     0.65679   0.81861   0.90936   0.00000  Uiso   1.00
C1240  C     0.34321   0.84805   0.59064   0.00000  Uiso   1.00
C1241  C     0.57636   0.83965   0.90742   0.00000  Uiso   1.00
C1242  C     0.42364   0.82701   0.59258   0.00000  Uiso   1.00
C1243  C     0.55807   0.83249   0.95368   0.00000  Uiso   1.00
C1244  C     0.44192   0.83418   0.54632   0.00000  Uiso   1.00
C1245  C     0.59115   0.81906   0.97763   0.00000  Uiso   1.00
C1246  C     0.40885   0.84761   0.52237   0.00000  Uiso   1.00
C1247  C     0.50801   0.83749   0.97654   0.00000  Uiso   1.00
C1248  C     0.49199   0.82918   0.52346   0.00000  Uiso   1.00
Cu1249 Cu    0.38022   0.83334   0.75000   0.00000  Uiso   1.00
Cu1250 Cu    0.61978   0.83333   0.75000   0.00000  Uiso   1.00
H1251  H     0.60015   0.80157   0.54202   0.00000  Uiso   1.00
H1252  H     0.39985   0.86510   0.95798   0.00000  Uiso   1.00
H1253  H     0.44619   0.81566   0.61261   0.00000  Uiso   1.00
H1254  H     0.55381   0.85100   0.88739   0.00000  Uiso   1.00
H1255  H     0.63897   0.85454   0.60736   0.00000  Uiso   1.00
H1256  H     0.36103   0.81213   0.89264   0.00000  Uiso   1.00
H1257  H     0.66541   0.80214   0.97360   0.00000  Uiso   1.00
H1258  H     0.33459   0.86453   0.52640   0.00000  Uiso   1.00
H1259  H     0.51799   0.80996   0.58124   0.00000  Uiso   1.00
H1260  H     0.48201   0.85670   0.91876   0.00000  Uiso   1.00
H1261  H     0.58968   0.70355   0.75483   0.00000  Uiso   1.00
H1262  H     0.41032   0.96312   0.74517   0.00000  Uiso   1.00
H1263  H     0.58985   0.96229   0.75461   0.00000  Uiso   1.00
H1264  H     0.41015   0.70438   0.74539   0.00000  Uiso   1.00
H1265  H     0.44300   0.78148   0.79218   0.00000  Uiso   1.00
H1266  H     0.55700   0.88518   0.70782   0.00000  Uiso   1.00
N1267  N     0.45069   0.83334   0.74999   0.00000  Uiso   1.00
N1268  N     0.54931   0.83332   0.75001   0.00000  Uiso   1.00
O1269  O     0.37291   0.77322   0.75000   0.00000  Uiso   1.00
O1270  O     0.62709   0.89345   0.75000   0.00000  Uiso   1.00
O1271  O     0.62706   0.77321   0.75000   0.00000  Uiso   1.00
O1272  O     0.37294   0.89346   0.74999   0.00000  Uiso   1.00
O1273  O     0.35186   0.83334   0.81491   0.00000  Uiso   1.00
O1274  O     0.64814   0.83332   0.68508   0.00000  Uiso   1.00
O1275  O     0.60600   0.83333   0.81492   0.00000  Uiso   1.00
O1276  O     0.39400   0.83333   0.68508   0.00000  Uiso   1.00
O1277  O     0.53539   0.77434   0.79744   0.00000  Uiso   1.00
C1278  C     0.50857   0.77184   0.84286   0.00000  Uiso   1.00
H1279  H     0.47300   0.75644   0.84627   0.00000  Uiso   1.00
H1280  H     0.50270   0.80286   0.85845   0.00000  Uiso   1.00
C1281  C     0.53651   0.74589   0.86840   0.00000  Uiso   1.00
H1282  H     0.57341   0.75885   0.86420   0.00000  Uiso   1.00
H1283  H     0.51709   0.74537   0.90460   0.00000  Uiso   1.00
H1284  H     0.53987   0.71388   0.85556   0.00000  Uiso   1.00
O1285  O     0.46461   0.89233   0.70256   0.00000  Uiso   1.00
C1286  C     0.49143   0.89482   0.65714   0.00000  Uiso   1.00
H1287  H     0.49730   0.86380   0.64155   0.00000  Uiso   1.00
H1288  H     0.52700   0.91022   0.65373   0.00000  Uiso   1.00
C1289  C     0.46349   0.92078   0.63160   0.00000  Uiso   1.00
H1290  H     0.46014   0.95279   0.64444   0.00000  Uiso   1.00
H1291  H     0.48291   0.92129   0.59540   0.00000  Uiso   1.00
H1292  H     0.42659   0.90781   0.63580   0.00000  Uiso   1.00
C1293  C     0.99989   0.75404   0.75009   0.00000  Uiso   1.00
C1294  C     0.66677   0.91262   0.74991   0.00000  Uiso   1.00
C1295  C     0.85999   0.81657   0.54596   0.00000  Uiso   1.00
C1296  C     0.80667   0.85010   0.95404   0.00000  Uiso   1.00
C1297  C     0.90841   0.81163   0.52340   0.00000  Uiso   1.00
C1298  C     0.75826   0.85504   0.97660   0.00000  Uiso   1.00
C1299  C     0.95679   0.68773   0.75267   0.00000  Uiso   1.00
C1300  C     0.70987   0.97894   0.74733   0.00000  Uiso   1.00
C1301  C     0.95691   0.97848   0.75254   0.00000  Uiso   1.00
C1302  C     0.70975   0.68818   0.74746   0.00000  Uiso   1.00
C1303  C     0.66679   0.95725   0.74990   0.00000  Uiso   1.00
C1304  C     0.99988   0.70942   0.75010   0.00000  Uiso   1.00
C1305  C     0.85079   0.80486   0.77495   0.00000  Uiso   1.00
C1306  C     0.81587   0.86180   0.72505   0.00000  Uiso   1.00
C1307  C     0.80115   0.80474   0.77410   0.00000  Uiso   1.00
C1308  C     0.86552   0.86193   0.72590   0.00000  Uiso   1.00
C1309  C     0.97282   0.83336   0.83604   0.00000  Uiso   1.00
C1310  C     0.69385   0.83331   0.66396   0.00000  Uiso   1.00
C1311  C     0.95797   0.83139   0.88510   0.00000  Uiso   1.00
C1312  C     0.70870   0.83527   0.61490   0.00000  Uiso   1.00
C1313  C     0.97350   0.81271   0.95544   0.00000  Uiso   1.00
C1314  C     0.69317   0.85396   0.54456   0.00000  Uiso   1.00
C1315  C     0.99013   0.81861   0.90936   0.00000  Uiso   1.00
C1316  C     0.67654   0.84805   0.59064   0.00000  Uiso   1.00
C1317  C     0.90970   0.83965   0.90742   0.00000  Uiso   1.00
C1318  C     0.75697   0.82701   0.59258   0.00000  Uiso   1.00
C1319  C     0.89141   0.83249   0.95368   0.00000  Uiso   1.00
C1320  C     0.77526   0.83418   0.54632   0.00000  Uiso   1.00
C1321  C     0.92448   0.81906   0.97763   0.00000  Uiso   1.00
C1322  C     0.74218   0.84761   0.52237   0.00000  Uiso   1.00
C1323  C     0.84134   0.83749   0.97654   0.00000  Uiso   1.00
C1324  C     0.82533   0.82918   0.52346   0.00000  Uiso   1.00
Cu1325 Cu    0.71355   0.83334   0.75000   0.00000  Uiso   1.00
Cu1326 Cu    0.95311   0.83333   0.75000   0.00000  Uiso   1.00
H1327  H     0.93348   0.80157   0.54202   0.00000  Uiso   1.00
H1328  H     0.73319   0.86510   0.95798   0.00000  Uiso   1.00
H1329  H     0.77952   0.81566   0.61261   0.00000  Uiso   1.00
H1330  H     0.88714   0.85100   0.88739   0.00000  Uiso   1.00
H1331  H     0.97231   0.85454   0.60736   0.00000  Uiso   1.00
H1332  H     0.69436   0.81213   0.89264   0.00000  Uiso   1.00
H1333  H     0.99875   0.80214   0.97360   0.00000  Uiso   1.00
H1334  H     0.66792   0.86453   0.52640   0.00000  Uiso   1.00
H1335  H     0.85132   0.80996   0.58124   0.00000  Uiso   1.00
H1336  H     0.81534   0.85670   0.91876   0.00000  Uiso   1.00
H1337  H     0.92302   0.70355   0.75483   0.00000  Uiso   1.00
H1338  H     0.74365   0.96312   0.74517   0.00000  Uiso   1.00
H1339  H     0.92319   0.96229   0.75461   0.00000  Uiso   1.00
H1340  H     0.74348   0.70438   0.74539   0.00000  Uiso   1.00
H1341  H     0.77634   0.78148   0.79218   0.00000  Uiso   1.00
H1342  H     0.89033   0.88518   0.70782   0.00000  Uiso   1.00
N1343  N     0.78403   0.83334   0.74999   0.00000  Uiso   1.00
N1344  N     0.88264   0.83332   0.75001   0.00000  Uiso   1.00
O1345  O     0.70625   0.77322   0.75000   0.00000  Uiso   1.00
O1346  O     0.96042   0.89345   0.75000   0.00000  Uiso   1.00
O1347  O     0.96039   0.77321   0.75000   0.00000  Uiso   1.00
O1348  O     0.70628   0.89346   0.74999   0.00000  Uiso   1.00
O1349  O     0.68519   0.83334   0.81491   0.00000  Uiso   1.00
O1350  O     0.98148   0.83332   0.68508   0.00000  Uiso   1.00
O1351  O     0.93933   0.83333   0.81492   0.00000  Uiso   1.00
O1352  O     0.72733   0.83333   0.68508   0.00000  Uiso   1.00
O1353  O     0.86872   0.77434   0.79744   0.00000  Uiso   1.00
C1354  C     0.84190   0.77184   0.84286   0.00000  Uiso   1.00
H1355  H     0.80633   0.75644   0.84627   0.00000  Uiso   1.00
H1356  H     0.83603   0.80286   0.85845   0.00000  Uiso   1.00
C1357  C     0.86984   0.74589   0.86840   0.00000  Uiso   1.00
H1358  H     0.90674   0.75885   0.86420   0.00000  Uiso   1.00
H1359  H     0.85042   0.74537   0.90460   0.00000  Uiso   1.00
H1360  H     0.87320   0.71388   0.85556   0.00000  Uiso   1.00
O1361  O     0.79795   0.89233   0.70256   0.00000  Uiso   1.00
C1362  C     0.82477   0.89482   0.65714   0.00000  Uiso   1.00
H1363  H     0.83063   0.86380   0.64155   0.00000  Uiso   1.00
H1364  H     0.86034   0.91022   0.65373   0.00000  Uiso   1.00
C1365  C     0.79683   0.92078   0.63160   0.00000  Uiso   1.00
H1366  H     0.79347   0.95279   0.64444   0.00000  Uiso   1.00
H1367  H     0.81624   0.92129   0.59540   0.00000  Uiso   1.00
H1368  H     0.75992   0.90781   0.63580   0.00000  Uiso   1.00
loop_
_geom_bond_atom_site_label_1
_geom_bond_atom_site_label_2
_geom_bond_distance
_geom_bond_site_symmetry_2
_ccdc_geom_bond_type
C1     C12     1.450   .     S
C1     O55     1.294   .     A
C1     O129    1.292   .     S
C2     C11     1.450   .     S
C2     O56     1.294   .     A
C2     O206    1.292   1_455 S
C3     H43     1.074   .     S
C3     C32     1.417   .     A
C3     C5      1.385   .     A
C4     C6      1.385   .     A
C4     H44     1.074   .     S
C4     C31     1.417   .     A
C5     H35     1.085   .     S
C5     C713    1.389   1_554 S
C6     H36     1.084   .     S
C6     C714    1.389   .     S
C7     H45     1.083   .     S
C7     C12     1.400   .     A
C7     C465    1.383   1_545 S
C8     C11     1.400   .     A
C8     H46     1.083   .     S
C8     C238    1.383   .     S
C9     H47     1.083   .     S
C9     C235    1.383   .     S
C9     C87     1.402   .     S
C10    H48     1.083   .     S
C10    C464    1.383   1_545 S
C10    C164    1.402   1_455 S
C11    C161    1.402   1_455 S
C12    C86     1.402   .     S
C13    N52     1.375   .     A
C13    C15     1.428   .     A
C13    O61     1.386   .     S
C14    C16     1.428   .     A
C14    N51     1.375   .     A
C14    O69     1.386   .     S
C15    N51     1.362   .     A
C15    H49     1.080   .     S
C16    H50     1.080   .     S
C16    N52     1.362   .     A
C17    O59     1.297   .     A
C17    C19     1.466   .     S
C17    O133    1.296   .     S
C18    O60     1.297   .     A
C18    C20     1.466   .     S
C18    O210    1.296   1_455 S
C19    C23     1.398   .     A
C19    C25     1.397   .     A
C20    C24     1.398   .     A
C20    C26     1.397   .     A
C21    C29     1.404   .     A
C21    H41     1.084   .     S
C21    C23     1.391   .     A
C22    C24     1.391   .     A
C22    C30     1.404   .     A
C22    H42     1.084   .     S
C23    H116    1.083   .     S
C24    H191    1.083   1_455 S
C25    H38     1.073   .     S
C25    C27     1.406   .     A
C26    H37     1.073   .     S
C26    C28     1.406   .     A
C27    C29     1.419   .     A
C27    C31     1.429   .     A
C28    C32     1.429   .     A
C28    C30     1.419   .     A
C29    C689    1.389   .     S
C30    C690    1.389   1_554 S
C31    C716    1.427   .     S
C32    C715    1.427   1_554 S
Cu33   O56     1.965   .     S
Cu33   O53     1.963   .     S
Cu33   O60     1.944   .     S
Cu33   O57     1.958   .     S
Cu33   N51     2.016   .     S
Cu33   Cu186   2.683   1_455 S
Cu34   O55     1.965   .     S
Cu34   O59     1.944   .     S
Cu34   N52     2.016   .     S
Cu34   O54     1.963   .     S
Cu34   O58     1.958   .     S
Cu34   Cu109   2.683   .     S
H39    C100    1.083   .     S
H40    C175    1.083   1_455 S
O53    C153    1.292   1_455 S
O54    C78     1.292   .     S
O57    C169    1.296   1_455 S
O58    C94     1.296   .     S
O61    C62     1.413   .     S
C62    H64     1.114   .     S
C62    H63     1.111   .     S
C62    C65     1.522   .     S
C65    H67     1.111   .     S
C65    H68     1.111   .     S
C65    H66     1.109   .     S
O69    C70     1.413   .     S
C70    H71     1.114   .     S
C70    C73     1.522   .     S
C70    H72     1.111   .     S
C73    H74     1.111   .     S
C73    H75     1.111   .     S
C73    H76     1.109   .     S
C77    C88     1.450   .     S
C77    O131    1.294   .     A
C77    O205    1.292   .     S
C78    C87     1.450   .     S
C78    O132    1.294   .     A
C79    H119    1.074   .     S
C79    C108    1.417   .     A
C79    C81     1.385   .     A
C80    C82     1.385   .     A
C80    H120    1.074   .     S
C80    C107    1.417   .     A
C81    H111    1.085   .     S
C81    C789    1.389   1_554 S
C82    H112    1.084   .     S
C82    C790    1.389   .     S
C83    H121    1.083   .     S
C83    C88     1.400   .     A
C83    C541    1.383   1_545 S
C84    C87     1.400   .     A
C84    H122    1.083   .     S
C84    C314    1.383   .     S
C85    H123    1.083   .     S
C85    C311    1.383   .     S
C85    C163    1.402   .     S
C86    H124    1.083   .     S
C86    C540    1.383   1_545 S
C88    C162    1.402   .     S
C89    N128    1.375   .     A
C89    C91     1.428   .     A
C89    O137    1.386   .     S
C90    C92     1.428   .     A
C90    N127    1.375   .     A
C90    O145    1.386   .     S
C91    N127    1.362   .     A
C91    H125    1.080   .     S
C92    H126    1.080   .     S
C92    N128    1.362   .     A
C93    O135    1.297   .     A
C93    C95     1.466   .     S
C93    O209    1.296   .     S
C94    O136    1.297   .     A
C94    C96     1.466   .     S
C95    C99     1.398   .     A
C95    C101    1.397   .     A
C96    C100    1.398   .     A
C96    C102    1.397   .     A
C97    C105    1.404   .     A
C97    H117    1.084   .     S
C97    C99     1.391   .     A
C98    C100    1.391   .     A
C98    C106    1.404   .     A
C98    H118    1.084   .     S
C99    H192    1.083   .     S
C101   H114    1.073   .     S
C101   C103    1.406   .     A
C102   H113    1.073   .     S
C102   C104    1.406   .     A
C103   C105    1.419   .     A
C103   C107    1.429   .     A
C104   C108    1.429   .     A
C104   C106    1.419   .     A
C105   C765    1.389   .     S
C106   C766    1.389   1_554 S
C107   C792    1.427   .     S
C108   C791    1.427   1_554 S
Cu109  O132    1.965   .     S
Cu109  O129    1.963   .     S
Cu109  O136    1.944   .     S
Cu109  O133    1.958   .     S
Cu109  N127    2.016   .     S
Cu110  O131    1.965   .     S
Cu110  O135    1.944   .     S
Cu110  N128    2.016   .     S
Cu110  O130    1.963   .     S
Cu110  O134    1.958   .     S
Cu110  Cu185   2.683   .     S
H115   C176    1.083   .     S
O130   C154    1.292   .     S
O134   C170    1.296   .     S
O137   C138    1.413   .     S
C138   H140    1.114   .     S
C138   H139    1.111   .     S
C138   C141    1.522   .     S
C141   H143    1.111   .     S
C141   H144    1.111   .     S
C141   H142    1.109   .     S
O145   C146    1.413   .     S
C146   H147    1.114   .     S
C146   C149    1.522   .     S
C146   H148    1.111   .     S
C149   H150    1.111   .     S
C149   H151    1.111   .     S
C149   H152    1.109   .     S
C153   C164    1.450   .     S
C153   O207    1.294   .     A
C153   O53     1.292   1_655 S
C154   C163    1.450   .     S
C154   O208    1.294   .     A
C155   H195    1.074   .     S
C155   C184    1.417   .     A
C155   C157    1.385   .     A
C156   C158    1.385   .     A
C156   H196    1.074   .     S
C156   C183    1.417   .     A
C157   H187    1.085   .     S
C157   C865    1.389   1_554 S
C158   H188    1.084   .     S
C158   C866    1.389   .     S
C159   H197    1.083   .     S
C159   C164    1.400   .     A
C159   C617    1.383   1_545 S
C160   C163    1.400   .     A
C160   H198    1.083   .     S
C160   C390    1.383   .     S
C161   H199    1.083   .     S
C161   C387    1.383   .     S
C161   C11     1.402   1_655 S
C162   H200    1.083   .     S
C162   C616    1.383   1_545 S
C164   C10     1.402   1_655 S
C165   N204    1.375   .     A
C165   C167    1.428   .     A
C165   O213    1.386   .     S
C166   C168    1.428   .     A
C166   N203    1.375   .     A
C166   O221    1.386   .     S
C167   N203    1.362   .     A
C167   H201    1.080   .     S
C168   H202    1.080   .     S
C168   N204    1.362   .     A
C169   O211    1.297   .     A
C169   C171    1.466   .     S
C169   O57     1.296   1_655 S
C170   O212    1.297   .     A
C170   C172    1.466   .     S
C171   C175    1.398   .     A
C171   C177    1.397   .     A
C172   C176    1.398   .     A
C172   C178    1.397   .     A
C173   C181    1.404   .     A
C173   H193    1.084   .     S
C173   C175    1.391   .     A
C174   C176    1.391   .     A
C174   C182    1.404   .     A
C174   H194    1.084   .     S
C175   H40     1.083   1_655 S
C177   H190    1.073   .     S
C177   C179    1.406   .     A
C178   H189    1.073   .     S
C178   C180    1.406   .     A
C179   C181    1.419   .     A
C179   C183    1.429   .     A
C180   C184    1.429   .     A
C180   C182    1.419   .     A
C181   C841    1.389   .     S
C182   C842    1.389   1_554 S
C183   C868    1.427   .     S
C184   C867    1.427   1_554 S
Cu185  O208    1.965   .     S
Cu185  O205    1.963   .     S
Cu185  O212    1.944   .     S
Cu185  O209    1.958   .     S
Cu185  N203    2.016   .     S
Cu186  O207    1.965   .     S
Cu186  O211    1.944   .     S
Cu186  N204    2.016   .     S
Cu186  O206    1.963   .     S
Cu186  O210    1.958   .     S
Cu186  Cu33    2.683   1_655 S
H191   C24     1.083   1_655 S
O206   C2      1.292   1_655 S
O210   C18     1.296   1_655 S
O213   C214    1.413   .     S
C214   H216    1.114   .     S
C214   H215    1.111   .     S
C214   C217    1.522   .     S
C217   H219    1.111   .     S
C217   H220    1.111   .     S
C217   H218    1.109   .     S
O221   C222    1.413   .     S
C222   H223    1.114   .     S
C222   C225    1.522   .     S
C222   H224    1.111   .     S
C225   H226    1.111   .     S
C225   H227    1.111   .     S
C225   H228    1.109   .     S
C229   C240    1.450   .     S
C229   O283    1.294   .     A
C229   O357    1.292   .     S
C230   C239    1.450   .     S
C230   O284    1.294   .     A
C230   O434    1.292   1_455 S
C231   H271    1.074   .     S
C231   C260    1.417   .     A
C231   C233    1.385   .     A
C232   C234    1.385   .     A
C232   H272    1.074   .     S
C232   C259    1.417   .     A
C233   H263    1.085   .     S
C233   C941    1.389   1_554 S
C234   H264    1.084   .     S
C234   C942    1.389   .     S
C235   H273    1.083   .     S
C235   C240    1.400   .     A
C236   C239    1.400   .     A
C236   H274    1.083   .     S
C236   C466    1.383   .     S
C237   H275    1.083   .     S
C237   C463    1.383   .     S
C237   C315    1.402   .     S
C238   H276    1.083   .     S
C238   C392    1.402   1_455 S
C239   C389    1.402   1_455 S
C240   C314    1.402   .     S
C241   N280    1.375   .     A
C241   C243    1.428   .     A
C241   O289    1.386   .     S
C242   C244    1.428   .     A
C242   N279    1.375   .     A
C242   O297    1.386   .     S
C243   N279    1.362   .     A
C243   H277    1.080   .     S
C244   H278    1.080   .     S
C244   N280    1.362   .     A
C245   O287    1.297   .     A
C245   C247    1.466   .     S
C245   O361    1.296   .     S
C246   O288    1.297   .     A
C246   C248    1.466   .     S
C246   O438    1.296   1_455 S
C247   C251    1.398   .     A
C247   C253    1.397   .     A
C248   C252    1.398   .     A
C248   C254    1.397   .     A
C249   C257    1.404   .     A
C249   H269    1.084   .     S
C249   C251    1.391   .     A
C250   C252    1.391   .     A
C250   C258    1.404   .     A
C250   H270    1.084   .     S
C251   H344    1.083   .     S
C252   H419    1.083   1_455 S
C253   H266    1.073   .     S
C253   C255    1.406   .     A
C254   H265    1.073   .     S
C254   C256    1.406   .     A
C255   C257    1.419   .     A
C255   C259    1.429   .     A
C256   C260    1.429   .     A
C256   C258    1.419   .     A
C257   C917    1.389   .     S
C258   C918    1.389   1_554 S
C259   C944    1.427   .     S
C260   C943    1.427   1_554 S
Cu261  O284    1.965   .     S
Cu261  O281    1.963   .     S
Cu261  O288    1.944   .     S
Cu261  O285    1.958   .     S
Cu261  N279    2.016   .     S
Cu261  Cu414   2.683   1_455 S
Cu262  O283    1.965   .     S
Cu262  O287    1.944   .     S
Cu262  N280    2.016   .     S
Cu262  O282    1.963   .     S
Cu262  O286    1.958   .     S
Cu262  Cu337   2.683   .     S
H267   C328    1.083   .     S
H268   C403    1.083   1_455 S
O281   C381    1.292   1_455 S
O282   C306    1.292   .     S
O285   C397    1.296   1_455 S
O286   C322    1.296   .     S
O289   C290    1.413   .     S
C290   H292    1.114   .     S
C290   H291    1.111   .     S
C290   C293    1.522   .     S
C293   H295    1.111   .     S
C293   H296    1.111   .     S
C293   H294    1.109   .     S
O297   C298    1.413   .     S
C298   H299    1.114   .     S
C298   C301    1.522   .     S
C298   H300    1.111   .     S
C301   H302    1.111   .     S
C301   H303    1.111   .     S
C301   H304    1.109   .     S
C305   C316    1.450   .     S
C305   O359    1.294   .     A
C305   O433    1.292   .     S
C306   C315    1.450   .     S
C306   O360    1.294   .     A
C307   H347    1.074   .     S
C307   C336    1.417   .     A
C307   C309    1.385   .     A
C308   C310    1.385   .     A
C308   H348    1.074   .     S
C308   C335    1.417   .     A
C309   H339    1.085   .     S
C309   C1017   1.389   1_554 S
C310   H340    1.084   .     S
C310   C1018   1.389   .     S
C311   H349    1.083   .     S
C311   C316    1.400   .     A
C312   C315    1.400   .     A
C312   H350    1.083   .     S
C312   C542    1.383   .     S
C313   H351    1.083   .     S
C313   C539    1.383   .     S
C313   C391    1.402   .     S
C314   H352    1.083   .     S
C316   C390    1.402   .     S
C317   N356    1.375   .     A
C317   C319    1.428   .     A
C317   O365    1.386   .     S
C318   C320    1.428   .     A
C318   N355    1.375   .     A
C318   O373    1.386   .     S
C319   N355    1.362   .     A
C319   H353    1.080   .     S
C320   H354    1.080   .     S
C320   N356    1.362   .     A
C321   O363    1.297   .     A
C321   C323    1.466   .     S
C321   O437    1.296   .     S
C322   O364    1.297   .     A
C322   C324    1.466   .     S
C323   C327    1.398   .     A
C323   C329    1.397   .     A
C324   C328    1.398   .     A
C324   C330    1.397   .     A
C325   C333    1.404   .     A
C325   H345    1.084   .     S
C325   C327    1.391   .     A
C326   C328    1.391   .     A
C326   C334    1.404   .     A
C326   H346    1.084   .     S
C327   H420    1.083   .     S
C329   H342    1.073   .     S
C329   C331    1.406   .     A
C330   H341    1.073   .     S
C330   C332    1.406   .     A
C331   C333    1.419   .     A
C331   C335    1.429   .     A
C332   C336    1.429   .     A
C332   C334    1.419   .     A
C333   C993    1.389   .     S
C334   C994    1.389   1_554 S
C335   C1020   1.427   .     S
C336   C1019   1.427   1_554 S
Cu337  O360    1.965   .     S
Cu337  O357    1.963   .     S
Cu337  O364    1.944   .     S
Cu337  O361    1.958   .     S
Cu337  N355    2.016   .     S
Cu338  O359    1.965   .     S
Cu338  O363    1.944   .     S
Cu338  N356    2.016   .     S
Cu338  O358    1.963   .     S
Cu338  O362    1.958   .     S
Cu338  Cu413   2.683   .     S
H343   C404    1.083   .     S
O358   C382    1.292   .     S
O362   C398    1.296   .     S
O365   C366    1.413   .     S
C366   H368    1.114   .     S
C366   H367    1.111   .     S
C366   C369    1.522   .     S
C369   H371    1.111   .     S
C369   H372    1.111   .     S
C369   H370    1.109   .     S
O373   C374    1.413   .     S
C374   H375    1.114   .     S
C374   C377    1.522   .     S
C374   H376    1.111   .     S
C377   H378    1.111   .     S
C377   H379    1.111   .     S
C377   H380    1.109   .     S
C381   C392    1.450   .     S
C381   O435    1.294   .     A
C381   O281    1.292   1_655 S
C382   C391    1.450   .     S
C382   O436    1.294   .     A
C383   H423    1.074   .     S
C383   C412    1.417   .     A
C383   C385    1.385   .     A
C384   C386    1.385   .     A
C384   H424    1.074   .     S
C384   C411    1.417   .     A
C385   H415    1.085   .     S
C385   C1093   1.389   1_554 S
C386   H416    1.084   .     S
C386   C1094   1.389   .     S
C387   H425    1.083   .     S
C387   C392    1.400   .     A
C388   C391    1.400   .     A
C388   H426    1.083   .     S
C388   C618    1.383   .     S
C389   H427    1.083   .     S
C389   C615    1.383   .     S
C389   C239    1.402   1_655 S
C390   H428    1.083   .     S
C392   C238    1.402   1_655 S
C393   N432    1.375   .     A
C393   C395    1.428   .     A
C393   O441    1.386   .     S
C394   C396    1.428   .     A
C394   N431    1.375   .     A
C394   O449    1.386   .     S
C395   N431    1.362   .     A
C395   H429    1.080   .     S
C396   H430    1.080   .     S
C396   N432    1.362   .     A
C397   O439    1.297   .     A
C397   C399    1.466   .     S
C397   O285    1.296   1_655 S
C398   O440    1.297   .     A
C398   C400    1.466   .     S
C399   C403    1.398   .     A
C399   C405    1.397   .     A
C400   C404    1.398   .     A
C400   C406    1.397   .     A
C401   C409    1.404   .     A
C401   H421    1.084   .     S
C401   C403    1.391   .     A
C402   C404    1.391   .     A
C402   C410    1.404   .     A
C402   H422    1.084   .     S
C403   H268    1.083   1_655 S
C405   H418    1.073   .     S
C405   C407    1.406   .     A
C406   H417    1.073   .     S
C406   C408    1.406   .     A
C407   C409    1.419   .     A
C407   C411    1.429   .     A
C408   C412    1.429   .     A
C408   C410    1.419   .     A
C409   C1069   1.389   .     S
C410   C1070   1.389   1_554 S
C411   C1096   1.427   .     S
C412   C1095   1.427   1_554 S
Cu413  O436    1.965   .     S
Cu413  O433    1.963   .     S
Cu413  O440    1.944   .     S
Cu413  O437    1.958   .     S
Cu413  N431    2.016   .     S
Cu414  O435    1.965   .     S
Cu414  O439    1.944   .     S
Cu414  N432    2.016   .     S
Cu414  O434    1.963   .     S
Cu414  O438    1.958   .     S
Cu414  Cu261   2.683   1_655 S
H419   C252    1.083   1_655 S
O434   C230    1.292   1_655 S
O438   C246    1.296   1_655 S
O441   C442    1.413   .     S
C442   H444    1.114   .     S
C442   H443    1.111   .     S
C442   C445    1.522   .     S
C445   H447    1.111   .     S
C445   H448    1.111   .     S
C445   H446    1.109   .     S
O449   C450    1.413   .     S
C450   H451    1.114   .     S
C450   C453    1.522   .     S
C450   H452    1.111   .     S
C453   H454    1.111   .     S
C453   H455    1.111   .     S
C453   H456    1.109   .     S
C457   C468    1.450   .     S
C457   O511    1.294   .     A
C457   O585    1.292   .     S
C458   C467    1.450   .     S
C458   O512    1.294   .     A
C458   O662    1.292   1_455 S
C459   H499    1.074   .     S
C459   C488    1.417   .     A
C459   C461    1.385   .     A
C460   C462    1.385   .     A
C460   H500    1.074   .     S
C460   C487    1.417   .     A
C461   H491    1.085   .     S
C461   C1169   1.389   1_554 S
C462   H492    1.084   .     S
C462   C1170   1.389   .     S
C463   H501    1.083   .     S
C463   C468    1.400   .     A
C464   C467    1.400   .     A
C464   H502    1.083   .     S
C464   C10     1.383   1_565 S
C465   H503    1.083   .     S
C465   C7      1.383   1_565 S
C465   C543    1.402   .     S
C466   H504    1.083   .     S
C466   C620    1.402   1_455 S
C467   C617    1.402   1_455 S
C468   C542    1.402   .     S
C469   N508    1.375   .     A
C469   C471    1.428   .     A
C469   O517    1.386   .     S
C470   C472    1.428   .     A
C470   N507    1.375   .     A
C470   O525    1.386   .     S
C471   N507    1.362   .     A
C471   H505    1.080   .     S
C472   H506    1.080   .     S
C472   N508    1.362   .     A
C473   O515    1.297   .     A
C473   C475    1.466   .     S
C473   O589    1.296   .     S
C474   O516    1.297   .     A
C474   C476    1.466   .     S
C474   O666    1.296   1_455 S
C475   C479    1.398   .     A
C475   C481    1.397   .     A
C476   C480    1.398   .     A
C476   C482    1.397   .     A
C477   C485    1.404   .     A
C477   H497    1.084   .     S
C477   C479    1.391   .     A
C478   C480    1.391   .     A
C478   C486    1.404   .     A
C478   H498    1.084   .     S
C479   H572    1.083   .     S
C480   H647    1.083   1_455 S
C481   H494    1.073   .     S
C481   C483    1.406   .     A
C482   H493    1.073   .     S
C482   C484    1.406   .     A
C483   C485    1.419   .     A
C483   C487    1.429   .     A
C484   C488    1.429   .     A
C484   C486    1.419   .     A
C485   C1145   1.389   .     S
C486   C1146   1.389   1_554 S
C487   C1172   1.427   .     S
C488   C1171   1.427   1_554 S
Cu489  O512    1.965   .     S
Cu489  O509    1.963   .     S
Cu489  O516    1.944   .     S
Cu489  O513    1.958   .     S
Cu489  N507    2.016   .     S
Cu489  Cu642   2.683   1_455 S
Cu490  O511    1.965   .     S
Cu490  O515    1.944   .     S
Cu490  N508    2.016   .     S
Cu490  O510    1.963   .     S
Cu490  O514    1.958   .     S
Cu490  Cu565   2.683   .     S
H495   C556    1.083   .     S
H496   C631    1.083   1_455 S
O509   C609    1.292   1_455 S
O510   C534    1.292   .     S
O513   C625    1.296   1_455 S
O514   C550    1.296   .     S
O517   C518    1.413   .     S
C518   H520    1.114   .     S
C518   H519    1.111   .     S
C518   C521    1.522   .     S
C521   H523    1.111   .     S
C521   H524    1.111   .     S
C521   H522    1.109   .     S
O525   C526    1.413   .     S
C526   H527    1.114   .     S
C526   C529    1.522   .     S
C526   H528    1.111   .     S
C529   H530    1.111   .     S
C529   H531    1.111   .     S
C529   H532    1.109   .     S
C533   C544    1.450   .     S
C533   O587    1.294   .     A
C533   O661    1.292   .     S
C534   C543    1.450   .     S
C534   O588    1.294   .     A
C535   H575    1.074   .     S
C535   C564    1.417   .     A
C535   C537    1.385   .     A
C536   C538    1.385   .     A
C536   H576    1.074   .     S
C536   C563    1.417   .     A
C537   H567    1.085   .     S
C537   C1245   1.389   1_554 S
C538   H568    1.084   .     S
C538   C1246   1.389   .     S
C539   H577    1.083   .     S
C539   C544    1.400   .     A
C540   C543    1.400   .     A
C540   H578    1.083   .     S
C540   C86     1.383   1_565 S
C541   H579    1.083   .     S
C541   C83     1.383   1_565 S
C541   C619    1.402   .     S
C542   H580    1.083   .     S
C544   C618    1.402   .     S
C545   N584    1.375   .     A
C545   C547    1.428   .     A
C545   O593    1.386   .     S
C546   C548    1.428   .     A
C546   N583    1.375   .     A
C546   O601    1.386   .     S
C547   N583    1.362   .     A
C547   H581    1.080   .     S
C548   H582    1.080   .     S
C548   N584    1.362   .     A
C549   O591    1.297   .     A
C549   C551    1.466   .     S
C549   O665    1.296   .     S
C550   O592    1.297   .     A
C550   C552    1.466   .     S
C551   C555    1.398   .     A
C551   C557    1.397   .     A
C552   C556    1.398   .     A
C552   C558    1.397   .     A
C553   C561    1.404   .     A
C553   H573    1.084   .     S
C553   C555    1.391   .     A
C554   C556    1.391   .     A
C554   C562    1.404   .     A
C554   H574    1.084   .     S
C555   H648    1.083   .     S
C557   H570    1.073   .     S
C557   C559    1.406   .     A
C558   H569    1.073   .     S
C558   C560    1.406   .     A
C559   C561    1.419   .     A
C559   C563    1.429   .     A
C560   C564    1.429   .     A
C560   C562    1.419   .     A
C561   C1221   1.389   .     S
C562   C1222   1.389   1_554 S
C563   C1248   1.427   .     S
C564   C1247   1.427   1_554 S
Cu565  O588    1.965   .     S
Cu565  O585    1.963   .     S
Cu565  O592    1.944   .     S
Cu565  O589    1.958   .     S
Cu565  N583    2.016   .     S
Cu566  O587    1.965   .     S
Cu566  O591    1.944   .     S
Cu566  N584    2.016   .     S
Cu566  O586    1.963   .     S
Cu566  O590    1.958   .     S
Cu566  Cu641   2.683   .     S
H571   C632    1.083   .     S
O586   C610    1.292   .     S
O590   C626    1.296   .     S
O593   C594    1.413   .     S
C594   H596    1.114   .     S
C594   H595    1.111   .     S
C594   C597    1.522   .     S
C597   H599    1.111   .     S
C597   H600    1.111   .     S
C597   H598    1.109   .     S
O601   C602    1.413   .     S
C602   H603    1.114   .     S
C602   C605    1.522   .     S
C602   H604    1.111   .     S
C605   H606    1.111   .     S
C605   H607    1.111   .     S
C605   H608    1.109   .     S
C609   C620    1.450   .     S
C609   O663    1.294   .     A
C609   O509    1.292   1_655 S
C610   C619    1.450   .     S
C610   O664    1.294   .     A
C611   H651    1.074   .     S
C611   C640    1.417   .     A
C611   C613    1.385   .     A
C612   C614    1.385   .     A
C612   H652    1.074   .     S
C612   C639    1.417   .     A
C613   H643    1.085   .     S
C613   C1321   1.389   1_554 S
C614   H644    1.084   .     S
C614   C1322   1.389   .     S
C615   H653    1.083   .     S
C615   C620    1.400   .     A
C616   C619    1.400   .     A
C616   H654    1.083   .     S
C616   C162    1.383   1_565 S
C617   H655    1.083   .     S
C617   C159    1.383   1_565 S
C617   C467    1.402   1_655 S
C618   H656    1.083   .     S
C620   C466    1.402   1_655 S
C621   N660    1.375   .     A
C621   C623    1.428   .     A
C621   O669    1.386   .     S
C622   C624    1.428   .     A
C622   N659    1.375   .     A
C622   O677    1.386   .     S
C623   N659    1.362   .     A
C623   H657    1.080   .     S
C624   H658    1.080   .     S
C624   N660    1.362   .     A
C625   O667    1.297   .     A
C625   C627    1.466   .     S
C625   O513    1.296   1_655 S
C626   O668    1.297   .     A
C626   C628    1.466   .     S
C627   C631    1.398   .     A
C627   C633    1.397   .     A
C628   C632    1.398   .     A
C628   C634    1.397   .     A
C629   C637    1.404   .     A
C629   H649    1.084   .     S
C629   C631    1.391   .     A
C630   C632    1.391   .     A
C630   C638    1.404   .     A
C630   H650    1.084   .     S
C631   H496    1.083   1_655 S
C633   H646    1.073   .     S
C633   C635    1.406   .     A
C634   H645    1.073   .     S
C634   C636    1.406   .     A
C635   C637    1.419   .     A
C635   C639    1.429   .     A
C636   C640    1.429   .     A
C636   C638    1.419   .     A
C637   C1297   1.389   .     S
C638   C1298   1.389   1_554 S
C639   C1324   1.427   .     S
C640   C1323   1.427   1_554 S
Cu641  O664    1.965   .     S
Cu641  O661    1.963   .     S
Cu641  O668    1.944   .     S
Cu641  O665    1.958   .     S
Cu641  N659    2.016   .     S
Cu642  O663    1.965   .     S
Cu642  O667    1.944   .     S
Cu642  N660    2.016   .     S
Cu642  O662    1.963   .     S
Cu642  O666    1.958   .     S
Cu642  Cu489   2.683   1_655 S
H647   C480    1.083   1_655 S
O662   C458    1.292   1_655 S
O666   C474    1.296   1_655 S
O669   C670    1.413   .     S
C670   H672    1.114   .     S
C670   H671    1.111   .     S
C670   C673    1.522   .     S
C673   H675    1.111   .     S
C673   H676    1.111   .     S
C673   H674    1.109   .     S
O677   C678    1.413   .     S
C678   H679    1.114   .     S
C678   C681    1.522   .     S
C678   H680    1.111   .     S
C681   H682    1.111   .     S
C681   H683    1.111   .     S
C681   H684    1.109   .     S
C685   C696    1.450   .     S
C685   O739    1.294   .     A
C685   O813    1.292   .     S
C686   C695    1.450   .     S
C686   O740    1.294   .     A
C686   O890    1.292   1_455 S
C687   H727    1.074   .     S
C687   C716    1.417   .     A
C687   C689    1.385   .     A
C688   C690    1.385   .     A
C688   H728    1.074   .     S
C688   C715    1.417   .     A
C689   H719    1.085   .     S
C690   H720    1.084   .     S
C690   C30     1.389   1_556 S
C691   H729    1.083   .     S
C691   C696    1.400   .     A
C691   C1149   1.383   1_545 S
C692   C695    1.400   .     A
C692   H730    1.083   .     S
C692   C922    1.383   .     S
C693   H731    1.083   .     S
C693   C919    1.383   .     S
C693   C771    1.402   .     S
C694   H732    1.083   .     S
C694   C1148   1.383   1_545 S
C694   C848    1.402   1_455 S
C695   C845    1.402   1_455 S
C696   C770    1.402   .     S
C697   N736    1.375   .     A
C697   C699    1.428   .     A
C697   O745    1.386   .     S
C698   C700    1.428   .     A
C698   N735    1.375   .     A
C698   O753    1.386   .     S
C699   N735    1.362   .     A
C699   H733    1.080   .     S
C700   H734    1.080   .     S
C700   N736    1.362   .     A
C701   O743    1.297   .     A
C701   C703    1.466   .     S
C701   O817    1.296   .     S
C702   O744    1.297   .     A
C702   C704    1.466   .     S
C702   O894    1.296   1_455 S
C703   C707    1.398   .     A
C703   C709    1.397   .     A
C704   C708    1.398   .     A
C704   C710    1.397   .     A
C705   C713    1.404   .     A
C705   H725    1.084   .     S
C705   C707    1.391   .     A
C706   C708    1.391   .     A
C706   C714    1.404   .     A
C706   H726    1.084   .     S
C707   H800    1.083   .     S
C708   H875    1.083   1_455 S
C709   H722    1.073   .     S
C709   C711    1.406   .     A
C710   H721    1.073   .     S
C710   C712    1.406   .     A
C711   C713    1.419   .     A
C711   C715    1.429   .     A
C712   C716    1.429   .     A
C712   C714    1.419   .     A
C713   C5      1.389   1_556 S
C715   C32     1.427   1_556 S
Cu717  O740    1.965   .     S
Cu717  O737    1.963   .     S
Cu717  O744    1.944   .     S
Cu717  O741    1.958   .     S
Cu717  N735    2.016   .     S
Cu717  Cu870   2.683   1_455 S
Cu718  O739    1.965   .     S
Cu718  O743    1.944   .     S
Cu718  N736    2.016   .     S
Cu718  O738    1.963   .     S
Cu718  O742    1.958   .     S
Cu718  Cu793   2.683   .     S
H723   C784    1.083   .     S
H724   C859    1.083   1_455 S
O737   C837    1.292   1_455 S
O738   C762    1.292   .     S
O741   C853    1.296   1_455 S
O742   C778    1.296   .     S
O745   C746    1.413   .     S
C746   H748    1.114   .     S
C746   H747    1.111   .     S
C746   C749    1.522   .     S
C749   H751    1.111   .     S
C749   H752    1.111   .     S
C749   H750    1.109   .     S
O753   C754    1.413   .     S
C754   H755    1.114   .     S
C754   C757    1.522   .     S
C754   H756    1.111   .     S
C757   H758    1.111   .     S
C757   H759    1.111   .     S
C757   H760    1.109   .     S
C761   C772    1.450   .     S
C761   O815    1.294   .     A
C761   O889    1.292   .     S
C762   C771    1.450   .     S
C762   O816    1.294   .     A
C763   H803    1.074   .     S
C763   C792    1.417   .     A
C763   C765    1.385   .     A
C764   C766    1.385   .     A
C764   H804    1.074   .     S
C764   C791    1.417   .     A
C765   H795    1.085   .     S
C766   H796    1.084   .     S
C766   C106    1.389   1_556 S
C767   H805    1.083   .     S
C767   C772    1.400   .     A
C767   C1225   1.383   1_545 S
C768   C771    1.400   .     A
C768   H806    1.083   .     S
C768   C998    1.383   .     S
C769   H807    1.083   .     S
C769   C995    1.383   .     S
C769   C847    1.402   .     S
C770   H808    1.083   .     S
C770   C1224   1.383   1_545 S
C772   C846    1.402   .     S
C773   N812    1.375   .     A
C773   C775    1.428   .     A
C773   O821    1.386   .     S
C774   C776    1.428   .     A
C774   N811    1.375   .     A
C774   O829    1.386   .     S
C775   N811    1.362   .     A
C775   H809    1.080   .     S
C776   H810    1.080   .     S
C776   N812    1.362   .     A
C777   O819    1.297   .     A
C777   C779    1.466   .     S
C777   O893    1.296   .     S
C778   O820    1.297   .     A
C778   C780    1.466   .     S
C779   C783    1.398   .     A
C779   C785    1.397   .     A
C780   C784    1.398   .     A
C780   C786    1.397   .     A
C781   C789    1.404   .     A
C781   H801    1.084   .     S
C781   C783    1.391   .     A
C782   C784    1.391   .     A
C782   C790    1.404   .     A
C782   H802    1.084   .     S
C783   H876    1.083   .     S
C785   H798    1.073   .     S
C785   C787    1.406   .     A
C786   H797    1.073   .     S
C786   C788    1.406   .     A
C787   C789    1.419   .     A
C787   C791    1.429   .     A
C788   C792    1.429   .     A
C788   C790    1.419   .     A
C789   C81     1.389   1_556 S
C791   C108    1.427   1_556 S
Cu793  O816    1.965   .     S
Cu793  O813    1.963   .     S
Cu793  O820    1.944   .     S
Cu793  O817    1.958   .     S
Cu793  N811    2.016   .     S
Cu794  O815    1.965   .     S
Cu794  O819    1.944   .     S
Cu794  N812    2.016   .     S
Cu794  O814    1.963   .     S
Cu794  O818    1.958   .     S
Cu794  Cu869   2.683   .     S
H799   C860    1.083   .     S
O814   C838    1.292   .     S
O818   C854    1.296   .     S
O821   C822    1.413   .     S
C822   H824    1.114   .     S
C822   H823    1.111   .     S
C822   C825    1.522   .     S
C825   H827    1.111   .     S
C825   H828    1.111   .     S
C825   H826    1.109   .     S
O829   C830    1.413   .     S
C830   H831    1.114   .     S
C830   C833    1.522   .     S
C830   H832    1.111   .     S
C833   H834    1.111   .     S
C833   H835    1.111   .     S
C833   H836    1.109   .     S
C837   C848    1.450   .     S
C837   O891    1.294   .     A
C837   O737    1.292   1_655 S
C838   C847    1.450   .     S
C838   O892    1.294   .     A
C839   H879    1.074   .     S
C839   C868    1.417   .     A
C839   C841    1.385   .     A
C840   C842    1.385   .     A
C840   H880    1.074   .     S
C840   C867    1.417   .     A
C841   H871    1.085   .     S
C842   H872    1.084   .     S
C842   C182    1.389   1_556 S
C843   H881    1.083   .     S
C843   C848    1.400   .     A
C843   C1301   1.383   1_545 S
C844   C847    1.400   .     A
C844   H882    1.083   .     S
C844   C1074   1.383   .     S
C845   H883    1.083   .     S
C845   C1071   1.383   .     S
C845   C695    1.402   1_655 S
C846   H884    1.083   .     S
C846   C1300   1.383   1_545 S
C848   C694    1.402   1_655 S
C849   N888    1.375   .     A
C849   C851    1.428   .     A
C849   O897    1.386   .     S
C850   C852    1.428   .     A
C850   N887    1.375   .     A
C850   O905    1.386   .     S
C851   N887    1.362   .     A
C851   H885    1.080   .     S
C852   H886    1.080   .     S
C852   N888    1.362   .     A
C853   O895    1.297   .     A
C853   C855    1.466   .     S
C853   O741    1.296   1_655 S
C854   O896    1.297   .     A
C854   C856    1.466   .     S
C855   C859    1.398   .     A
C855   C861    1.397   .     A
C856   C860    1.398   .     A
C856   C862    1.397   .     A
C857   C865    1.404   .     A
C857   H877    1.084   .     S
C857   C859    1.391   .     A
C858   C860    1.391   .     A
C858   C866    1.404   .     A
C858   H878    1.084   .     S
C859   H724    1.083   1_655 S
C861   H874    1.073   .     S
C861   C863    1.406   .     A
C862   H873    1.073   .     S
C862   C864    1.406   .     A
C863   C865    1.419   .     A
C863   C867    1.429   .     A
C864   C868    1.429   .     A
C864   C866    1.419   .     A
C865   C157    1.389   1_556 S
C867   C184    1.427   1_556 S
Cu869  O892    1.965   .     S
Cu869  O889    1.963   .     S
Cu869  O896    1.944   .     S
Cu869  O893    1.958   .     S
Cu869  N887    2.016   .     S
Cu870  O891    1.965   .     S
Cu870  O895    1.944   .     S
Cu870  N888    2.016   .     S
Cu870  O890    1.963   .     S
Cu870  O894    1.958   .     S
Cu870  Cu717   2.683   1_655 S
H875   C708    1.083   1_655 S
O890   C686    1.292   1_655 S
O894   C702    1.296   1_655 S
O897   C898    1.413   .     S
C898   H900    1.114   .     S
C898   H899    1.111   .     S
C898   C901    1.522   .     S
C901   H903    1.111   .     S
C901   H904    1.111   .     S
C901   H902    1.109   .     S
O905   C906    1.413   .     S
C906   H907    1.114   .     S
C906   C909    1.522   .     S
C906   H908    1.111   .     S
C909   H910    1.111   .     S
C909   H911    1.111   .     S
C909   H912    1.109   .     S
C913   C924    1.450   .     S
C913   O967    1.294   .     A
C913   O1041   1.292   .     S
C914   C923    1.450   .     S
C914   O968    1.294   .     A
C914   O1118   1.292   1_455 S
C915   H955    1.074   .     S
C915   C944    1.417   .     A
C915   C917    1.385   .     A
C916   C918    1.385   .     A
C916   H956    1.074   .     S
C916   C943    1.417   .     A
C917   H947    1.085   .     S
C918   H948    1.084   .     S
C918   C258    1.389   1_556 S
C919   H957    1.083   .     S
C919   C924    1.400   .     A
C920   C923    1.400   .     A
C920   H958    1.083   .     S
C920   C1150   1.383   .     S
C921   H959    1.083   .     S
C921   C1147   1.383   .     S
C921   C999    1.402   .     S
C922   H960    1.083   .     S
C922   C1076   1.402   1_455 S
C923   C1073   1.402   1_455 S
C924   C998    1.402   .     S
C925   N964    1.375   .     A
C925   C927    1.428   .     A
C925   O973    1.386   .     S
C926   C928    1.428   .     A
C926   N963    1.375   .     A
C926   O981    1.386   .     S
C927   N963    1.362   .     A
C927   H961    1.080   .     S
C928   H962    1.080   .     S
C928   N964    1.362   .     A
C929   O971    1.297   .     A
C929   C931    1.466   .     S
C929   O1045   1.296   .     S
C930   O972    1.297   .     A
C930   C932    1.466   .     S
C930   O1122   1.296   1_455 S
C931   C935    1.398   .     A
C931   C937    1.397   .     A
C932   C936    1.398   .     A
C932   C938    1.397   .     A
C933   C941    1.404   .     A
C933   H953    1.084   .     S
C933   C935    1.391   .     A
C934   C936    1.391   .     A
C934   C942    1.404   .     A
C934   H954    1.084   .     S
C935   H1028   1.083   .     S
C936   H1103   1.083   1_455 S
C937   H950    1.073   .     S
C937   C939    1.406   .     A
C938   H949    1.073   .     S
C938   C940    1.406   .     A
C939   C941    1.419   .     A
C939   C943    1.429   .     A
C940   C944    1.429   .     A
C940   C942    1.419   .     A
C941   C233    1.389   1_556 S
C943   C260    1.427   1_556 S
Cu945  O968    1.965   .     S
Cu945  O965    1.963   .     S
Cu945  O972    1.944   .     S
Cu945  O969    1.958   .     S
Cu945  N963    2.016   .     S
Cu945  Cu1098  2.683   1_455 S
Cu946  O967    1.965   .     S
Cu946  O971    1.944   .     S
Cu946  N964    2.016   .     S
Cu946  O966    1.963   .     S
Cu946  O970    1.958   .     S
Cu946  Cu1021  2.683   .     S
H951   C1012   1.083   .     S
H952   C1087   1.083   1_455 S
O965   C1065   1.292   1_455 S
O966   C990    1.292   .     S
O969   C1081   1.296   1_455 S
O970   C1006   1.296   .     S
O973   C974    1.413   .     S
C974   H976    1.114   .     S
C974   H975    1.111   .     S
C974   C977    1.522   .     S
C977   H979    1.111   .     S
C977   H980    1.111   .     S
C977   H978    1.109   .     S
O981   C982    1.413   .     S
C982   H983    1.114   .     S
C982   C985    1.522   .     S
C982   H984    1.111   .     S
C985   H986    1.111   .     S
C985   H987    1.111   .     S
C985   H988    1.109   .     S
C989   C1000   1.450   .     S
C989   O1043   1.294   .     A
C989   O1117   1.292   .     S
C990   C999    1.450   .     S
C990   O1044   1.294   .     A
C991   H1031   1.074   .     S
C991   C1020   1.417   .     A
C991   C993    1.385   .     A
C992   C994    1.385   .     A
C992   H1032   1.074   .     S
C992   C1019   1.417   .     A
C993   H1023   1.085   .     S
C994   H1024   1.084   .     S
C994   C334    1.389   1_556 S
C995   H1033   1.083   .     S
C995   C1000   1.400   .     A
C996   C999    1.400   .     A
C996   H1034   1.083   .     S
C996   C1226   1.383   .     S
C997   H1035   1.083   .     S
C997   C1223   1.383   .     S
C997   C1075   1.402   .     S
C998   H1036   1.083   .     S
C1000  C1074   1.402   .     S
C1001  N1040   1.375   .     A
C1001  C1003   1.428   .     A
C1001  O1049   1.386   .     S
C1002  C1004   1.428   .     A
C1002  N1039   1.375   .     A
C1002  O1057   1.386   .     S
C1003  N1039   1.362   .     A
C1003  H1037   1.080   .     S
C1004  H1038   1.080   .     S
C1004  N1040   1.362   .     A
C1005  O1047   1.297   .     A
C1005  C1007   1.466   .     S
C1005  O1121   1.296   .     S
C1006  O1048   1.297   .     A
C1006  C1008   1.466   .     S
C1007  C1011   1.398   .     A
C1007  C1013   1.397   .     A
C1008  C1012   1.398   .     A
C1008  C1014   1.397   .     A
C1009  C1017   1.404   .     A
C1009  H1029   1.084   .     S
C1009  C1011   1.391   .     A
C1010  C1012   1.391   .     A
C1010  C1018   1.404   .     A
C1010  H1030   1.084   .     S
C1011  H1104   1.083   .     S
C1013  H1026   1.073   .     S
C1013  C1015   1.406   .     A
C1014  H1025   1.073   .     S
C1014  C1016   1.406   .     A
C1015  C1017   1.419   .     A
C1015  C1019   1.429   .     A
C1016  C1020   1.429   .     A
C1016  C1018   1.419   .     A
C1017  C309    1.389   1_556 S
C1019  C336    1.427   1_556 S
Cu1021 O1044   1.965   .     S
Cu1021 O1041   1.963   .     S
Cu1021 O1048   1.944   .     S
Cu1021 O1045   1.958   .     S
Cu1021 N1039   2.016   .     S
Cu1022 O1043   1.965   .     S
Cu1022 O1047   1.944   .     S
Cu1022 N1040   2.016   .     S
Cu1022 O1042   1.963   .     S
Cu1022 O1046   1.958   .     S
Cu1022 Cu1097  2.683   .     S
H1027  C1088   1.083   .     S
O1042  C1066   1.292   .     S
O1046  C1082   1.296   .     S
O1049  C1050   1.413   .     S
C1050  H1052   1.114   .     S
C1050  H1051   1.111   .     S
C1050  C1053   1.522   .     S
C1053  H1055   1.111   .     S
C1053  H1056   1.111   .     S
C1053  H1054   1.109   .     S
O1057  C1058   1.413   .     S
C1058  H1059   1.114   .     S
C1058  C1061   1.522   .     S
C1058  H1060   1.111   .     S
C1061  H1062   1.111   .     S
C1061  H1063   1.111   .     S
C1061  H1064   1.109   .     S
C1065  C1076   1.450   .     S
C1065  O1119   1.294   .     A
C1065  O965    1.292   1_655 S
C1066  C1075   1.450   .     S
C1066  O1120   1.294   .     A
C1067  H1107   1.074   .     S
C1067  C1096   1.417   .     A
C1067  C1069   1.385   .     A
C1068  C1070   1.385   .     A
C1068  H1108   1.074   .     S
C1068  C1095   1.417   .     A
C1069  H1099   1.085   .     S
C1070  H1100   1.084   .     S
C1070  C410    1.389   1_556 S
C1071  H1109   1.083   .     S
C1071  C1076   1.400   .     A
C1072  C1075   1.400   .     A
C1072  H1110   1.083   .     S
C1072  C1302   1.383   .     S
C1073  H1111   1.083   .     S
C1073  C1299   1.383   .     S
C1073  C923    1.402   1_655 S
C1074  H1112   1.083   .     S
C1076  C922    1.402   1_655 S
C1077  N1116   1.375   .     A
C1077  C1079   1.428   .     A
C1077  O1125   1.386   .     S
C1078  C1080   1.428   .     A
C1078  N1115   1.375   .     A
C1078  O1133   1.386   .     S
C1079  N1115   1.362   .     A
C1079  H1113   1.080   .     S
C1080  H1114   1.080   .     S
C1080  N1116   1.362   .     A
C1081  O1123   1.297   .     A
C1081  C1083   1.466   .     S
C1081  O969    1.296   1_655 S
C1082  O1124   1.297   .     A
C1082  C1084   1.466   .     S
C1083  C1087   1.398   .     A
C1083  C1089   1.397   .     A
C1084  C1088   1.398   .     A
C1084  C1090   1.397   .     A
C1085  C1093   1.404   .     A
C1085  H1105   1.084   .     S
C1085  C1087   1.391   .     A
C1086  C1088   1.391   .     A
C1086  C1094   1.404   .     A
C1086  H1106   1.084   .     S
C1087  H952    1.083   1_655 S
C1089  H1102   1.073   .     S
C1089  C1091   1.406   .     A
C1090  H1101   1.073   .     S
C1090  C1092   1.406   .     A
C1091  C1093   1.419   .     A
C1091  C1095   1.429   .     A
C1092  C1096   1.429   .     A
C1092  C1094   1.419   .     A
C1093  C385    1.389   1_556 S
C1095  C412    1.427   1_556 S
Cu1097 O1120   1.965   .     S
Cu1097 O1117   1.963   .     S
Cu1097 O1124   1.944   .     S
Cu1097 O1121   1.958   .     S
Cu1097 N1115   2.016   .     S
Cu1098 O1119   1.965   .     S
Cu1098 O1123   1.944   .     S
Cu1098 N1116   2.016   .     S
Cu1098 O1118   1.963   .     S
Cu1098 O1122   1.958   .     S
Cu1098 Cu945   2.683   1_655 S
H1103  C936    1.083   1_655 S
O1118  C914    1.292   1_655 S
O1122  C930    1.296   1_655 S
O1125  C1126   1.413   .     S
C1126  H1128   1.114   .     S
C1126  H1127   1.111   .     S
C1126  C1129   1.522   .     S
C1129  H1131   1.111   .     S
C1129  H1132   1.111   .     S
C1129  H1130   1.109   .     S
O1133  C1134   1.413   .     S
C1134  H1135   1.114   .     S
C1134  C1137   1.522   .     S
C1134  H1136   1.111   .     S
C1137  H1138   1.111   .     S
C1137  H1139   1.111   .     S
C1137  H1140   1.109   .     S
C1141  C1152   1.450   .     S
C1141  O1195   1.294   .     A
C1141  O1269   1.292   .     S
C1142  C1151   1.450   .     S
C1142  O1196   1.294   .     A
C1142  O1346   1.292   1_455 S
C1143  H1183   1.074   .     S
C1143  C1172   1.417   .     A
C1143  C1145   1.385   .     A
C1144  C1146   1.385   .     A
C1144  H1184   1.074   .     S
C1144  C1171   1.417   .     A
C1145  H1175   1.085   .     S
C1146  H1176   1.084   .     S
C1146  C486    1.389   1_556 S
C1147  H1185   1.083   .     S
C1147  C1152   1.400   .     A
C1148  C1151   1.400   .     A
C1148  H1186   1.083   .     S
C1148  C694    1.383   1_565 S
C1149  H1187   1.083   .     S
C1149  C691    1.383   1_565 S
C1149  C1227   1.402   .     S
C1150  H1188   1.083   .     S
C1150  C1304   1.402   1_455 S
C1151  C1301   1.402   1_455 S
C1152  C1226   1.402   .     S
C1153  N1192   1.375   .     A
C1153  C1155   1.428   .     A
C1153  O1201   1.386   .     S
C1154  C1156   1.428   .     A
C1154  N1191   1.375   .     A
C1154  O1209   1.386   .     S
C1155  N1191   1.362   .     A
C1155  H1189   1.080   .     S
C1156  H1190   1.080   .     S
C1156  N1192   1.362   .     A
C1157  O1199   1.297   .     A
C1157  C1159   1.466   .     S
C1157  O1273   1.296   .     S
C1158  O1200   1.297   .     A
C1158  C1160   1.466   .     S
C1158  O1350   1.296   1_455 S
C1159  C1163   1.398   .     A
C1159  C1165   1.397   .     A
C1160  C1164   1.398   .     A
C1160  C1166   1.397   .     A
C1161  C1169   1.404   .     A
C1161  H1181   1.084   .     S
C1161  C1163   1.391   .     A
C1162  C1164   1.391   .     A
C1162  C1170   1.404   .     A
C1162  H1182   1.084   .     S
C1163  H1256   1.083   .     S
C1164  H1331   1.083   1_455 S
C1165  H1178   1.073   .     S
C1165  C1167   1.406   .     A
C1166  H1177   1.073   .     S
C1166  C1168   1.406   .     A
C1167  C1169   1.419   .     A
C1167  C1171   1.429   .     A
C1168  C1172   1.429   .     A
C1168  C1170   1.419   .     A
C1169  C461    1.389   1_556 S
C1171  C488    1.427   1_556 S
Cu1173 O1196   1.965   .     S
Cu1173 O1193   1.963   .     S
Cu1173 O1200   1.944   .     S
Cu1173 O1197   1.958   .     S
Cu1173 N1191   2.016   .     S
Cu1173 Cu1326  2.683   1_455 S
Cu1174 O1195   1.965   .     S
Cu1174 O1199   1.944   .     S
Cu1174 N1192   2.016   .     S
Cu1174 O1194   1.963   .     S
Cu1174 O1198   1.958   .     S
Cu1174 Cu1249  2.683   .     S
H1179  C1240   1.083   .     S
H1180  C1315   1.083   1_455 S
O1193  C1293   1.292   1_455 S
O1194  C1218   1.292   .     S
O1197  C1309   1.296   1_455 S
O1198  C1234   1.296   .     S
O1201  C1202   1.413   .     S
C1202  H1204   1.114   .     S
C1202  H1203   1.111   .     S
C1202  C1205   1.522   .     S
C1205  H1207   1.111   .     S
C1205  H1208   1.111   .     S
C1205  H1206   1.109   .     S
O1209  C1210   1.413   .     S
C1210  H1211   1.114   .     S
C1210  C1213   1.522   .     S
C1210  H1212   1.111   .     S
C1213  H1214   1.111   .     S
C1213  H1215   1.111   .     S
C1213  H1216   1.109   .     S
C1217  C1228   1.450   .     S
C1217  O1271   1.294   .     A
C1217  O1345   1.292   .     S
C1218  C1227   1.450   .     S
C1218  O1272   1.294   .     A
C1219  H1259   1.074   .     S
C1219  C1248   1.417   .     A
C1219  C1221   1.385   .     A
C1220  C1222   1.385   .     A
C1220  H1260   1.074   .     S
C1220  C1247   1.417   .     A
C1221  H1251   1.085   .     S
C1222  H1252   1.084   .     S
C1222  C562    1.389   1_556 S
C1223  H1261   1.083   .     S
C1223  C1228   1.400   .     A
C1224  C1227   1.400   .     A
C1224  H1262   1.083   .     S
C1224  C770    1.383   1_565 S
C1225  H1263   1.083   .     S
C1225  C767    1.383   1_565 S
C1225  C1303   1.402   .     S
C1226  H1264   1.083   .     S
C1228  C1302   1.402   .     S
C1229  N1268   1.375   .     A
C1229  C1231   1.428   .     A
C1229  O1277   1.386   .     S
C1230  C1232   1.428   .     A
C1230  N1267   1.375   .     A
C1230  O1285   1.386   .     S
C1231  N1267   1.362   .     A
C1231  H1265   1.080   .     S
C1232  H1266   1.080   .     S
C1232  N1268   1.362   .     A
C1233  O1275   1.297   .     A
C1233  C1235   1.466   .     S
C1233  O1349   1.296   .     S
C1234  O1276   1.297   .     A
C1234  C1236   1.466   .     S
C1235  C1239   1.398   .     A
C1235  C1241   1.397   .     A
C1236  C1240   1.398   .     A
C1236  C1242   1.397   .     A
C1237  C1245   1.404   .     A
C1237  H1257   1.084   .     S
C1237  C1239   1.391   .     A
C1238  C1240   1.391   .     A
C1238  C1246   1.404   .     A
C1238  H1258   1.084   .     S
C1239  H1332   1.083   .     S
C1241  H1254   1.073   .     S
C1241  C1243   1.406   .     A
C1242  H1253   1.073   .     S
C1242  C1244   1.406   .     A
C1243  C1245   1.419   .     A
C1243  C1247   1.429   .     A
C1244  C1248   1.429   .     A
C1244  C1246   1.419   .     A
C1245  C537    1.389   1_556 S
C1247  C564    1.427   1_556 S
Cu1249 O1272   1.965   .     S
Cu1249 O1269   1.963   .     S
Cu1249 O1276   1.944   .     S
Cu1249 O1273   1.958   .     S
Cu1249 N1267   2.016   .     S
Cu1250 O1271   1.965   .     S
Cu1250 O1275   1.944   .     S
Cu1250 N1268   2.016   .     S
Cu1250 O1270   1.963   .     S
Cu1250 O1274   1.958   .     S
Cu1250 Cu1325  2.683   .     S
H1255  C1316   1.083   .     S
O1270  C1294   1.292   .     S
O1274  C1310   1.296   .     S
O1277  C1278   1.413   .     S
C1278  H1280   1.114   .     S
C1278  H1279   1.111   .     S
C1278  C1281   1.522   .     S
C1281  H1283   1.111   .     S
C1281  H1284   1.111   .     S
C1281  H1282   1.109   .     S
O1285  C1286   1.413   .     S
C1286  H1287   1.114   .     S
C1286  C1289   1.522   .     S
C1286  H1288   1.111   .     S
C1289  H1290   1.111   .     S
C1289  H1291   1.111   .     S
C1289  H1292   1.109   .     S
C1293  C1304   1.450   .     S
C1293  O1347   1.294   .     A
C1293  O1193   1.292   1_655 S
C1294  C1303   1.450   .     S
C1294  O1348   1.294   .     A
C1295  H1335   1.074   .     S
C1295  C1324   1.417   .     A
C1295  C1297   1.385   .     A
C1296  C1298   1.385   .     A
C1296  H1336   1.074   .     S
C1296  C1323   1.417   .     A
C1297  H1327   1.085   .     S
C1298  H1328   1.084   .     S
C1298  C638    1.389   1_556 S
C1299  H1337   1.083   .     S
C1299  C1304   1.400   .     A
C1300  C1303   1.400   .     A
C1300  H1338   1.083   .     S
C1300  C846    1.383   1_565 S
C1301  H1339   1.083   .     S
C1301  C843    1.383   1_565 S
C1301  C1151   1.402   1_655 S
C1302  H1340   1.083   .     S
C1304  C1150   1.402   1_655 S
C1305  N1344   1.375   .     A
C1305  C1307   1.428   .     A
C1305  O1353   1.386   .     S
C1306  C1308   1.428   .     A
C1306  N1343   1.375   .     A
C1306  O1361   1.386   .     S
C1307  N1343   1.362   .     A
C1307  H1341   1.080   .     S
C1308  H1342   1.080   .     S
C1308  N1344   1.362   .     A
C1309  O1351   1.297   .     A
C1309  C1311   1.466   .     S
C1309  O1197   1.296   1_655 S
C1310  O1352   1.297   .     A
C1310  C1312   1.466   .     S
C1311  C1315   1.398   .     A
C1311  C1317   1.397   .     A
C1312  C1316   1.398   .     A
C1312  C1318   1.397   .     A
C1313  C1321   1.404   .     A
C1313  H1333   1.084   .     S
C1313  C1315   1.391   .     A
C1314  C1316   1.391   .     A
C1314  C1322   1.404   .     A
C1314  H1334   1.084   .     S
C1315  H1180   1.083   1_655 S
C1317  H1330   1.073   .     S
C1317  C1319   1.406   .     A
C1318  H1329   1.073   .     S
C1318  C1320   1.406   .     A
C1319  C1321   1.419   .     A
C1319  C1323   1.429   .     A
C1320  C1324   1.429   .     A
C1320  C1322   1.419   .     A
C1321  C613    1.389   1_556 S
C1323  C640    1.427   1_556 S
Cu1325 O1348   1.965   .     S
Cu1325 O1345   1.963   .     S
Cu1325 O1352   1.944   .     S
Cu1325 O1349   1.958   .     S
Cu1325 N1343   2.016   .     S
Cu1326 O1347   1.965   .     S
Cu1326 O1351   1.944   .     S
Cu1326 N1344   2.016   .     S
Cu1326 O1346   1.963   .     S
Cu1326 O1350   1.958   .     S
Cu1326 Cu1173  2.683   1_655 S
H1331  C1164   1.083   1_655 S
O1346  C1142   1.292   1_655 S
O1350  C1158   1.296   1_655 S
O1353  C1354   1.413   .     S
C1354  H1356   1.114   .     S
C1354  H1355   1.111   .     S
C1354  C1357   1.522   .     S
C1357  H1359   1.111   .     S
C1357  H1360   1.111   .     S
C1357  H1358   1.109   .     S
O1361  C1362   1.413   .     S
C1362  H1363   1.114   .     S
C1362  C1365   1.522   .     S
C1362  H1364   1.111   .     S
C1365  H1366   1.111   .     S
C1365  H1367   1.111   .     S
C1365  H1368   1.109   .     S
