data_str_m1_o1_o2_pcu_sym.4
_audit_creation_date              2020-01-03
_audit_creation_method            'Materials Studio'
_symmetry_space_group_name_H-M    'P1'
_symmetry_Int_Tables_number       1
_symmetry_cell_setting            triclinic
loop_
_symmetry_equiv_pos_as_xyz
  x,y,z
_cell_length_a                    36.8495
_cell_length_b                    36.8410
_cell_length_c                    34.4141
_cell_angle_alpha                 90.0000
_cell_angle_beta                  90.0000
_cell_angle_gamma                 90.0217
loop_
_atom_site_label
_atom_site_type_symbol
_atom_site_fract_x
_atom_site_fract_y
_atom_site_fract_z
_atom_site_U_iso_or_equiv
_atom_site_adp_type
_atom_site_occupancy
C1     C     0.21938   0.01212   0.04184   0.00000  Uiso   1.00
C2     C     0.03131   0.26024   0.45824   0.00000  Uiso   1.00
C3     C     0.34832   0.40175   0.74993   0.00000  Uiso   1.00
C4     C     0.40211   0.15199   0.25004   0.00000  Uiso   1.00
C5     C     0.09849   0.34834   0.75012   0.00000  Uiso   1.00
C6     C     0.34805   0.40188   0.24996   0.00000  Uiso   1.00
C7     C     0.15168   0.09826   0.74993   0.00000  Uiso   1.00
C8     C     0.09805   0.15188   0.74996   0.00000  Uiso   1.00
C9     C     0.40168   0.34826   0.24993   0.00000  Uiso   1.00
C10    C     0.15211   0.40199   0.75004   0.00000  Uiso   1.00
C11    C     0.34849   0.09834   0.25012   0.00000  Uiso   1.00
C12    C     0.40195   0.34812   0.74996   0.00000  Uiso   1.00
C13    C     0.26074   0.46886   0.54180   0.00000  Uiso   1.00
C14    C     0.09832   0.15175   0.24993   0.00000  Uiso   1.00
C15    C     0.34789   0.09801   0.75004   0.00000  Uiso   1.00
C16    C     0.15152   0.40166   0.25012   0.00000  Uiso   1.00
C17    C     0.25000   0.00000   0.10254   0.00000  Uiso   1.00
C18    C     0.25000   0.00000   0.89751   0.00000  Uiso   1.00
C19    C     0.00000   0.25000   0.10251   0.00000  Uiso   1.00
C20    C     0.00000   0.25000   0.89748   0.00000  Uiso   1.00
C21    C     0.00000   0.25000   0.60254   0.00000  Uiso   1.00
C22    C     0.00000   0.25000   0.39751   0.00000  Uiso   1.00
C23    C     0.25000   0.00000   0.60251   0.00000  Uiso   1.00
C24    C     0.26140   0.03091   0.45819   0.00000  Uiso   1.00
C25    C     0.25000   0.00000   0.39748   0.00000  Uiso   1.00
C26    C     0.03063   0.23788   0.54184   0.00000  Uiso   1.00
C27    C     0.46869   0.23976   0.45824   0.00000  Uiso   1.00
C28    C     0.23926   0.03114   0.54180   0.00000  Uiso   1.00
C29    C     0.23860   0.46909   0.45819   0.00000  Uiso   1.00
C30    C     0.21928   0.01186   0.08220   0.00000  Uiso   1.00
C31    C     0.28139   0.00998   0.91789   0.00000  Uiso   1.00
C32    C     0.01046   0.21877   0.08215   0.00000  Uiso   1.00
C33    C     0.28131   0.01024   0.95824   0.00000  Uiso   1.00
C34    C     0.01112   0.28101   0.91783   0.00000  Uiso   1.00
C35    C     0.28072   0.48814   0.08220   0.00000  Uiso   1.00
C36    C     0.21861   0.49002   0.91789   0.00000  Uiso   1.00
C37    C     0.48954   0.28123   0.08215   0.00000  Uiso   1.00
C38    C     0.48888   0.21899   0.91783   0.00000  Uiso   1.00
C39    C     0.46928   0.26186   0.58220   0.00000  Uiso   1.00
C40    C     0.03139   0.25998   0.41789   0.00000  Uiso   1.00
C41    C     0.26046   0.46877   0.58215   0.00000  Uiso   1.00
C42    C     0.26112   0.03101   0.41783   0.00000  Uiso   1.00
C43    C     0.03072   0.23814   0.58220   0.00000  Uiso   1.00
C44    C     0.01074   0.21886   0.04180   0.00000  Uiso   1.00
C45    C     0.46861   0.24002   0.41789   0.00000  Uiso   1.00
C46    C     0.23954   0.03123   0.58215   0.00000  Uiso   1.00
C47    C     0.23888   0.46899   0.41783   0.00000  Uiso   1.00
C48    C     0.25000   0.00000   0.02136   0.00000  Uiso   1.00
C49    C     0.25000   0.00000   0.97872   0.00000  Uiso   1.00
C50    C     0.00000   0.25000   0.02132   0.00000  Uiso   1.00
C51    C     0.00000   0.25000   0.97867   0.00000  Uiso   1.00
C52    C     0.00000   0.25000   0.52136   0.00000  Uiso   1.00
C53    C     0.00000   0.25000   0.47872   0.00000  Uiso   1.00
C54    C     0.25000   0.00000   0.52132   0.00000  Uiso   1.00
C55    C     0.01140   0.28091   0.95819   0.00000  Uiso   1.00
C56    C     0.25000   0.00000   0.47867   0.00000  Uiso   1.00
C57    C     0.25000   0.00000   0.35513   0.00000  Uiso   1.00
C58    C     0.25000   0.00000   0.64486   0.00000  Uiso   1.00
C59    C     0.00000   0.25000   0.35514   0.00000  Uiso   1.00
C60    C     0.00000   0.25000   0.64488   0.00000  Uiso   1.00
C61    C     0.00000   0.25000   0.85513   0.00000  Uiso   1.00
C62    C     0.00000   0.25000   0.14486   0.00000  Uiso   1.00
C63    C     0.25000   0.00000   0.85514   0.00000  Uiso   1.00
C64    C     0.25000   0.00000   0.14488   0.00000  Uiso   1.00
C65    C     0.17997   0.07005   0.24999   0.00000  Uiso   1.00
C66    C     0.28063   0.48788   0.04184   0.00000  Uiso   1.00
C67    C     0.32012   0.42989   0.74998   0.00000  Uiso   1.00
C68    C     0.43002   0.18000   0.25000   0.00000  Uiso   1.00
C69    C     0.07018   0.32014   0.75004   0.00000  Uiso   1.00
C70    C     0.32003   0.42995   0.24999   0.00000  Uiso   1.00
C71    C     0.17988   0.07011   0.74998   0.00000  Uiso   1.00
C72    C     0.06998   0.32000   0.25000   0.00000  Uiso   1.00
C73    C     0.42982   0.17986   0.75004   0.00000  Uiso   1.00
C74    C     0.18002   0.43000   0.75000   0.00000  Uiso   1.00
C75    C     0.32018   0.07014   0.25004   0.00000  Uiso   1.00
C76    C     0.42997   0.32005   0.74999   0.00000  Uiso   1.00
C77    C     0.21869   0.48976   0.95824   0.00000  Uiso   1.00
C78    C     0.07012   0.17989   0.24998   0.00000  Uiso   1.00
C79    C     0.31998   0.07000   0.75000   0.00000  Uiso   1.00
C80    C     0.17982   0.42986   0.25004   0.00000  Uiso   1.00
C81    C     0.07003   0.17995   0.74999   0.00000  Uiso   1.00
C82    C     0.42988   0.32011   0.24998   0.00000  Uiso   1.00
C83    C     0.12193   0.40336   0.22349   0.00000  Uiso   1.00
C84    C     0.37170   0.10149   0.78200   0.00000  Uiso   1.00
C85    C     0.09470   0.12031   0.22624   0.00000  Uiso   1.00
C86    C     0.40073   0.37445   0.77990   0.00000  Uiso   1.00
C87    C     0.37807   0.09664   0.22349   0.00000  Uiso   1.00
C88    C     0.48926   0.28114   0.04180   0.00000  Uiso   1.00
C89    C     0.12830   0.39851   0.78200   0.00000  Uiso   1.00
C90    C     0.40530   0.37969   0.22624   0.00000  Uiso   1.00
C91    C     0.09927   0.12555   0.77990   0.00000  Uiso   1.00
C92    C     0.12024   0.09459   0.77359   0.00000  Uiso   1.00
C93    C     0.37433   0.40066   0.21996   0.00000  Uiso   1.00
C94    C     0.09689   0.37789   0.77683   0.00000  Uiso   1.00
C95    C     0.39868   0.12804   0.21819   0.00000  Uiso   1.00
C96    C     0.37976   0.40541   0.77359   0.00000  Uiso   1.00
C97    C     0.12567   0.09934   0.21996   0.00000  Uiso   1.00
C98    C     0.40311   0.12211   0.77683   0.00000  Uiso   1.00
C99    C     0.48860   0.21909   0.95819   0.00000  Uiso   1.00
C100   C     0.10132   0.37196   0.21819   0.00000  Uiso   1.00
C101   C     0.37193   0.15336   0.72349   0.00000  Uiso   1.00
C102   C     0.12170   0.35149   0.28200   0.00000  Uiso   1.00
C103   C     0.34470   0.37031   0.72624   0.00000  Uiso   1.00
C104   C     0.15073   0.12445   0.27990   0.00000  Uiso   1.00
C105   C     0.12807   0.34664   0.72349   0.00000  Uiso   1.00
C106   C     0.37830   0.14851   0.28200   0.00000  Uiso   1.00
C107   C     0.15530   0.12969   0.72624   0.00000  Uiso   1.00
C108   C     0.34927   0.37555   0.27990   0.00000  Uiso   1.00
C109   C     0.37024   0.34459   0.27359   0.00000  Uiso   1.00
C110   C     0.46937   0.26212   0.54184   0.00000  Uiso   1.00
C111   C     0.12433   0.15066   0.71996   0.00000  Uiso   1.00
C112   C     0.34689   0.12789   0.27683   0.00000  Uiso   1.00
C113   C     0.14868   0.37804   0.71819   0.00000  Uiso   1.00
C114   C     0.12976   0.15541   0.27359   0.00000  Uiso   1.00
C115   C     0.37567   0.34934   0.71996   0.00000  Uiso   1.00
C116   C     0.15311   0.37211   0.27683   0.00000  Uiso   1.00
C117   C     0.35132   0.12196   0.71819   0.00000  Uiso   1.00
C118   C     0.09789   0.34801   0.25004   0.00000  Uiso   1.00
C119   C     0.40152   0.15166   0.75012   0.00000  Uiso   1.00
C120   C     0.15195   0.09812   0.24996   0.00000  Uiso   1.00
H121   H     0.19568   0.02219   0.02668   0.00000  Uiso   1.00
H122   H     0.05558   0.26885   0.47340   0.00000  Uiso   1.00
H123   H     0.26975   0.44473   0.52665   0.00000  Uiso   1.00
H124   H     0.27093   0.05485   0.47333   0.00000  Uiso   1.00
H125   H     0.05432   0.22781   0.52668   0.00000  Uiso   1.00
H126   H     0.44442   0.23116   0.47340   0.00000  Uiso   1.00
H127   H     0.23025   0.05527   0.52665   0.00000  Uiso   1.00
H128   H     0.22907   0.44515   0.47333   0.00000  Uiso   1.00
H129   H     0.19541   0.02144   0.09747   0.00000  Uiso   1.00
H130   H     0.30584   0.01802   0.90267   0.00000  Uiso   1.00
H131   H     0.01892   0.19448   0.09739   0.00000  Uiso   1.00
H132   H     0.30558   0.01885   0.97340   0.00000  Uiso   1.00
H133   H     0.02010   0.30512   0.90258   0.00000  Uiso   1.00
H134   H     0.30459   0.47856   0.09747   0.00000  Uiso   1.00
H135   H     0.19416   0.48198   0.90267   0.00000  Uiso   1.00
H136   H     0.48108   0.30553   0.09739   0.00000  Uiso   1.00
H137   H     0.47990   0.19488   0.90258   0.00000  Uiso   1.00
H138   H     0.44541   0.27144   0.59747   0.00000  Uiso   1.00
H139   H     0.05584   0.26802   0.40267   0.00000  Uiso   1.00
H140   H     0.26892   0.44448   0.59739   0.00000  Uiso   1.00
H141   H     0.27010   0.05512   0.40258   0.00000  Uiso   1.00
H142   H     0.05459   0.22856   0.59747   0.00000  Uiso   1.00
H143   H     0.01975   0.19473   0.02665   0.00000  Uiso   1.00
H144   H     0.44416   0.23198   0.40267   0.00000  Uiso   1.00
H145   H     0.23108   0.05553   0.59739   0.00000  Uiso   1.00
H146   H     0.22990   0.44488   0.40258   0.00000  Uiso   1.00
H147   H     0.09441   0.47089   0.25587   0.00000  Uiso   1.00
H148   H     0.31035   0.07876   0.86201   0.00000  Uiso   1.00
H149   H     0.49708   0.10164   0.23111   0.00000  Uiso   1.00
H150   H     0.38963   0.31722   0.83675   0.00000  Uiso   1.00
H151   H     0.40559   0.02911   0.25587   0.00000  Uiso   1.00
H152   H     0.18965   0.42124   0.86201   0.00000  Uiso   1.00
H153   H     0.00292   0.39836   0.23111   0.00000  Uiso   1.00
H154   H     0.02093   0.30485   0.97333   0.00000  Uiso   1.00
H155   H     0.11037   0.18278   0.83675   0.00000  Uiso   1.00
H156   H     0.10206   0.49687   0.76872   0.00000  Uiso   1.00
H157   H     0.31702   0.38957   0.16311   0.00000  Uiso   1.00
H158   H     0.02932   0.40595   0.74516   0.00000  Uiso   1.00
H159   H     0.42403   0.18908   0.13895   0.00000  Uiso   1.00
H160   H     0.39794   0.00313   0.76872   0.00000  Uiso   1.00
H161   H     0.18298   0.11043   0.16311   0.00000  Uiso   1.00
H162   H     0.47068   0.09405   0.74516   0.00000  Uiso   1.00
H163   H     0.07597   0.31092   0.13895   0.00000  Uiso   1.00
H164   H     0.34441   0.22089   0.75587   0.00000  Uiso   1.00
H165   H     0.30432   0.47781   0.02668   0.00000  Uiso   1.00
H166   H     0.06035   0.32876   0.36201   0.00000  Uiso   1.00
H167   H     0.24708   0.35164   0.73111   0.00000  Uiso   1.00
H168   H     0.13963   0.06722   0.33675   0.00000  Uiso   1.00
H169   H     0.15559   0.27911   0.75587   0.00000  Uiso   1.00
H170   H     0.43965   0.17124   0.36201   0.00000  Uiso   1.00
H171   H     0.25292   0.14836   0.73111   0.00000  Uiso   1.00
H172   H     0.36037   0.43278   0.33675   0.00000  Uiso   1.00
H173   H     0.35206   0.24687   0.26872   0.00000  Uiso   1.00
H174   H     0.06702   0.13957   0.66311   0.00000  Uiso   1.00
H175   H     0.27932   0.15595   0.24516   0.00000  Uiso   1.00
H176   H     0.19442   0.48116   0.97340   0.00000  Uiso   1.00
H177   H     0.17403   0.43908   0.63895   0.00000  Uiso   1.00
H178   H     0.14794   0.25313   0.26872   0.00000  Uiso   1.00
H179   H     0.43298   0.36043   0.66311   0.00000  Uiso   1.00
H180   H     0.22068   0.34405   0.24516   0.00000  Uiso   1.00
H181   H     0.32597   0.06092   0.63895   0.00000  Uiso   1.00
H182   H     0.48025   0.30527   0.02665   0.00000  Uiso   1.00
H183   H     0.47907   0.19515   0.97333   0.00000  Uiso   1.00
H184   H     0.44568   0.27219   0.52668   0.00000  Uiso   1.00
O185   O     0.25000   0.00000   0.25000   0.00000  Uiso   1.00
O186   O     0.25000   0.46964   0.66317   0.00000  Uiso   1.00
O187   O     0.08942   0.31576   0.16333   0.00000  Uiso   1.00
O188   O     0.37936   0.20303   0.66647   0.00000  Uiso   1.00
O189   O     0.31748   0.19095   0.68843   0.00000  Uiso   1.00
O190   O     0.35872   0.22902   0.73311   0.00000  Uiso   1.00
O191   O     0.12064   0.29667   0.33410   0.00000  Uiso   1.00
O192   O     0.12939   0.35808   0.35981   0.00000  Uiso   1.00
O193   O     0.06509   0.34007   0.33640   0.00000  Uiso   1.00
O194   O     0.29135   0.37284   0.67264   0.00000  Uiso   1.00
O195   O     0.30462   0.31332   0.70095   0.00000  Uiso   1.00
O196   O     0.27006   0.35959   0.74342   0.00000  Uiso   1.00
O197   O     0.46964   0.25000   0.33683   0.00000  Uiso   1.00
O198   O     0.20883   0.12748   0.32755   0.00000  Uiso   1.00
O199   O     0.14964   0.13910   0.35707   0.00000  Uiso   1.00
O200   O     0.16581   0.07286   0.33929   0.00000  Uiso   1.00
O201   O     0.12064   0.29697   0.66647   0.00000  Uiso   1.00
O202   O     0.18253   0.30905   0.68843   0.00000  Uiso   1.00
O203   O     0.14128   0.27099   0.73311   0.00000  Uiso   1.00
O204   O     0.37936   0.20333   0.33410   0.00000  Uiso   1.00
O205   O     0.37061   0.14192   0.35981   0.00000  Uiso   1.00
O206   O     0.43491   0.15993   0.33640   0.00000  Uiso   1.00
O207   O     0.20865   0.12716   0.67264   0.00000  Uiso   1.00
O208   O     0.03036   0.25000   0.66317   0.00000  Uiso   1.00
O209   O     0.19538   0.18668   0.70095   0.00000  Uiso   1.00
O210   O     0.22994   0.14041   0.74342   0.00000  Uiso   1.00
O211   O     0.29117   0.37252   0.32755   0.00000  Uiso   1.00
O212   O     0.35036   0.36090   0.35707   0.00000  Uiso   1.00
O213   O     0.33419   0.42714   0.33929   0.00000  Uiso   1.00
O214   O     0.37267   0.29118   0.32714   0.00000  Uiso   1.00
O215   O     0.31324   0.30442   0.29864   0.00000  Uiso   1.00
O216   O     0.35966   0.26992   0.25631   0.00000  Uiso   1.00
O217   O     0.12730   0.20876   0.67229   0.00000  Uiso   1.00
O218   O     0.13883   0.14954   0.64276   0.00000  Uiso   1.00
O219   O     0.00000   0.21964   0.83683   0.00000  Uiso   1.00
O220   O     0.07264   0.16576   0.66068   0.00000  Uiso   1.00
O221   O     0.29749   0.11997   0.33403   0.00000  Uiso   1.00
O222   O     0.30961   0.18208   0.31277   0.00000  Uiso   1.00
O223   O     0.27126   0.14141   0.26778   0.00000  Uiso   1.00
O224   O     0.20379   0.37856   0.66650   0.00000  Uiso   1.00
O225   O     0.14256   0.36979   0.64038   0.00000  Uiso   1.00
O226   O     0.16058   0.43424   0.66333   0.00000  Uiso   1.00
O227   O     0.12733   0.20882   0.32714   0.00000  Uiso   1.00
O228   O     0.18677   0.19558   0.29864   0.00000  Uiso   1.00
O229   O     0.14034   0.23008   0.25631   0.00000  Uiso   1.00
O230   O     0.00000   0.28036   0.16317   0.00000  Uiso   1.00
O231   O     0.37270   0.29124   0.67229   0.00000  Uiso   1.00
O232   O     0.36117   0.35046   0.64276   0.00000  Uiso   1.00
O233   O     0.42736   0.33424   0.66068   0.00000  Uiso   1.00
O234   O     0.20251   0.38003   0.33403   0.00000  Uiso   1.00
O235   O     0.19039   0.31792   0.31277   0.00000  Uiso   1.00
O236   O     0.22874   0.35860   0.26778   0.00000  Uiso   1.00
O237   O     0.29621   0.12144   0.66650   0.00000  Uiso   1.00
O238   O     0.35744   0.13021   0.64038   0.00000  Uiso   1.00
O239   O     0.33942   0.06576   0.66333   0.00000  Uiso   1.00
O240   O     0.28036   0.00000   0.83683   0.00000  Uiso   1.00
O241   O     0.21964   0.00000   0.16317   0.00000  Uiso   1.00
O242   O     0.00000   0.28036   0.83683   0.00000  Uiso   1.00
O243   O     0.00000   0.21964   0.16317   0.00000  Uiso   1.00
O244   O     0.21964   0.00000   0.83683   0.00000  Uiso   1.00
O245   O     0.25000   0.00000   0.75000   0.00000  Uiso   1.00
O246   O     0.28036   0.00000   0.16317   0.00000  Uiso   1.00
O247   O     0.20726   0.07307   0.27282   0.00000  Uiso   1.00
O248   O     0.29275   0.42693   0.72718   0.00000  Uiso   1.00
O249   O     0.42693   0.20726   0.27282   0.00000  Uiso   1.00
O250   O     0.07307   0.29275   0.72718   0.00000  Uiso   1.00
O251   O     0.29275   0.42693   0.27282   0.00000  Uiso   1.00
O252   O     0.20726   0.07307   0.72718   0.00000  Uiso   1.00
O253   O     0.07307   0.29275   0.27282   0.00000  Uiso   1.00
O254   O     0.42693   0.20726   0.72718   0.00000  Uiso   1.00
O255   O     0.20726   0.42693   0.72718   0.00000  Uiso   1.00
O256   O     0.00000   0.25000   0.25000   0.00000  Uiso   1.00
O257   O     0.29275   0.07307   0.27282   0.00000  Uiso   1.00
O258   O     0.42693   0.29275   0.72718   0.00000  Uiso   1.00
O259   O     0.07307   0.20726   0.27282   0.00000  Uiso   1.00
O260   O     0.29275   0.07307   0.72718   0.00000  Uiso   1.00
O261   O     0.20726   0.42693   0.27282   0.00000  Uiso   1.00
O262   O     0.07307   0.20726   0.72718   0.00000  Uiso   1.00
O263   O     0.42693   0.29275   0.27282   0.00000  Uiso   1.00
O264   O     0.45726   0.32307   0.77282   0.00000  Uiso   1.00
O265   O     0.04275   0.17693   0.22718   0.00000  Uiso   1.00
O266   O     0.17693   0.45726   0.77282   0.00000  Uiso   1.00
O267   O     0.00000   0.25000   0.75000   0.00000  Uiso   1.00
O268   O     0.32307   0.04275   0.22718   0.00000  Uiso   1.00
O269   O     0.04275   0.17693   0.77282   0.00000  Uiso   1.00
O270   O     0.45726   0.32307   0.22718   0.00000  Uiso   1.00
O271   O     0.32307   0.04275   0.77282   0.00000  Uiso   1.00
O272   O     0.17693   0.45726   0.22718   0.00000  Uiso   1.00
O273   O     0.45726   0.17693   0.22718   0.00000  Uiso   1.00
O274   O     0.04275   0.32307   0.77282   0.00000  Uiso   1.00
O275   O     0.17693   0.04275   0.22718   0.00000  Uiso   1.00
O276   O     0.32307   0.45726   0.77282   0.00000  Uiso   1.00
O277   O     0.04275   0.32307   0.22718   0.00000  Uiso   1.00
O278   O     0.25000   0.46964   0.33683   0.00000  Uiso   1.00
O279   O     0.45726   0.17693   0.77282   0.00000  Uiso   1.00
O280   O     0.32307   0.45726   0.22718   0.00000  Uiso   1.00
O281   O     0.17693   0.04275   0.77282   0.00000  Uiso   1.00
O282   O     0.12936   0.45303   0.16647   0.00000  Uiso   1.00
O283   O     0.06748   0.44095   0.18843   0.00000  Uiso   1.00
O284   O     0.10872   0.47902   0.23311   0.00000  Uiso   1.00
O285   O     0.37064   0.04667   0.83410   0.00000  Uiso   1.00
O286   O     0.37939   0.10808   0.85981   0.00000  Uiso   1.00
O287   O     0.31509   0.09007   0.83640   0.00000  Uiso   1.00
O288   O     0.04135   0.12284   0.17264   0.00000  Uiso   1.00
O289   O     0.25000   0.03036   0.66317   0.00000  Uiso   1.00
O290   O     0.05462   0.06332   0.20095   0.00000  Uiso   1.00
O291   O     0.02006   0.10959   0.24342   0.00000  Uiso   1.00
O292   O     0.45883   0.37748   0.82755   0.00000  Uiso   1.00
O293   O     0.39964   0.38910   0.85707   0.00000  Uiso   1.00
O294   O     0.41581   0.32286   0.83929   0.00000  Uiso   1.00
O295   O     0.37064   0.04697   0.16647   0.00000  Uiso   1.00
O296   O     0.43253   0.05905   0.18843   0.00000  Uiso   1.00
O297   O     0.39128   0.02099   0.23311   0.00000  Uiso   1.00
O298   O     0.12936   0.45333   0.83410   0.00000  Uiso   1.00
O299   O     0.12061   0.39192   0.85981   0.00000  Uiso   1.00
O300   O     0.03036   0.25000   0.33683   0.00000  Uiso   1.00
O301   O     0.18491   0.40993   0.83640   0.00000  Uiso   1.00
O302   O     0.45865   0.37716   0.17264   0.00000  Uiso   1.00
O303   O     0.44538   0.43668   0.20095   0.00000  Uiso   1.00
O304   O     0.47994   0.39041   0.24342   0.00000  Uiso   1.00
O305   O     0.04117   0.12252   0.82755   0.00000  Uiso   1.00
O306   O     0.10036   0.11090   0.85707   0.00000  Uiso   1.00
O307   O     0.08419   0.17714   0.83929   0.00000  Uiso   1.00
O308   O     0.12267   0.04118   0.82714   0.00000  Uiso   1.00
O309   O     0.06324   0.05442   0.79864   0.00000  Uiso   1.00
O310   O     0.10966   0.01992   0.75631   0.00000  Uiso   1.00
O311   O     0.46964   0.25000   0.66317   0.00000  Uiso   1.00
O312   O     0.37730   0.45876   0.17229   0.00000  Uiso   1.00
O313   O     0.38883   0.39954   0.14276   0.00000  Uiso   1.00
O314   O     0.32264   0.41576   0.16068   0.00000  Uiso   1.00
O315   O     0.04749   0.36997   0.83403   0.00000  Uiso   1.00
O316   O     0.05961   0.43208   0.81277   0.00000  Uiso   1.00
O317   O     0.02126   0.39141   0.76778   0.00000  Uiso   1.00
O318   O     0.45379   0.12856   0.16650   0.00000  Uiso   1.00
O319   O     0.39256   0.11979   0.14038   0.00000  Uiso   1.00
O320   O     0.41058   0.18424   0.16333   0.00000  Uiso   1.00
O321   O     0.37733   0.45882   0.82714   0.00000  Uiso   1.00
O322   O     0.25000   0.03036   0.33683   0.00000  Uiso   1.00
O323   O     0.43677   0.44558   0.79864   0.00000  Uiso   1.00
O324   O     0.39034   0.48008   0.75631   0.00000  Uiso   1.00
O325   O     0.12270   0.04124   0.17229   0.00000  Uiso   1.00
O326   O     0.11117   0.10046   0.14276   0.00000  Uiso   1.00
O327   O     0.17736   0.08424   0.16068   0.00000  Uiso   1.00
O328   O     0.45251   0.13003   0.83403   0.00000  Uiso   1.00
O329   O     0.44039   0.06792   0.81277   0.00000  Uiso   1.00
O330   O     0.47874   0.10860   0.76778   0.00000  Uiso   1.00
O331   O     0.04621   0.37144   0.16650   0.00000  Uiso   1.00
O332   O     0.10744   0.38021   0.14038   0.00000  Uiso   1.00
S333   S     0.10629   0.44441   0.20129   0.00000  Uiso   1.00
S334   S     0.36675   0.41936   0.17273   0.00000  Uiso   1.00
S335   S     0.05600   0.39340   0.79945   0.00000  Uiso   1.00
S336   S     0.41461   0.13925   0.17065   0.00000  Uiso   1.00
S337   S     0.39677   0.44804   0.79050   0.00000  Uiso   1.00
S338   S     0.13325   0.08064   0.17273   0.00000  Uiso   1.00
S339   S     0.44400   0.10660   0.79945   0.00000  Uiso   1.00
S340   S     0.08539   0.36075   0.17065   0.00000  Uiso   1.00
S341   S     0.35629   0.19441   0.70129   0.00000  Uiso   1.00
S342   S     0.11011   0.33586   0.32955   0.00000  Uiso   1.00
S343   S     0.30211   0.35329   0.70922   0.00000  Uiso   1.00
S344   S     0.36011   0.08586   0.82955   0.00000  Uiso   1.00
S345   S     0.16943   0.11695   0.32714   0.00000  Uiso   1.00
S346   S     0.14371   0.30559   0.70129   0.00000  Uiso   1.00
S347   S     0.38989   0.16414   0.32955   0.00000  Uiso   1.00
S348   S     0.19789   0.14671   0.70922   0.00000  Uiso   1.00
S349   S     0.33057   0.38305   0.32714   0.00000  Uiso   1.00
S350   S     0.35323   0.30196   0.29050   0.00000  Uiso   1.00
S351   S     0.11675   0.16936   0.67273   0.00000  Uiso   1.00
S352   S     0.30600   0.14340   0.29945   0.00000  Uiso   1.00
S353   S     0.16461   0.38925   0.67065   0.00000  Uiso   1.00
S354   S     0.14677   0.19804   0.29050   0.00000  Uiso   1.00
S355   S     0.05211   0.10329   0.20922   0.00000  Uiso   1.00
S356   S     0.38325   0.33064   0.67273   0.00000  Uiso   1.00
S357   S     0.19400   0.35660   0.29945   0.00000  Uiso   1.00
S358   S     0.33539   0.11075   0.67065   0.00000  Uiso   1.00
S359   S     0.41943   0.36695   0.82714   0.00000  Uiso   1.00
S360   S     0.39371   0.05559   0.20129   0.00000  Uiso   1.00
S361   S     0.13989   0.41414   0.82955   0.00000  Uiso   1.00
S362   S     0.44789   0.39671   0.20922   0.00000  Uiso   1.00
S363   S     0.08057   0.13305   0.82714   0.00000  Uiso   1.00
S364   S     0.10323   0.05196   0.79050   0.00000  Uiso   1.00
Zn365  Zn    0.20660   0.00000   0.21760   0.00000  Uiso   1.00
Zn366  Zn    0.04340   0.25000   0.28240   0.00000  Uiso   1.00
Zn367  Zn    0.25000   0.45660   0.71760   0.00000  Uiso   1.00
Zn368  Zn    0.25000   0.04340   0.28240   0.00000  Uiso   1.00
Zn369  Zn    0.04340   0.25000   0.71760   0.00000  Uiso   1.00
Zn370  Zn    0.45660   0.25000   0.28240   0.00000  Uiso   1.00
Zn371  Zn    0.25000   0.04340   0.71760   0.00000  Uiso   1.00
Zn372  Zn    0.25000   0.45660   0.28240   0.00000  Uiso   1.00
Zn373  Zn    0.29340   0.00000   0.78240   0.00000  Uiso   1.00
Zn374  Zn    0.00000   0.20660   0.21760   0.00000  Uiso   1.00
Zn375  Zn    0.00000   0.29340   0.78240   0.00000  Uiso   1.00
Zn376  Zn    0.29340   0.00000   0.21760   0.00000  Uiso   1.00
Zn377  Zn    0.20660   0.00000   0.78240   0.00000  Uiso   1.00
Zn378  Zn    0.00000   0.29340   0.21760   0.00000  Uiso   1.00
Zn379  Zn    0.00000   0.20660   0.78240   0.00000  Uiso   1.00
Zn380  Zn    0.45660   0.25000   0.71760   0.00000  Uiso   1.00
C381   C     0.71938   0.01212   0.04184   0.00000  Uiso   1.00
C382   C     0.53131   0.26024   0.45824   0.00000  Uiso   1.00
C383   C     0.84832   0.40175   0.74993   0.00000  Uiso   1.00
C384   C     0.90211   0.15199   0.25004   0.00000  Uiso   1.00
C385   C     0.59849   0.34834   0.75012   0.00000  Uiso   1.00
C386   C     0.84805   0.40188   0.24996   0.00000  Uiso   1.00
C387   C     0.65168   0.09826   0.74993   0.00000  Uiso   1.00
C388   C     0.59805   0.15188   0.74996   0.00000  Uiso   1.00
C389   C     0.90168   0.34826   0.24993   0.00000  Uiso   1.00
C390   C     0.65211   0.40199   0.75004   0.00000  Uiso   1.00
C391   C     0.84849   0.09834   0.25012   0.00000  Uiso   1.00
C392   C     0.90195   0.34812   0.74996   0.00000  Uiso   1.00
C393   C     0.76074   0.46886   0.54180   0.00000  Uiso   1.00
C394   C     0.59832   0.15175   0.24993   0.00000  Uiso   1.00
C395   C     0.84789   0.09801   0.75004   0.00000  Uiso   1.00
C396   C     0.65152   0.40166   0.25012   0.00000  Uiso   1.00
C397   C     0.75000   0.00000   0.10254   0.00000  Uiso   1.00
C398   C     0.75000   0.00000   0.89751   0.00000  Uiso   1.00
C399   C     0.50000   0.25000   0.10251   0.00000  Uiso   1.00
C400   C     0.50000   0.25000   0.89748   0.00000  Uiso   1.00
C401   C     0.50000   0.25000   0.60254   0.00000  Uiso   1.00
C402   C     0.50000   0.25000   0.39751   0.00000  Uiso   1.00
C403   C     0.75000   0.00000   0.60251   0.00000  Uiso   1.00
C404   C     0.76140   0.03091   0.45819   0.00000  Uiso   1.00
C405   C     0.75000   0.00000   0.39748   0.00000  Uiso   1.00
C406   C     0.53063   0.23788   0.54184   0.00000  Uiso   1.00
C407   C     0.96869   0.23976   0.45824   0.00000  Uiso   1.00
C408   C     0.73926   0.03114   0.54180   0.00000  Uiso   1.00
C409   C     0.73860   0.46909   0.45819   0.00000  Uiso   1.00
C410   C     0.71928   0.01186   0.08220   0.00000  Uiso   1.00
C411   C     0.78139   0.00998   0.91789   0.00000  Uiso   1.00
C412   C     0.51046   0.21877   0.08215   0.00000  Uiso   1.00
C413   C     0.78131   0.01024   0.95824   0.00000  Uiso   1.00
C414   C     0.51112   0.28101   0.91783   0.00000  Uiso   1.00
C415   C     0.78072   0.48814   0.08220   0.00000  Uiso   1.00
C416   C     0.71861   0.49002   0.91789   0.00000  Uiso   1.00
C417   C     0.98954   0.28123   0.08215   0.00000  Uiso   1.00
C418   C     0.98888   0.21899   0.91783   0.00000  Uiso   1.00
C419   C     0.96928   0.26186   0.58220   0.00000  Uiso   1.00
C420   C     0.53139   0.25998   0.41789   0.00000  Uiso   1.00
C421   C     0.76046   0.46877   0.58215   0.00000  Uiso   1.00
C422   C     0.76112   0.03101   0.41783   0.00000  Uiso   1.00
C423   C     0.53072   0.23814   0.58220   0.00000  Uiso   1.00
C424   C     0.51074   0.21886   0.04180   0.00000  Uiso   1.00
C425   C     0.96861   0.24002   0.41789   0.00000  Uiso   1.00
C426   C     0.73954   0.03123   0.58215   0.00000  Uiso   1.00
C427   C     0.73888   0.46899   0.41783   0.00000  Uiso   1.00
C428   C     0.75000   0.00000   0.02136   0.00000  Uiso   1.00
C429   C     0.75000   0.00000   0.97872   0.00000  Uiso   1.00
C430   C     0.50000   0.25000   0.02132   0.00000  Uiso   1.00
C431   C     0.50000   0.25000   0.97867   0.00000  Uiso   1.00
C432   C     0.50000   0.25000   0.52136   0.00000  Uiso   1.00
C433   C     0.50000   0.25000   0.47872   0.00000  Uiso   1.00
C434   C     0.75000   0.00000   0.52132   0.00000  Uiso   1.00
C435   C     0.51140   0.28091   0.95819   0.00000  Uiso   1.00
C436   C     0.75000   0.00000   0.47867   0.00000  Uiso   1.00
C437   C     0.75000   0.00000   0.35513   0.00000  Uiso   1.00
C438   C     0.75000   0.00000   0.64486   0.00000  Uiso   1.00
C439   C     0.50000   0.25000   0.35514   0.00000  Uiso   1.00
C440   C     0.50000   0.25000   0.64488   0.00000  Uiso   1.00
C441   C     0.50000   0.25000   0.85513   0.00000  Uiso   1.00
C442   C     0.50000   0.25000   0.14486   0.00000  Uiso   1.00
C443   C     0.75000   0.00000   0.85514   0.00000  Uiso   1.00
C444   C     0.75000   0.00000   0.14488   0.00000  Uiso   1.00
C445   C     0.67997   0.07005   0.24999   0.00000  Uiso   1.00
C446   C     0.78063   0.48788   0.04184   0.00000  Uiso   1.00
C447   C     0.82012   0.42989   0.74998   0.00000  Uiso   1.00
C448   C     0.93002   0.18000   0.25000   0.00000  Uiso   1.00
C449   C     0.57018   0.32014   0.75004   0.00000  Uiso   1.00
C450   C     0.82003   0.42995   0.24999   0.00000  Uiso   1.00
C451   C     0.67988   0.07011   0.74998   0.00000  Uiso   1.00
C452   C     0.56998   0.32000   0.25000   0.00000  Uiso   1.00
C453   C     0.92982   0.17986   0.75004   0.00000  Uiso   1.00
C454   C     0.68002   0.43000   0.75000   0.00000  Uiso   1.00
C455   C     0.82018   0.07014   0.25004   0.00000  Uiso   1.00
C456   C     0.92997   0.32005   0.74999   0.00000  Uiso   1.00
C457   C     0.71869   0.48976   0.95824   0.00000  Uiso   1.00
C458   C     0.57012   0.17989   0.24998   0.00000  Uiso   1.00
C459   C     0.81998   0.07000   0.75000   0.00000  Uiso   1.00
C460   C     0.67982   0.42986   0.25004   0.00000  Uiso   1.00
C461   C     0.57003   0.17995   0.74999   0.00000  Uiso   1.00
C462   C     0.92988   0.32011   0.24998   0.00000  Uiso   1.00
C463   C     0.62193   0.40336   0.22349   0.00000  Uiso   1.00
C464   C     0.87170   0.10149   0.78200   0.00000  Uiso   1.00
C465   C     0.59470   0.12031   0.22624   0.00000  Uiso   1.00
C466   C     0.90073   0.37445   0.77990   0.00000  Uiso   1.00
C467   C     0.87807   0.09664   0.22349   0.00000  Uiso   1.00
C468   C     0.98926   0.28114   0.04180   0.00000  Uiso   1.00
C469   C     0.62830   0.39851   0.78200   0.00000  Uiso   1.00
C470   C     0.90530   0.37969   0.22624   0.00000  Uiso   1.00
C471   C     0.59927   0.12555   0.77990   0.00000  Uiso   1.00
C472   C     0.62024   0.09459   0.77359   0.00000  Uiso   1.00
C473   C     0.87433   0.40066   0.21996   0.00000  Uiso   1.00
C474   C     0.59689   0.37789   0.77683   0.00000  Uiso   1.00
C475   C     0.89868   0.12804   0.21819   0.00000  Uiso   1.00
C476   C     0.87976   0.40541   0.77359   0.00000  Uiso   1.00
C477   C     0.62567   0.09934   0.21996   0.00000  Uiso   1.00
C478   C     0.90311   0.12211   0.77683   0.00000  Uiso   1.00
C479   C     0.98860   0.21909   0.95819   0.00000  Uiso   1.00
C480   C     0.60132   0.37196   0.21819   0.00000  Uiso   1.00
C481   C     0.87193   0.15336   0.72349   0.00000  Uiso   1.00
C482   C     0.62170   0.35149   0.28200   0.00000  Uiso   1.00
C483   C     0.84470   0.37031   0.72624   0.00000  Uiso   1.00
C484   C     0.65073   0.12445   0.27990   0.00000  Uiso   1.00
C485   C     0.62807   0.34664   0.72349   0.00000  Uiso   1.00
C486   C     0.87830   0.14851   0.28200   0.00000  Uiso   1.00
C487   C     0.65530   0.12969   0.72624   0.00000  Uiso   1.00
C488   C     0.84927   0.37555   0.27990   0.00000  Uiso   1.00
C489   C     0.87024   0.34459   0.27359   0.00000  Uiso   1.00
C490   C     0.96937   0.26212   0.54184   0.00000  Uiso   1.00
C491   C     0.62433   0.15066   0.71996   0.00000  Uiso   1.00
C492   C     0.84689   0.12789   0.27683   0.00000  Uiso   1.00
C493   C     0.64868   0.37804   0.71819   0.00000  Uiso   1.00
C494   C     0.62976   0.15541   0.27359   0.00000  Uiso   1.00
C495   C     0.87567   0.34934   0.71996   0.00000  Uiso   1.00
C496   C     0.65311   0.37211   0.27683   0.00000  Uiso   1.00
C497   C     0.85132   0.12196   0.71819   0.00000  Uiso   1.00
C498   C     0.59789   0.34801   0.25004   0.00000  Uiso   1.00
C499   C     0.90152   0.15166   0.75012   0.00000  Uiso   1.00
C500   C     0.65195   0.09812   0.24996   0.00000  Uiso   1.00
H501   H     0.69568   0.02219   0.02668   0.00000  Uiso   1.00
H502   H     0.55558   0.26885   0.47340   0.00000  Uiso   1.00
H503   H     0.76975   0.44473   0.52665   0.00000  Uiso   1.00
H504   H     0.77093   0.05485   0.47333   0.00000  Uiso   1.00
H505   H     0.55432   0.22781   0.52668   0.00000  Uiso   1.00
H506   H     0.94442   0.23116   0.47340   0.00000  Uiso   1.00
H507   H     0.73025   0.05527   0.52665   0.00000  Uiso   1.00
H508   H     0.72907   0.44515   0.47333   0.00000  Uiso   1.00
H509   H     0.69541   0.02144   0.09747   0.00000  Uiso   1.00
H510   H     0.80584   0.01802   0.90267   0.00000  Uiso   1.00
H511   H     0.51892   0.19448   0.09739   0.00000  Uiso   1.00
H512   H     0.80558   0.01885   0.97340   0.00000  Uiso   1.00
H513   H     0.52010   0.30512   0.90258   0.00000  Uiso   1.00
H514   H     0.80459   0.47856   0.09747   0.00000  Uiso   1.00
H515   H     0.69416   0.48198   0.90267   0.00000  Uiso   1.00
H516   H     0.98108   0.30553   0.09739   0.00000  Uiso   1.00
H517   H     0.97990   0.19488   0.90258   0.00000  Uiso   1.00
H518   H     0.94541   0.27144   0.59747   0.00000  Uiso   1.00
H519   H     0.55584   0.26802   0.40267   0.00000  Uiso   1.00
H520   H     0.76892   0.44448   0.59739   0.00000  Uiso   1.00
H521   H     0.77010   0.05512   0.40258   0.00000  Uiso   1.00
H522   H     0.55459   0.22856   0.59747   0.00000  Uiso   1.00
H523   H     0.51975   0.19473   0.02665   0.00000  Uiso   1.00
H524   H     0.94416   0.23198   0.40267   0.00000  Uiso   1.00
H525   H     0.73108   0.05553   0.59739   0.00000  Uiso   1.00
H526   H     0.72990   0.44488   0.40258   0.00000  Uiso   1.00
H527   H     0.59441   0.47089   0.25587   0.00000  Uiso   1.00
H528   H     0.81035   0.07876   0.86201   0.00000  Uiso   1.00
H529   H     0.99708   0.10164   0.23111   0.00000  Uiso   1.00
H530   H     0.88963   0.31722   0.83675   0.00000  Uiso   1.00
H531   H     0.90559   0.02911   0.25587   0.00000  Uiso   1.00
H532   H     0.68965   0.42124   0.86201   0.00000  Uiso   1.00
H533   H     0.50292   0.39836   0.23111   0.00000  Uiso   1.00
H534   H     0.52093   0.30485   0.97333   0.00000  Uiso   1.00
H535   H     0.61037   0.18278   0.83675   0.00000  Uiso   1.00
H536   H     0.60206   0.49687   0.76872   0.00000  Uiso   1.00
H537   H     0.81702   0.38957   0.16311   0.00000  Uiso   1.00
H538   H     0.52932   0.40595   0.74516   0.00000  Uiso   1.00
H539   H     0.92403   0.18908   0.13895   0.00000  Uiso   1.00
H540   H     0.89794   0.00313   0.76872   0.00000  Uiso   1.00
H541   H     0.68298   0.11043   0.16311   0.00000  Uiso   1.00
H542   H     0.97068   0.09405   0.74516   0.00000  Uiso   1.00
H543   H     0.57597   0.31092   0.13895   0.00000  Uiso   1.00
H544   H     0.84441   0.22089   0.75587   0.00000  Uiso   1.00
H545   H     0.80432   0.47781   0.02668   0.00000  Uiso   1.00
H546   H     0.56035   0.32876   0.36201   0.00000  Uiso   1.00
H547   H     0.74708   0.35164   0.73111   0.00000  Uiso   1.00
H548   H     0.63963   0.06722   0.33675   0.00000  Uiso   1.00
H549   H     0.65559   0.27911   0.75587   0.00000  Uiso   1.00
H550   H     0.93965   0.17124   0.36201   0.00000  Uiso   1.00
H551   H     0.75292   0.14836   0.73111   0.00000  Uiso   1.00
H552   H     0.86037   0.43278   0.33675   0.00000  Uiso   1.00
H553   H     0.85206   0.24687   0.26872   0.00000  Uiso   1.00
H554   H     0.56702   0.13957   0.66311   0.00000  Uiso   1.00
H555   H     0.77932   0.15595   0.24516   0.00000  Uiso   1.00
H556   H     0.69442   0.48116   0.97340   0.00000  Uiso   1.00
H557   H     0.67403   0.43908   0.63895   0.00000  Uiso   1.00
H558   H     0.64794   0.25313   0.26872   0.00000  Uiso   1.00
H559   H     0.93298   0.36043   0.66311   0.00000  Uiso   1.00
H560   H     0.72068   0.34405   0.24516   0.00000  Uiso   1.00
H561   H     0.82597   0.06092   0.63895   0.00000  Uiso   1.00
H562   H     0.98025   0.30527   0.02665   0.00000  Uiso   1.00
H563   H     0.97907   0.19515   0.97333   0.00000  Uiso   1.00
H564   H     0.94568   0.27219   0.52668   0.00000  Uiso   1.00
O565   O     0.75000   0.00000   0.25000   0.00000  Uiso   1.00
O566   O     0.75000   0.46964   0.66317   0.00000  Uiso   1.00
O567   O     0.58942   0.31576   0.16333   0.00000  Uiso   1.00
O568   O     0.87936   0.20303   0.66647   0.00000  Uiso   1.00
O569   O     0.81748   0.19095   0.68843   0.00000  Uiso   1.00
O570   O     0.85872   0.22902   0.73311   0.00000  Uiso   1.00
O571   O     0.62064   0.29667   0.33410   0.00000  Uiso   1.00
O572   O     0.62939   0.35808   0.35981   0.00000  Uiso   1.00
O573   O     0.56509   0.34007   0.33640   0.00000  Uiso   1.00
O574   O     0.79135   0.37284   0.67264   0.00000  Uiso   1.00
O575   O     0.80462   0.31332   0.70095   0.00000  Uiso   1.00
O576   O     0.77006   0.35959   0.74342   0.00000  Uiso   1.00
O577   O     0.96964   0.25000   0.33683   0.00000  Uiso   1.00
O578   O     0.70883   0.12748   0.32755   0.00000  Uiso   1.00
O579   O     0.64964   0.13910   0.35707   0.00000  Uiso   1.00
O580   O     0.66581   0.07286   0.33929   0.00000  Uiso   1.00
O581   O     0.62064   0.29697   0.66647   0.00000  Uiso   1.00
O582   O     0.68253   0.30905   0.68843   0.00000  Uiso   1.00
O583   O     0.64128   0.27099   0.73311   0.00000  Uiso   1.00
O584   O     0.87936   0.20333   0.33410   0.00000  Uiso   1.00
O585   O     0.87061   0.14192   0.35981   0.00000  Uiso   1.00
O586   O     0.93491   0.15993   0.33640   0.00000  Uiso   1.00
O587   O     0.70865   0.12716   0.67264   0.00000  Uiso   1.00
O588   O     0.53036   0.25000   0.66317   0.00000  Uiso   1.00
O589   O     0.69538   0.18668   0.70095   0.00000  Uiso   1.00
O590   O     0.72994   0.14041   0.74342   0.00000  Uiso   1.00
O591   O     0.79117   0.37252   0.32755   0.00000  Uiso   1.00
O592   O     0.85036   0.36090   0.35707   0.00000  Uiso   1.00
O593   O     0.83419   0.42714   0.33929   0.00000  Uiso   1.00
O594   O     0.87267   0.29118   0.32714   0.00000  Uiso   1.00
O595   O     0.81324   0.30442   0.29864   0.00000  Uiso   1.00
O596   O     0.85966   0.26992   0.25631   0.00000  Uiso   1.00
O597   O     0.62730   0.20876   0.67229   0.00000  Uiso   1.00
O598   O     0.63883   0.14954   0.64276   0.00000  Uiso   1.00
O599   O     0.50000   0.21964   0.83683   0.00000  Uiso   1.00
O600   O     0.57264   0.16576   0.66068   0.00000  Uiso   1.00
O601   O     0.79749   0.11997   0.33403   0.00000  Uiso   1.00
O602   O     0.80961   0.18208   0.31277   0.00000  Uiso   1.00
O603   O     0.77126   0.14141   0.26778   0.00000  Uiso   1.00
O604   O     0.70379   0.37856   0.66650   0.00000  Uiso   1.00
O605   O     0.64256   0.36979   0.64038   0.00000  Uiso   1.00
O606   O     0.66058   0.43424   0.66333   0.00000  Uiso   1.00
O607   O     0.62733   0.20882   0.32714   0.00000  Uiso   1.00
O608   O     0.68677   0.19558   0.29864   0.00000  Uiso   1.00
O609   O     0.64034   0.23008   0.25631   0.00000  Uiso   1.00
O610   O     0.50000   0.28036   0.16317   0.00000  Uiso   1.00
O611   O     0.87270   0.29124   0.67229   0.00000  Uiso   1.00
O612   O     0.86117   0.35046   0.64276   0.00000  Uiso   1.00
O613   O     0.92736   0.33424   0.66068   0.00000  Uiso   1.00
O614   O     0.70251   0.38003   0.33403   0.00000  Uiso   1.00
O615   O     0.69039   0.31792   0.31277   0.00000  Uiso   1.00
O616   O     0.72874   0.35860   0.26778   0.00000  Uiso   1.00
O617   O     0.79621   0.12144   0.66650   0.00000  Uiso   1.00
O618   O     0.85744   0.13021   0.64038   0.00000  Uiso   1.00
O619   O     0.83942   0.06576   0.66333   0.00000  Uiso   1.00
O620   O     0.78036   0.00000   0.83683   0.00000  Uiso   1.00
O621   O     0.71964   0.00000   0.16317   0.00000  Uiso   1.00
O622   O     0.50000   0.28036   0.83683   0.00000  Uiso   1.00
O623   O     0.50000   0.21964   0.16317   0.00000  Uiso   1.00
O624   O     0.71964   0.00000   0.83683   0.00000  Uiso   1.00
O625   O     0.75000   0.00000   0.75000   0.00000  Uiso   1.00
O626   O     0.78036   0.00000   0.16317   0.00000  Uiso   1.00
O627   O     0.70726   0.07307   0.27282   0.00000  Uiso   1.00
O628   O     0.79275   0.42693   0.72718   0.00000  Uiso   1.00
O629   O     0.92693   0.20726   0.27282   0.00000  Uiso   1.00
O630   O     0.57307   0.29275   0.72718   0.00000  Uiso   1.00
O631   O     0.79275   0.42693   0.27282   0.00000  Uiso   1.00
O632   O     0.70726   0.07307   0.72718   0.00000  Uiso   1.00
O633   O     0.57307   0.29275   0.27282   0.00000  Uiso   1.00
O634   O     0.92693   0.20726   0.72718   0.00000  Uiso   1.00
O635   O     0.70726   0.42693   0.72718   0.00000  Uiso   1.00
O636   O     0.50000   0.25000   0.25000   0.00000  Uiso   1.00
O637   O     0.79275   0.07307   0.27282   0.00000  Uiso   1.00
O638   O     0.92693   0.29275   0.72718   0.00000  Uiso   1.00
O639   O     0.57307   0.20726   0.27282   0.00000  Uiso   1.00
O640   O     0.79275   0.07307   0.72718   0.00000  Uiso   1.00
O641   O     0.70726   0.42693   0.27282   0.00000  Uiso   1.00
O642   O     0.57307   0.20726   0.72718   0.00000  Uiso   1.00
O643   O     0.92693   0.29275   0.27282   0.00000  Uiso   1.00
O644   O     0.95726   0.32307   0.77282   0.00000  Uiso   1.00
O645   O     0.54275   0.17693   0.22718   0.00000  Uiso   1.00
O646   O     0.67693   0.45726   0.77282   0.00000  Uiso   1.00
O647   O     0.50000   0.25000   0.75000   0.00000  Uiso   1.00
O648   O     0.82307   0.04275   0.22718   0.00000  Uiso   1.00
O649   O     0.54275   0.17693   0.77282   0.00000  Uiso   1.00
O650   O     0.95726   0.32307   0.22718   0.00000  Uiso   1.00
O651   O     0.82307   0.04275   0.77282   0.00000  Uiso   1.00
O652   O     0.67693   0.45726   0.22718   0.00000  Uiso   1.00
O653   O     0.95726   0.17693   0.22718   0.00000  Uiso   1.00
O654   O     0.54275   0.32307   0.77282   0.00000  Uiso   1.00
O655   O     0.67693   0.04275   0.22718   0.00000  Uiso   1.00
O656   O     0.82307   0.45726   0.77282   0.00000  Uiso   1.00
O657   O     0.54275   0.32307   0.22718   0.00000  Uiso   1.00
O658   O     0.75000   0.46964   0.33683   0.00000  Uiso   1.00
O659   O     0.95726   0.17693   0.77282   0.00000  Uiso   1.00
O660   O     0.82307   0.45726   0.22718   0.00000  Uiso   1.00
O661   O     0.67693   0.04275   0.77282   0.00000  Uiso   1.00
O662   O     0.62936   0.45303   0.16647   0.00000  Uiso   1.00
O663   O     0.56748   0.44095   0.18843   0.00000  Uiso   1.00
O664   O     0.60872   0.47902   0.23311   0.00000  Uiso   1.00
O665   O     0.87064   0.04667   0.83410   0.00000  Uiso   1.00
O666   O     0.87939   0.10808   0.85981   0.00000  Uiso   1.00
O667   O     0.81509   0.09007   0.83640   0.00000  Uiso   1.00
O668   O     0.54135   0.12284   0.17264   0.00000  Uiso   1.00
O669   O     0.75000   0.03036   0.66317   0.00000  Uiso   1.00
O670   O     0.55462   0.06332   0.20095   0.00000  Uiso   1.00
O671   O     0.52006   0.10959   0.24342   0.00000  Uiso   1.00
O672   O     0.95883   0.37748   0.82755   0.00000  Uiso   1.00
O673   O     0.89964   0.38910   0.85707   0.00000  Uiso   1.00
O674   O     0.91581   0.32286   0.83929   0.00000  Uiso   1.00
O675   O     0.87064   0.04697   0.16647   0.00000  Uiso   1.00
O676   O     0.93253   0.05905   0.18843   0.00000  Uiso   1.00
O677   O     0.89128   0.02099   0.23311   0.00000  Uiso   1.00
O678   O     0.62936   0.45333   0.83410   0.00000  Uiso   1.00
O679   O     0.62061   0.39192   0.85981   0.00000  Uiso   1.00
O680   O     0.53036   0.25000   0.33683   0.00000  Uiso   1.00
O681   O     0.68491   0.40993   0.83640   0.00000  Uiso   1.00
O682   O     0.95865   0.37716   0.17264   0.00000  Uiso   1.00
O683   O     0.94538   0.43668   0.20095   0.00000  Uiso   1.00
O684   O     0.97994   0.39041   0.24342   0.00000  Uiso   1.00
O685   O     0.54117   0.12252   0.82755   0.00000  Uiso   1.00
O686   O     0.60036   0.11090   0.85707   0.00000  Uiso   1.00
O687   O     0.58419   0.17714   0.83929   0.00000  Uiso   1.00
O688   O     0.62267   0.04118   0.82714   0.00000  Uiso   1.00
O689   O     0.56324   0.05442   0.79864   0.00000  Uiso   1.00
O690   O     0.60966   0.01992   0.75631   0.00000  Uiso   1.00
O691   O     0.96964   0.25000   0.66317   0.00000  Uiso   1.00
O692   O     0.87730   0.45876   0.17229   0.00000  Uiso   1.00
O693   O     0.88883   0.39954   0.14276   0.00000  Uiso   1.00
O694   O     0.82264   0.41576   0.16068   0.00000  Uiso   1.00
O695   O     0.54749   0.36997   0.83403   0.00000  Uiso   1.00
O696   O     0.55961   0.43208   0.81277   0.00000  Uiso   1.00
O697   O     0.52126   0.39141   0.76778   0.00000  Uiso   1.00
O698   O     0.95379   0.12856   0.16650   0.00000  Uiso   1.00
O699   O     0.89256   0.11979   0.14038   0.00000  Uiso   1.00
O700   O     0.91058   0.18424   0.16333   0.00000  Uiso   1.00
O701   O     0.87733   0.45882   0.82714   0.00000  Uiso   1.00
O702   O     0.75000   0.03036   0.33683   0.00000  Uiso   1.00
O703   O     0.93677   0.44558   0.79864   0.00000  Uiso   1.00
O704   O     0.89034   0.48008   0.75631   0.00000  Uiso   1.00
O705   O     0.62270   0.04124   0.17229   0.00000  Uiso   1.00
O706   O     0.61117   0.10046   0.14276   0.00000  Uiso   1.00
O707   O     0.67736   0.08424   0.16068   0.00000  Uiso   1.00
O708   O     0.95251   0.13003   0.83403   0.00000  Uiso   1.00
O709   O     0.94039   0.06792   0.81277   0.00000  Uiso   1.00
O710   O     0.97874   0.10860   0.76778   0.00000  Uiso   1.00
O711   O     0.54621   0.37144   0.16650   0.00000  Uiso   1.00
O712   O     0.60744   0.38021   0.14038   0.00000  Uiso   1.00
S713   S     0.60629   0.44441   0.20129   0.00000  Uiso   1.00
S714   S     0.86675   0.41936   0.17273   0.00000  Uiso   1.00
S715   S     0.55600   0.39340   0.79945   0.00000  Uiso   1.00
S716   S     0.91461   0.13925   0.17065   0.00000  Uiso   1.00
S717   S     0.89677   0.44804   0.79050   0.00000  Uiso   1.00
S718   S     0.63325   0.08064   0.17273   0.00000  Uiso   1.00
S719   S     0.94400   0.10660   0.79945   0.00000  Uiso   1.00
S720   S     0.58539   0.36075   0.17065   0.00000  Uiso   1.00
S721   S     0.85629   0.19441   0.70129   0.00000  Uiso   1.00
S722   S     0.61011   0.33586   0.32955   0.00000  Uiso   1.00
S723   S     0.80211   0.35329   0.70922   0.00000  Uiso   1.00
S724   S     0.86011   0.08586   0.82955   0.00000  Uiso   1.00
S725   S     0.66943   0.11695   0.32714   0.00000  Uiso   1.00
S726   S     0.64371   0.30559   0.70129   0.00000  Uiso   1.00
S727   S     0.88989   0.16414   0.32955   0.00000  Uiso   1.00
S728   S     0.69789   0.14671   0.70922   0.00000  Uiso   1.00
S729   S     0.83057   0.38305   0.32714   0.00000  Uiso   1.00
S730   S     0.85323   0.30196   0.29050   0.00000  Uiso   1.00
S731   S     0.61675   0.16936   0.67273   0.00000  Uiso   1.00
S732   S     0.80600   0.14340   0.29945   0.00000  Uiso   1.00
S733   S     0.66461   0.38925   0.67065   0.00000  Uiso   1.00
S734   S     0.64677   0.19804   0.29050   0.00000  Uiso   1.00
S735   S     0.55211   0.10329   0.20922   0.00000  Uiso   1.00
S736   S     0.88325   0.33064   0.67273   0.00000  Uiso   1.00
S737   S     0.69400   0.35660   0.29945   0.00000  Uiso   1.00
S738   S     0.83539   0.11075   0.67065   0.00000  Uiso   1.00
S739   S     0.91943   0.36695   0.82714   0.00000  Uiso   1.00
S740   S     0.89371   0.05559   0.20129   0.00000  Uiso   1.00
S741   S     0.63989   0.41414   0.82955   0.00000  Uiso   1.00
S742   S     0.94789   0.39671   0.20922   0.00000  Uiso   1.00
S743   S     0.58057   0.13305   0.82714   0.00000  Uiso   1.00
S744   S     0.60323   0.05196   0.79050   0.00000  Uiso   1.00
Zn745  Zn    0.70660   0.00000   0.21760   0.00000  Uiso   1.00
Zn746  Zn    0.54340   0.25000   0.28240   0.00000  Uiso   1.00
Zn747  Zn    0.75000   0.45660   0.71760   0.00000  Uiso   1.00
Zn748  Zn    0.75000   0.04340   0.28240   0.00000  Uiso   1.00
Zn749  Zn    0.54340   0.25000   0.71760   0.00000  Uiso   1.00
Zn750  Zn    0.95660   0.25000   0.28240   0.00000  Uiso   1.00
Zn751  Zn    0.75000   0.04340   0.71760   0.00000  Uiso   1.00
Zn752  Zn    0.75000   0.45660   0.28240   0.00000  Uiso   1.00
Zn753  Zn    0.79340   0.00000   0.78240   0.00000  Uiso   1.00
Zn754  Zn    0.50000   0.20660   0.21760   0.00000  Uiso   1.00
Zn755  Zn    0.50000   0.29340   0.78240   0.00000  Uiso   1.00
Zn756  Zn    0.79340   0.00000   0.21760   0.00000  Uiso   1.00
Zn757  Zn    0.70660   0.00000   0.78240   0.00000  Uiso   1.00
Zn758  Zn    0.50000   0.29340   0.21760   0.00000  Uiso   1.00
Zn759  Zn    0.50000   0.20660   0.78240   0.00000  Uiso   1.00
Zn760  Zn    0.95660   0.25000   0.71760   0.00000  Uiso   1.00
C761   C     0.21938   0.51212   0.04184   0.00000  Uiso   1.00
C762   C     0.03131   0.76024   0.45824   0.00000  Uiso   1.00
C763   C     0.34832   0.90175   0.74993   0.00000  Uiso   1.00
C764   C     0.40211   0.65199   0.25004   0.00000  Uiso   1.00
C765   C     0.09849   0.84834   0.75012   0.00000  Uiso   1.00
C766   C     0.34805   0.90188   0.24996   0.00000  Uiso   1.00
C767   C     0.15168   0.59826   0.74993   0.00000  Uiso   1.00
C768   C     0.09805   0.65188   0.74996   0.00000  Uiso   1.00
C769   C     0.40168   0.84826   0.24993   0.00000  Uiso   1.00
C770   C     0.15211   0.90199   0.75004   0.00000  Uiso   1.00
C771   C     0.34849   0.59834   0.25012   0.00000  Uiso   1.00
C772   C     0.40195   0.84812   0.74996   0.00000  Uiso   1.00
C773   C     0.26074   0.96886   0.54180   0.00000  Uiso   1.00
C774   C     0.09832   0.65175   0.24993   0.00000  Uiso   1.00
C775   C     0.34789   0.59801   0.75004   0.00000  Uiso   1.00
C776   C     0.15152   0.90166   0.25012   0.00000  Uiso   1.00
C777   C     0.25000   0.50000   0.10254   0.00000  Uiso   1.00
C778   C     0.25000   0.50000   0.89751   0.00000  Uiso   1.00
C779   C     0.00000   0.75000   0.10251   0.00000  Uiso   1.00
C780   C     0.00000   0.75000   0.89748   0.00000  Uiso   1.00
C781   C     0.00000   0.75000   0.60254   0.00000  Uiso   1.00
C782   C     0.00000   0.75000   0.39751   0.00000  Uiso   1.00
C783   C     0.25000   0.50000   0.60251   0.00000  Uiso   1.00
C784   C     0.26140   0.53091   0.45819   0.00000  Uiso   1.00
C785   C     0.25000   0.50000   0.39748   0.00000  Uiso   1.00
C786   C     0.03063   0.73788   0.54184   0.00000  Uiso   1.00
C787   C     0.46869   0.73976   0.45824   0.00000  Uiso   1.00
C788   C     0.23926   0.53114   0.54180   0.00000  Uiso   1.00
C789   C     0.23860   0.96909   0.45819   0.00000  Uiso   1.00
C790   C     0.21928   0.51186   0.08220   0.00000  Uiso   1.00
C791   C     0.28139   0.50998   0.91789   0.00000  Uiso   1.00
C792   C     0.01046   0.71877   0.08215   0.00000  Uiso   1.00
C793   C     0.28131   0.51024   0.95824   0.00000  Uiso   1.00
C794   C     0.01112   0.78101   0.91783   0.00000  Uiso   1.00
C795   C     0.28072   0.98814   0.08220   0.00000  Uiso   1.00
C796   C     0.21861   0.99002   0.91789   0.00000  Uiso   1.00
C797   C     0.48954   0.78123   0.08215   0.00000  Uiso   1.00
C798   C     0.48888   0.71899   0.91783   0.00000  Uiso   1.00
C799   C     0.46928   0.76186   0.58220   0.00000  Uiso   1.00
C800   C     0.03139   0.75998   0.41789   0.00000  Uiso   1.00
C801   C     0.26046   0.96877   0.58215   0.00000  Uiso   1.00
C802   C     0.26112   0.53101   0.41783   0.00000  Uiso   1.00
C803   C     0.03072   0.73814   0.58220   0.00000  Uiso   1.00
C804   C     0.01074   0.71886   0.04180   0.00000  Uiso   1.00
C805   C     0.46861   0.74002   0.41789   0.00000  Uiso   1.00
C806   C     0.23954   0.53123   0.58215   0.00000  Uiso   1.00
C807   C     0.23888   0.96899   0.41783   0.00000  Uiso   1.00
C808   C     0.25000   0.50000   0.02136   0.00000  Uiso   1.00
C809   C     0.25000   0.50000   0.97872   0.00000  Uiso   1.00
C810   C     0.00000   0.75000   0.02132   0.00000  Uiso   1.00
C811   C     0.00000   0.75000   0.97867   0.00000  Uiso   1.00
C812   C     0.00000   0.75000   0.52136   0.00000  Uiso   1.00
C813   C     0.00000   0.75000   0.47872   0.00000  Uiso   1.00
C814   C     0.25000   0.50000   0.52132   0.00000  Uiso   1.00
C815   C     0.01140   0.78091   0.95819   0.00000  Uiso   1.00
C816   C     0.25000   0.50000   0.47867   0.00000  Uiso   1.00
C817   C     0.25000   0.50000   0.35513   0.00000  Uiso   1.00
C818   C     0.25000   0.50000   0.64486   0.00000  Uiso   1.00
C819   C     0.00000   0.75000   0.35514   0.00000  Uiso   1.00
C820   C     0.00000   0.75000   0.64488   0.00000  Uiso   1.00
C821   C     0.00000   0.75000   0.85513   0.00000  Uiso   1.00
C822   C     0.00000   0.75000   0.14486   0.00000  Uiso   1.00
C823   C     0.25000   0.50000   0.85514   0.00000  Uiso   1.00
C824   C     0.25000   0.50000   0.14488   0.00000  Uiso   1.00
C825   C     0.17997   0.57005   0.24999   0.00000  Uiso   1.00
C826   C     0.28063   0.98788   0.04184   0.00000  Uiso   1.00
C827   C     0.32012   0.92989   0.74998   0.00000  Uiso   1.00
C828   C     0.43002   0.68000   0.25000   0.00000  Uiso   1.00
C829   C     0.07018   0.82014   0.75004   0.00000  Uiso   1.00
C830   C     0.32003   0.92995   0.24999   0.00000  Uiso   1.00
C831   C     0.17988   0.57011   0.74998   0.00000  Uiso   1.00
C832   C     0.06998   0.82000   0.25000   0.00000  Uiso   1.00
C833   C     0.42982   0.67986   0.75004   0.00000  Uiso   1.00
C834   C     0.18002   0.93000   0.75000   0.00000  Uiso   1.00
C835   C     0.32018   0.57014   0.25004   0.00000  Uiso   1.00
C836   C     0.42997   0.82005   0.74999   0.00000  Uiso   1.00
C837   C     0.21869   0.98976   0.95824   0.00000  Uiso   1.00
C838   C     0.07012   0.67989   0.24998   0.00000  Uiso   1.00
C839   C     0.31998   0.57000   0.75000   0.00000  Uiso   1.00
C840   C     0.17982   0.92986   0.25004   0.00000  Uiso   1.00
C841   C     0.07003   0.67995   0.74999   0.00000  Uiso   1.00
C842   C     0.42988   0.82011   0.24998   0.00000  Uiso   1.00
C843   C     0.12193   0.90336   0.22349   0.00000  Uiso   1.00
C844   C     0.37170   0.60149   0.78200   0.00000  Uiso   1.00
C845   C     0.09470   0.62031   0.22624   0.00000  Uiso   1.00
C846   C     0.40073   0.87445   0.77990   0.00000  Uiso   1.00
C847   C     0.37807   0.59664   0.22349   0.00000  Uiso   1.00
C848   C     0.48926   0.78114   0.04180   0.00000  Uiso   1.00
C849   C     0.12830   0.89851   0.78200   0.00000  Uiso   1.00
C850   C     0.40530   0.87969   0.22624   0.00000  Uiso   1.00
C851   C     0.09927   0.62555   0.77990   0.00000  Uiso   1.00
C852   C     0.12024   0.59459   0.77359   0.00000  Uiso   1.00
C853   C     0.37433   0.90066   0.21996   0.00000  Uiso   1.00
C854   C     0.09689   0.87789   0.77683   0.00000  Uiso   1.00
C855   C     0.39868   0.62804   0.21819   0.00000  Uiso   1.00
C856   C     0.37976   0.90541   0.77359   0.00000  Uiso   1.00
C857   C     0.12567   0.59934   0.21996   0.00000  Uiso   1.00
C858   C     0.40311   0.62211   0.77683   0.00000  Uiso   1.00
C859   C     0.48860   0.71909   0.95819   0.00000  Uiso   1.00
C860   C     0.10132   0.87196   0.21819   0.00000  Uiso   1.00
C861   C     0.37193   0.65336   0.72349   0.00000  Uiso   1.00
C862   C     0.12170   0.85149   0.28200   0.00000  Uiso   1.00
C863   C     0.34470   0.87031   0.72624   0.00000  Uiso   1.00
C864   C     0.15073   0.62445   0.27990   0.00000  Uiso   1.00
C865   C     0.12807   0.84664   0.72349   0.00000  Uiso   1.00
C866   C     0.37830   0.64851   0.28200   0.00000  Uiso   1.00
C867   C     0.15530   0.62969   0.72624   0.00000  Uiso   1.00
C868   C     0.34927   0.87555   0.27990   0.00000  Uiso   1.00
C869   C     0.37024   0.84459   0.27359   0.00000  Uiso   1.00
C870   C     0.46937   0.76212   0.54184   0.00000  Uiso   1.00
C871   C     0.12433   0.65066   0.71996   0.00000  Uiso   1.00
C872   C     0.34689   0.62789   0.27683   0.00000  Uiso   1.00
C873   C     0.14868   0.87804   0.71819   0.00000  Uiso   1.00
C874   C     0.12976   0.65541   0.27359   0.00000  Uiso   1.00
C875   C     0.37567   0.84934   0.71996   0.00000  Uiso   1.00
C876   C     0.15311   0.87211   0.27683   0.00000  Uiso   1.00
C877   C     0.35132   0.62196   0.71819   0.00000  Uiso   1.00
C878   C     0.09789   0.84801   0.25004   0.00000  Uiso   1.00
C879   C     0.40152   0.65166   0.75012   0.00000  Uiso   1.00
C880   C     0.15195   0.59812   0.24996   0.00000  Uiso   1.00
H881   H     0.19568   0.52219   0.02668   0.00000  Uiso   1.00
H882   H     0.05558   0.76885   0.47340   0.00000  Uiso   1.00
H883   H     0.26975   0.94473   0.52665   0.00000  Uiso   1.00
H884   H     0.27093   0.55485   0.47333   0.00000  Uiso   1.00
H885   H     0.05432   0.72781   0.52668   0.00000  Uiso   1.00
H886   H     0.44442   0.73116   0.47340   0.00000  Uiso   1.00
H887   H     0.23025   0.55527   0.52665   0.00000  Uiso   1.00
H888   H     0.22907   0.94515   0.47333   0.00000  Uiso   1.00
H889   H     0.19541   0.52144   0.09747   0.00000  Uiso   1.00
H890   H     0.30584   0.51802   0.90267   0.00000  Uiso   1.00
H891   H     0.01892   0.69448   0.09739   0.00000  Uiso   1.00
H892   H     0.30558   0.51885   0.97340   0.00000  Uiso   1.00
H893   H     0.02010   0.80512   0.90258   0.00000  Uiso   1.00
H894   H     0.30459   0.97856   0.09747   0.00000  Uiso   1.00
H895   H     0.19416   0.98198   0.90267   0.00000  Uiso   1.00
H896   H     0.48108   0.80553   0.09739   0.00000  Uiso   1.00
H897   H     0.47990   0.69488   0.90258   0.00000  Uiso   1.00
H898   H     0.44541   0.77144   0.59747   0.00000  Uiso   1.00
H899   H     0.05584   0.76802   0.40267   0.00000  Uiso   1.00
H900   H     0.26892   0.94448   0.59739   0.00000  Uiso   1.00
H901   H     0.27010   0.55512   0.40258   0.00000  Uiso   1.00
H902   H     0.05459   0.72856   0.59747   0.00000  Uiso   1.00
H903   H     0.01975   0.69473   0.02665   0.00000  Uiso   1.00
H904   H     0.44416   0.73198   0.40267   0.00000  Uiso   1.00
H905   H     0.23108   0.55553   0.59739   0.00000  Uiso   1.00
H906   H     0.22990   0.94488   0.40258   0.00000  Uiso   1.00
H907   H     0.09441   0.97089   0.25587   0.00000  Uiso   1.00
H908   H     0.31035   0.57876   0.86201   0.00000  Uiso   1.00
H909   H     0.49708   0.60164   0.23111   0.00000  Uiso   1.00
H910   H     0.38963   0.81722   0.83675   0.00000  Uiso   1.00
H911   H     0.40559   0.52911   0.25587   0.00000  Uiso   1.00
H912   H     0.18965   0.92124   0.86201   0.00000  Uiso   1.00
H913   H     0.00292   0.89836   0.23111   0.00000  Uiso   1.00
H914   H     0.02093   0.80485   0.97333   0.00000  Uiso   1.00
H915   H     0.11037   0.68278   0.83675   0.00000  Uiso   1.00
H916   H     0.10206   0.99687   0.76872   0.00000  Uiso   1.00
H917   H     0.31702   0.88957   0.16311   0.00000  Uiso   1.00
H918   H     0.02932   0.90595   0.74516   0.00000  Uiso   1.00
H919   H     0.42403   0.68908   0.13895   0.00000  Uiso   1.00
H920   H     0.39794   0.50313   0.76872   0.00000  Uiso   1.00
H921   H     0.18298   0.61043   0.16311   0.00000  Uiso   1.00
H922   H     0.47068   0.59405   0.74516   0.00000  Uiso   1.00
H923   H     0.07597   0.81092   0.13895   0.00000  Uiso   1.00
H924   H     0.34441   0.72089   0.75587   0.00000  Uiso   1.00
H925   H     0.30432   0.97781   0.02668   0.00000  Uiso   1.00
H926   H     0.06035   0.82876   0.36201   0.00000  Uiso   1.00
H927   H     0.24708   0.85164   0.73111   0.00000  Uiso   1.00
H928   H     0.13963   0.56722   0.33675   0.00000  Uiso   1.00
H929   H     0.15559   0.77911   0.75587   0.00000  Uiso   1.00
H930   H     0.43965   0.67124   0.36201   0.00000  Uiso   1.00
H931   H     0.25292   0.64836   0.73111   0.00000  Uiso   1.00
H932   H     0.36037   0.93278   0.33675   0.00000  Uiso   1.00
H933   H     0.35206   0.74687   0.26872   0.00000  Uiso   1.00
H934   H     0.06702   0.63957   0.66311   0.00000  Uiso   1.00
H935   H     0.27932   0.65595   0.24516   0.00000  Uiso   1.00
H936   H     0.19442   0.98116   0.97340   0.00000  Uiso   1.00
H937   H     0.17403   0.93908   0.63895   0.00000  Uiso   1.00
H938   H     0.14794   0.75313   0.26872   0.00000  Uiso   1.00
H939   H     0.43298   0.86043   0.66311   0.00000  Uiso   1.00
H940   H     0.22068   0.84405   0.24516   0.00000  Uiso   1.00
H941   H     0.32597   0.56092   0.63895   0.00000  Uiso   1.00
H942   H     0.48025   0.80527   0.02665   0.00000  Uiso   1.00
H943   H     0.47907   0.69515   0.97333   0.00000  Uiso   1.00
H944   H     0.44568   0.77219   0.52668   0.00000  Uiso   1.00
O945   O     0.25000   0.50000   0.25000   0.00000  Uiso   1.00
O946   O     0.25000   0.96964   0.66317   0.00000  Uiso   1.00
O947   O     0.08942   0.81576   0.16333   0.00000  Uiso   1.00
O948   O     0.37936   0.70303   0.66647   0.00000  Uiso   1.00
O949   O     0.31748   0.69095   0.68843   0.00000  Uiso   1.00
O950   O     0.35872   0.72902   0.73311   0.00000  Uiso   1.00
O951   O     0.12064   0.79667   0.33410   0.00000  Uiso   1.00
O952   O     0.12939   0.85808   0.35981   0.00000  Uiso   1.00
O953   O     0.06509   0.84007   0.33640   0.00000  Uiso   1.00
O954   O     0.29135   0.87284   0.67264   0.00000  Uiso   1.00
O955   O     0.30462   0.81332   0.70095   0.00000  Uiso   1.00
O956   O     0.27006   0.85959   0.74342   0.00000  Uiso   1.00
O957   O     0.46964   0.75000   0.33683   0.00000  Uiso   1.00
O958   O     0.20883   0.62748   0.32755   0.00000  Uiso   1.00
O959   O     0.14964   0.63910   0.35707   0.00000  Uiso   1.00
O960   O     0.16581   0.57286   0.33929   0.00000  Uiso   1.00
O961   O     0.12064   0.79697   0.66647   0.00000  Uiso   1.00
O962   O     0.18253   0.80905   0.68843   0.00000  Uiso   1.00
O963   O     0.14128   0.77099   0.73311   0.00000  Uiso   1.00
O964   O     0.37936   0.70333   0.33410   0.00000  Uiso   1.00
O965   O     0.37061   0.64192   0.35981   0.00000  Uiso   1.00
O966   O     0.43491   0.65993   0.33640   0.00000  Uiso   1.00
O967   O     0.20865   0.62716   0.67264   0.00000  Uiso   1.00
O968   O     0.03036   0.75000   0.66317   0.00000  Uiso   1.00
O969   O     0.19538   0.68668   0.70095   0.00000  Uiso   1.00
O970   O     0.22994   0.64041   0.74342   0.00000  Uiso   1.00
O971   O     0.29117   0.87252   0.32755   0.00000  Uiso   1.00
O972   O     0.35036   0.86090   0.35707   0.00000  Uiso   1.00
O973   O     0.33419   0.92714   0.33929   0.00000  Uiso   1.00
O974   O     0.37267   0.79118   0.32714   0.00000  Uiso   1.00
O975   O     0.31324   0.80442   0.29864   0.00000  Uiso   1.00
O976   O     0.35966   0.76992   0.25631   0.00000  Uiso   1.00
O977   O     0.12730   0.70876   0.67229   0.00000  Uiso   1.00
O978   O     0.13883   0.64954   0.64276   0.00000  Uiso   1.00
O979   O     0.00000   0.71964   0.83683   0.00000  Uiso   1.00
O980   O     0.07264   0.66576   0.66068   0.00000  Uiso   1.00
O981   O     0.29749   0.61997   0.33403   0.00000  Uiso   1.00
O982   O     0.30961   0.68208   0.31277   0.00000  Uiso   1.00
O983   O     0.27126   0.64141   0.26778   0.00000  Uiso   1.00
O984   O     0.20379   0.87856   0.66650   0.00000  Uiso   1.00
O985   O     0.14256   0.86979   0.64038   0.00000  Uiso   1.00
O986   O     0.16058   0.93424   0.66333   0.00000  Uiso   1.00
O987   O     0.12733   0.70882   0.32714   0.00000  Uiso   1.00
O988   O     0.18677   0.69558   0.29864   0.00000  Uiso   1.00
O989   O     0.14034   0.73008   0.25631   0.00000  Uiso   1.00
O990   O     0.00000   0.78036   0.16317   0.00000  Uiso   1.00
O991   O     0.37270   0.79124   0.67229   0.00000  Uiso   1.00
O992   O     0.36117   0.85046   0.64276   0.00000  Uiso   1.00
O993   O     0.42736   0.83424   0.66068   0.00000  Uiso   1.00
O994   O     0.20251   0.88003   0.33403   0.00000  Uiso   1.00
O995   O     0.19039   0.81792   0.31277   0.00000  Uiso   1.00
O996   O     0.22874   0.85860   0.26778   0.00000  Uiso   1.00
O997   O     0.29621   0.62144   0.66650   0.00000  Uiso   1.00
O998   O     0.35744   0.63021   0.64038   0.00000  Uiso   1.00
O999   O     0.33942   0.56576   0.66333   0.00000  Uiso   1.00
O1000  O     0.28036   0.50000   0.83683   0.00000  Uiso   1.00
O1001  O     0.21964   0.50000   0.16317   0.00000  Uiso   1.00
O1002  O     0.00000   0.78036   0.83683   0.00000  Uiso   1.00
O1003  O     0.00000   0.71964   0.16317   0.00000  Uiso   1.00
O1004  O     0.21964   0.50000   0.83683   0.00000  Uiso   1.00
O1005  O     0.25000   0.50000   0.75000   0.00000  Uiso   1.00
O1006  O     0.28036   0.50000   0.16317   0.00000  Uiso   1.00
O1007  O     0.20726   0.57307   0.27282   0.00000  Uiso   1.00
O1008  O     0.29275   0.92693   0.72718   0.00000  Uiso   1.00
O1009  O     0.42693   0.70726   0.27282   0.00000  Uiso   1.00
O1010  O     0.07307   0.79275   0.72718   0.00000  Uiso   1.00
O1011  O     0.29275   0.92693   0.27282   0.00000  Uiso   1.00
O1012  O     0.20726   0.57307   0.72718   0.00000  Uiso   1.00
O1013  O     0.07307   0.79275   0.27282   0.00000  Uiso   1.00
O1014  O     0.42693   0.70726   0.72718   0.00000  Uiso   1.00
O1015  O     0.20726   0.92693   0.72718   0.00000  Uiso   1.00
O1016  O     0.00000   0.75000   0.25000   0.00000  Uiso   1.00
O1017  O     0.29275   0.57307   0.27282   0.00000  Uiso   1.00
O1018  O     0.42693   0.79275   0.72718   0.00000  Uiso   1.00
O1019  O     0.07307   0.70726   0.27282   0.00000  Uiso   1.00
O1020  O     0.29275   0.57307   0.72718   0.00000  Uiso   1.00
O1021  O     0.20726   0.92693   0.27282   0.00000  Uiso   1.00
O1022  O     0.07307   0.70726   0.72718   0.00000  Uiso   1.00
O1023  O     0.42693   0.79275   0.27282   0.00000  Uiso   1.00
O1024  O     0.45726   0.82307   0.77282   0.00000  Uiso   1.00
O1025  O     0.04275   0.67693   0.22718   0.00000  Uiso   1.00
O1026  O     0.17693   0.95726   0.77282   0.00000  Uiso   1.00
O1027  O     0.00000   0.75000   0.75000   0.00000  Uiso   1.00
O1028  O     0.32307   0.54275   0.22718   0.00000  Uiso   1.00
O1029  O     0.04275   0.67693   0.77282   0.00000  Uiso   1.00
O1030  O     0.45726   0.82307   0.22718   0.00000  Uiso   1.00
O1031  O     0.32307   0.54275   0.77282   0.00000  Uiso   1.00
O1032  O     0.17693   0.95726   0.22718   0.00000  Uiso   1.00
O1033  O     0.45726   0.67693   0.22718   0.00000  Uiso   1.00
O1034  O     0.04275   0.82307   0.77282   0.00000  Uiso   1.00
O1035  O     0.17693   0.54275   0.22718   0.00000  Uiso   1.00
O1036  O     0.32307   0.95726   0.77282   0.00000  Uiso   1.00
O1037  O     0.04275   0.82307   0.22718   0.00000  Uiso   1.00
O1038  O     0.25000   0.96964   0.33683   0.00000  Uiso   1.00
O1039  O     0.45726   0.67693   0.77282   0.00000  Uiso   1.00
O1040  O     0.32307   0.95726   0.22718   0.00000  Uiso   1.00
O1041  O     0.17693   0.54275   0.77282   0.00000  Uiso   1.00
O1042  O     0.12936   0.95303   0.16647   0.00000  Uiso   1.00
O1043  O     0.06748   0.94095   0.18843   0.00000  Uiso   1.00
O1044  O     0.10872   0.97902   0.23311   0.00000  Uiso   1.00
O1045  O     0.37064   0.54667   0.83410   0.00000  Uiso   1.00
O1046  O     0.37939   0.60808   0.85981   0.00000  Uiso   1.00
O1047  O     0.31509   0.59007   0.83640   0.00000  Uiso   1.00
O1048  O     0.04135   0.62284   0.17264   0.00000  Uiso   1.00
O1049  O     0.25000   0.53036   0.66317   0.00000  Uiso   1.00
O1050  O     0.05462   0.56332   0.20095   0.00000  Uiso   1.00
O1051  O     0.02006   0.60959   0.24342   0.00000  Uiso   1.00
O1052  O     0.45883   0.87748   0.82755   0.00000  Uiso   1.00
O1053  O     0.39964   0.88910   0.85707   0.00000  Uiso   1.00
O1054  O     0.41581   0.82286   0.83929   0.00000  Uiso   1.00
O1055  O     0.37064   0.54697   0.16647   0.00000  Uiso   1.00
O1056  O     0.43253   0.55905   0.18843   0.00000  Uiso   1.00
O1057  O     0.39128   0.52099   0.23311   0.00000  Uiso   1.00
O1058  O     0.12936   0.95333   0.83410   0.00000  Uiso   1.00
O1059  O     0.12061   0.89192   0.85981   0.00000  Uiso   1.00
O1060  O     0.03036   0.75000   0.33683   0.00000  Uiso   1.00
O1061  O     0.18491   0.90993   0.83640   0.00000  Uiso   1.00
O1062  O     0.45865   0.87716   0.17264   0.00000  Uiso   1.00
O1063  O     0.44538   0.93668   0.20095   0.00000  Uiso   1.00
O1064  O     0.47994   0.89041   0.24342   0.00000  Uiso   1.00
O1065  O     0.04117   0.62252   0.82755   0.00000  Uiso   1.00
O1066  O     0.10036   0.61090   0.85707   0.00000  Uiso   1.00
O1067  O     0.08419   0.67714   0.83929   0.00000  Uiso   1.00
O1068  O     0.12267   0.54118   0.82714   0.00000  Uiso   1.00
O1069  O     0.06324   0.55442   0.79864   0.00000  Uiso   1.00
O1070  O     0.10966   0.51992   0.75631   0.00000  Uiso   1.00
O1071  O     0.46964   0.75000   0.66317   0.00000  Uiso   1.00
O1072  O     0.37730   0.95876   0.17229   0.00000  Uiso   1.00
O1073  O     0.38883   0.89954   0.14276   0.00000  Uiso   1.00
O1074  O     0.32264   0.91576   0.16068   0.00000  Uiso   1.00
O1075  O     0.04749   0.86997   0.83403   0.00000  Uiso   1.00
O1076  O     0.05961   0.93208   0.81277   0.00000  Uiso   1.00
O1077  O     0.02126   0.89141   0.76778   0.00000  Uiso   1.00
O1078  O     0.45379   0.62856   0.16650   0.00000  Uiso   1.00
O1079  O     0.39256   0.61979   0.14038   0.00000  Uiso   1.00
O1080  O     0.41058   0.68424   0.16333   0.00000  Uiso   1.00
O1081  O     0.37733   0.95882   0.82714   0.00000  Uiso   1.00
O1082  O     0.25000   0.53036   0.33683   0.00000  Uiso   1.00
O1083  O     0.43677   0.94558   0.79864   0.00000  Uiso   1.00
O1084  O     0.39034   0.98008   0.75631   0.00000  Uiso   1.00
O1085  O     0.12270   0.54124   0.17229   0.00000  Uiso   1.00
O1086  O     0.11117   0.60046   0.14276   0.00000  Uiso   1.00
O1087  O     0.17736   0.58424   0.16068   0.00000  Uiso   1.00
O1088  O     0.45251   0.63003   0.83403   0.00000  Uiso   1.00
O1089  O     0.44039   0.56792   0.81277   0.00000  Uiso   1.00
O1090  O     0.47874   0.60860   0.76778   0.00000  Uiso   1.00
O1091  O     0.04621   0.87144   0.16650   0.00000  Uiso   1.00
O1092  O     0.10744   0.88021   0.14038   0.00000  Uiso   1.00
S1093  S     0.10629   0.94441   0.20129   0.00000  Uiso   1.00
S1094  S     0.36675   0.91936   0.17273   0.00000  Uiso   1.00
S1095  S     0.05600   0.89340   0.79945   0.00000  Uiso   1.00
S1096  S     0.41461   0.63925   0.17065   0.00000  Uiso   1.00
S1097  S     0.39677   0.94804   0.79050   0.00000  Uiso   1.00
S1098  S     0.13325   0.58064   0.17273   0.00000  Uiso   1.00
S1099  S     0.44400   0.60660   0.79945   0.00000  Uiso   1.00
S1100  S     0.08539   0.86075   0.17065   0.00000  Uiso   1.00
S1101  S     0.35629   0.69441   0.70129   0.00000  Uiso   1.00
S1102  S     0.11011   0.83586   0.32955   0.00000  Uiso   1.00
S1103  S     0.30211   0.85329   0.70922   0.00000  Uiso   1.00
S1104  S     0.36011   0.58586   0.82955   0.00000  Uiso   1.00
S1105  S     0.16943   0.61695   0.32714   0.00000  Uiso   1.00
S1106  S     0.14371   0.80559   0.70129   0.00000  Uiso   1.00
S1107  S     0.38989   0.66414   0.32955   0.00000  Uiso   1.00
S1108  S     0.19789   0.64671   0.70922   0.00000  Uiso   1.00
S1109  S     0.33057   0.88305   0.32714   0.00000  Uiso   1.00
S1110  S     0.35323   0.80196   0.29050   0.00000  Uiso   1.00
S1111  S     0.11675   0.66936   0.67273   0.00000  Uiso   1.00
S1112  S     0.30600   0.64340   0.29945   0.00000  Uiso   1.00
S1113  S     0.16461   0.88925   0.67065   0.00000  Uiso   1.00
S1114  S     0.14677   0.69804   0.29050   0.00000  Uiso   1.00
S1115  S     0.05211   0.60329   0.20922   0.00000  Uiso   1.00
S1116  S     0.38325   0.83064   0.67273   0.00000  Uiso   1.00
S1117  S     0.19400   0.85660   0.29945   0.00000  Uiso   1.00
S1118  S     0.33539   0.61075   0.67065   0.00000  Uiso   1.00
S1119  S     0.41943   0.86695   0.82714   0.00000  Uiso   1.00
S1120  S     0.39371   0.55559   0.20129   0.00000  Uiso   1.00
S1121  S     0.13989   0.91414   0.82955   0.00000  Uiso   1.00
S1122  S     0.44789   0.89671   0.20922   0.00000  Uiso   1.00
S1123  S     0.08057   0.63305   0.82714   0.00000  Uiso   1.00
S1124  S     0.10323   0.55196   0.79050   0.00000  Uiso   1.00
Zn1125 Zn    0.20660   0.50000   0.21760   0.00000  Uiso   1.00
Zn1126 Zn    0.04340   0.75000   0.28240   0.00000  Uiso   1.00
Zn1127 Zn    0.25000   0.95660   0.71760   0.00000  Uiso   1.00
Zn1128 Zn    0.25000   0.54340   0.28240   0.00000  Uiso   1.00
Zn1129 Zn    0.04340   0.75000   0.71760   0.00000  Uiso   1.00
Zn1130 Zn    0.45660   0.75000   0.28240   0.00000  Uiso   1.00
Zn1131 Zn    0.25000   0.54340   0.71760   0.00000  Uiso   1.00
Zn1132 Zn    0.25000   0.95660   0.28240   0.00000  Uiso   1.00
Zn1133 Zn    0.29340   0.50000   0.78240   0.00000  Uiso   1.00
Zn1134 Zn    0.00000   0.70660   0.21760   0.00000  Uiso   1.00
Zn1135 Zn    0.00000   0.79340   0.78240   0.00000  Uiso   1.00
Zn1136 Zn    0.29340   0.50000   0.21760   0.00000  Uiso   1.00
Zn1137 Zn    0.20660   0.50000   0.78240   0.00000  Uiso   1.00
Zn1138 Zn    0.00000   0.79340   0.21760   0.00000  Uiso   1.00
Zn1139 Zn    0.00000   0.70660   0.78240   0.00000  Uiso   1.00
Zn1140 Zn    0.45660   0.75000   0.71760   0.00000  Uiso   1.00
C1141  C     0.71938   0.51212   0.04184   0.00000  Uiso   1.00
C1142  C     0.53131   0.76024   0.45824   0.00000  Uiso   1.00
C1143  C     0.84832   0.90175   0.74993   0.00000  Uiso   1.00
C1144  C     0.90211   0.65199   0.25004   0.00000  Uiso   1.00
C1145  C     0.59849   0.84834   0.75012   0.00000  Uiso   1.00
C1146  C     0.84805   0.90188   0.24996   0.00000  Uiso   1.00
C1147  C     0.65168   0.59826   0.74993   0.00000  Uiso   1.00
C1148  C     0.59805   0.65188   0.74996   0.00000  Uiso   1.00
C1149  C     0.90168   0.84826   0.24993   0.00000  Uiso   1.00
C1150  C     0.65211   0.90199   0.75004   0.00000  Uiso   1.00
C1151  C     0.84849   0.59834   0.25012   0.00000  Uiso   1.00
C1152  C     0.90195   0.84812   0.74996   0.00000  Uiso   1.00
C1153  C     0.76074   0.96886   0.54180   0.00000  Uiso   1.00
C1154  C     0.59832   0.65175   0.24993   0.00000  Uiso   1.00
C1155  C     0.84789   0.59801   0.75004   0.00000  Uiso   1.00
C1156  C     0.65152   0.90166   0.25012   0.00000  Uiso   1.00
C1157  C     0.75000   0.50000   0.10254   0.00000  Uiso   1.00
C1158  C     0.75000   0.50000   0.89751   0.00000  Uiso   1.00
C1159  C     0.50000   0.75000   0.10251   0.00000  Uiso   1.00
C1160  C     0.50000   0.75000   0.89748   0.00000  Uiso   1.00
C1161  C     0.50000   0.75000   0.60254   0.00000  Uiso   1.00
C1162  C     0.50000   0.75000   0.39751   0.00000  Uiso   1.00
C1163  C     0.75000   0.50000   0.60251   0.00000  Uiso   1.00
C1164  C     0.76140   0.53091   0.45819   0.00000  Uiso   1.00
C1165  C     0.75000   0.50000   0.39748   0.00000  Uiso   1.00
C1166  C     0.53063   0.73788   0.54184   0.00000  Uiso   1.00
C1167  C     0.96869   0.73976   0.45824   0.00000  Uiso   1.00
C1168  C     0.73926   0.53114   0.54180   0.00000  Uiso   1.00
C1169  C     0.73860   0.96909   0.45819   0.00000  Uiso   1.00
C1170  C     0.71928   0.51186   0.08220   0.00000  Uiso   1.00
C1171  C     0.78139   0.50998   0.91789   0.00000  Uiso   1.00
C1172  C     0.51046   0.71877   0.08215   0.00000  Uiso   1.00
C1173  C     0.78131   0.51024   0.95824   0.00000  Uiso   1.00
C1174  C     0.51112   0.78101   0.91783   0.00000  Uiso   1.00
C1175  C     0.78072   0.98814   0.08220   0.00000  Uiso   1.00
C1176  C     0.71861   0.99002   0.91789   0.00000  Uiso   1.00
C1177  C     0.98954   0.78123   0.08215   0.00000  Uiso   1.00
C1178  C     0.98888   0.71899   0.91783   0.00000  Uiso   1.00
C1179  C     0.96928   0.76186   0.58220   0.00000  Uiso   1.00
C1180  C     0.53139   0.75998   0.41789   0.00000  Uiso   1.00
C1181  C     0.76046   0.96877   0.58215   0.00000  Uiso   1.00
C1182  C     0.76112   0.53101   0.41783   0.00000  Uiso   1.00
C1183  C     0.53072   0.73814   0.58220   0.00000  Uiso   1.00
C1184  C     0.51074   0.71886   0.04180   0.00000  Uiso   1.00
C1185  C     0.96861   0.74002   0.41789   0.00000  Uiso   1.00
C1186  C     0.73954   0.53123   0.58215   0.00000  Uiso   1.00
C1187  C     0.73888   0.96899   0.41783   0.00000  Uiso   1.00
C1188  C     0.75000   0.50000   0.02136   0.00000  Uiso   1.00
C1189  C     0.75000   0.50000   0.97872   0.00000  Uiso   1.00
C1190  C     0.50000   0.75000   0.02132   0.00000  Uiso   1.00
C1191  C     0.50000   0.75000   0.97867   0.00000  Uiso   1.00
C1192  C     0.50000   0.75000   0.52136   0.00000  Uiso   1.00
C1193  C     0.50000   0.75000   0.47872   0.00000  Uiso   1.00
C1194  C     0.75000   0.50000   0.52132   0.00000  Uiso   1.00
C1195  C     0.51140   0.78091   0.95819   0.00000  Uiso   1.00
C1196  C     0.75000   0.50000   0.47867   0.00000  Uiso   1.00
C1197  C     0.75000   0.50000   0.35513   0.00000  Uiso   1.00
C1198  C     0.75000   0.50000   0.64486   0.00000  Uiso   1.00
C1199  C     0.50000   0.75000   0.35514   0.00000  Uiso   1.00
C1200  C     0.50000   0.75000   0.64488   0.00000  Uiso   1.00
C1201  C     0.50000   0.75000   0.85513   0.00000  Uiso   1.00
C1202  C     0.50000   0.75000   0.14486   0.00000  Uiso   1.00
C1203  C     0.75000   0.50000   0.85514   0.00000  Uiso   1.00
C1204  C     0.75000   0.50000   0.14488   0.00000  Uiso   1.00
C1205  C     0.67997   0.57005   0.24999   0.00000  Uiso   1.00
C1206  C     0.78063   0.98788   0.04184   0.00000  Uiso   1.00
C1207  C     0.82012   0.92989   0.74998   0.00000  Uiso   1.00
C1208  C     0.93002   0.68000   0.25000   0.00000  Uiso   1.00
C1209  C     0.57018   0.82014   0.75004   0.00000  Uiso   1.00
C1210  C     0.82003   0.92995   0.24999   0.00000  Uiso   1.00
C1211  C     0.67988   0.57011   0.74998   0.00000  Uiso   1.00
C1212  C     0.56998   0.82000   0.25000   0.00000  Uiso   1.00
C1213  C     0.92982   0.67986   0.75004   0.00000  Uiso   1.00
C1214  C     0.68002   0.93000   0.75000   0.00000  Uiso   1.00
C1215  C     0.82018   0.57014   0.25004   0.00000  Uiso   1.00
C1216  C     0.92997   0.82005   0.74999   0.00000  Uiso   1.00
C1217  C     0.71869   0.98976   0.95824   0.00000  Uiso   1.00
C1218  C     0.57012   0.67989   0.24998   0.00000  Uiso   1.00
C1219  C     0.81998   0.57000   0.75000   0.00000  Uiso   1.00
C1220  C     0.67982   0.92986   0.25004   0.00000  Uiso   1.00
C1221  C     0.57003   0.67995   0.74999   0.00000  Uiso   1.00
C1222  C     0.92988   0.82011   0.24998   0.00000  Uiso   1.00
C1223  C     0.62193   0.90336   0.22349   0.00000  Uiso   1.00
C1224  C     0.87170   0.60149   0.78200   0.00000  Uiso   1.00
C1225  C     0.59470   0.62031   0.22624   0.00000  Uiso   1.00
C1226  C     0.90073   0.87445   0.77990   0.00000  Uiso   1.00
C1227  C     0.87807   0.59664   0.22349   0.00000  Uiso   1.00
C1228  C     0.98926   0.78114   0.04180   0.00000  Uiso   1.00
C1229  C     0.62830   0.89851   0.78200   0.00000  Uiso   1.00
C1230  C     0.90530   0.87969   0.22624   0.00000  Uiso   1.00
C1231  C     0.59927   0.62555   0.77990   0.00000  Uiso   1.00
C1232  C     0.62024   0.59459   0.77359   0.00000  Uiso   1.00
C1233  C     0.87433   0.90066   0.21996   0.00000  Uiso   1.00
C1234  C     0.59689   0.87789   0.77683   0.00000  Uiso   1.00
C1235  C     0.89868   0.62804   0.21819   0.00000  Uiso   1.00
C1236  C     0.87976   0.90541   0.77359   0.00000  Uiso   1.00
C1237  C     0.62567   0.59934   0.21996   0.00000  Uiso   1.00
C1238  C     0.90311   0.62211   0.77683   0.00000  Uiso   1.00
C1239  C     0.98860   0.71909   0.95819   0.00000  Uiso   1.00
C1240  C     0.60132   0.87196   0.21819   0.00000  Uiso   1.00
C1241  C     0.87193   0.65336   0.72349   0.00000  Uiso   1.00
C1242  C     0.62170   0.85149   0.28200   0.00000  Uiso   1.00
C1243  C     0.84470   0.87031   0.72624   0.00000  Uiso   1.00
C1244  C     0.65073   0.62445   0.27990   0.00000  Uiso   1.00
C1245  C     0.62807   0.84664   0.72349   0.00000  Uiso   1.00
C1246  C     0.87830   0.64851   0.28200   0.00000  Uiso   1.00
C1247  C     0.65530   0.62969   0.72624   0.00000  Uiso   1.00
C1248  C     0.84927   0.87555   0.27990   0.00000  Uiso   1.00
C1249  C     0.87024   0.84459   0.27359   0.00000  Uiso   1.00
C1250  C     0.96937   0.76212   0.54184   0.00000  Uiso   1.00
C1251  C     0.62433   0.65066   0.71996   0.00000  Uiso   1.00
C1252  C     0.84689   0.62789   0.27683   0.00000  Uiso   1.00
C1253  C     0.64868   0.87804   0.71819   0.00000  Uiso   1.00
C1254  C     0.62976   0.65541   0.27359   0.00000  Uiso   1.00
C1255  C     0.87567   0.84934   0.71996   0.00000  Uiso   1.00
C1256  C     0.65311   0.87211   0.27683   0.00000  Uiso   1.00
C1257  C     0.85132   0.62196   0.71819   0.00000  Uiso   1.00
C1258  C     0.59789   0.84801   0.25004   0.00000  Uiso   1.00
C1259  C     0.90152   0.65166   0.75012   0.00000  Uiso   1.00
C1260  C     0.65195   0.59812   0.24996   0.00000  Uiso   1.00
H1261  H     0.69568   0.52219   0.02668   0.00000  Uiso   1.00
H1262  H     0.55558   0.76885   0.47340   0.00000  Uiso   1.00
H1263  H     0.76975   0.94473   0.52665   0.00000  Uiso   1.00
H1264  H     0.77093   0.55485   0.47333   0.00000  Uiso   1.00
H1265  H     0.55432   0.72781   0.52668   0.00000  Uiso   1.00
H1266  H     0.94442   0.73116   0.47340   0.00000  Uiso   1.00
H1267  H     0.73025   0.55527   0.52665   0.00000  Uiso   1.00
H1268  H     0.72907   0.94515   0.47333   0.00000  Uiso   1.00
H1269  H     0.69541   0.52144   0.09747   0.00000  Uiso   1.00
H1270  H     0.80584   0.51802   0.90267   0.00000  Uiso   1.00
H1271  H     0.51892   0.69448   0.09739   0.00000  Uiso   1.00
H1272  H     0.80558   0.51885   0.97340   0.00000  Uiso   1.00
H1273  H     0.52010   0.80512   0.90258   0.00000  Uiso   1.00
H1274  H     0.80459   0.97856   0.09747   0.00000  Uiso   1.00
H1275  H     0.69416   0.98198   0.90267   0.00000  Uiso   1.00
H1276  H     0.98108   0.80553   0.09739   0.00000  Uiso   1.00
H1277  H     0.97990   0.69488   0.90258   0.00000  Uiso   1.00
H1278  H     0.94541   0.77144   0.59747   0.00000  Uiso   1.00
H1279  H     0.55584   0.76802   0.40267   0.00000  Uiso   1.00
H1280  H     0.76892   0.94448   0.59739   0.00000  Uiso   1.00
H1281  H     0.77010   0.55512   0.40258   0.00000  Uiso   1.00
H1282  H     0.55459   0.72856   0.59747   0.00000  Uiso   1.00
H1283  H     0.51975   0.69473   0.02665   0.00000  Uiso   1.00
H1284  H     0.94416   0.73198   0.40267   0.00000  Uiso   1.00
H1285  H     0.73108   0.55553   0.59739   0.00000  Uiso   1.00
H1286  H     0.72990   0.94488   0.40258   0.00000  Uiso   1.00
H1287  H     0.59441   0.97089   0.25587   0.00000  Uiso   1.00
H1288  H     0.81035   0.57876   0.86201   0.00000  Uiso   1.00
H1289  H     0.99708   0.60164   0.23111   0.00000  Uiso   1.00
H1290  H     0.88963   0.81722   0.83675   0.00000  Uiso   1.00
H1291  H     0.90559   0.52911   0.25587   0.00000  Uiso   1.00
H1292  H     0.68965   0.92124   0.86201   0.00000  Uiso   1.00
H1293  H     0.50292   0.89836   0.23111   0.00000  Uiso   1.00
H1294  H     0.52093   0.80485   0.97333   0.00000  Uiso   1.00
H1295  H     0.61037   0.68278   0.83675   0.00000  Uiso   1.00
H1296  H     0.60206   0.99687   0.76872   0.00000  Uiso   1.00
H1297  H     0.81702   0.88957   0.16311   0.00000  Uiso   1.00
H1298  H     0.52932   0.90595   0.74516   0.00000  Uiso   1.00
H1299  H     0.92403   0.68908   0.13895   0.00000  Uiso   1.00
H1300  H     0.89794   0.50313   0.76872   0.00000  Uiso   1.00
H1301  H     0.68298   0.61043   0.16311   0.00000  Uiso   1.00
H1302  H     0.97068   0.59405   0.74516   0.00000  Uiso   1.00
H1303  H     0.57597   0.81092   0.13895   0.00000  Uiso   1.00
H1304  H     0.84441   0.72089   0.75587   0.00000  Uiso   1.00
H1305  H     0.80432   0.97781   0.02668   0.00000  Uiso   1.00
H1306  H     0.56035   0.82876   0.36201   0.00000  Uiso   1.00
H1307  H     0.74708   0.85164   0.73111   0.00000  Uiso   1.00
H1308  H     0.63963   0.56722   0.33675   0.00000  Uiso   1.00
H1309  H     0.65559   0.77911   0.75587   0.00000  Uiso   1.00
H1310  H     0.93965   0.67124   0.36201   0.00000  Uiso   1.00
H1311  H     0.75292   0.64836   0.73111   0.00000  Uiso   1.00
H1312  H     0.86037   0.93278   0.33675   0.00000  Uiso   1.00
H1313  H     0.85206   0.74687   0.26872   0.00000  Uiso   1.00
H1314  H     0.56702   0.63957   0.66311   0.00000  Uiso   1.00
H1315  H     0.77932   0.65595   0.24516   0.00000  Uiso   1.00
H1316  H     0.69442   0.98116   0.97340   0.00000  Uiso   1.00
H1317  H     0.67403   0.93908   0.63895   0.00000  Uiso   1.00
H1318  H     0.64794   0.75313   0.26872   0.00000  Uiso   1.00
H1319  H     0.93298   0.86043   0.66311   0.00000  Uiso   1.00
H1320  H     0.72068   0.84405   0.24516   0.00000  Uiso   1.00
H1321  H     0.82597   0.56092   0.63895   0.00000  Uiso   1.00
H1322  H     0.98025   0.80527   0.02665   0.00000  Uiso   1.00
H1323  H     0.97907   0.69515   0.97333   0.00000  Uiso   1.00
H1324  H     0.94568   0.77219   0.52668   0.00000  Uiso   1.00
O1325  O     0.75000   0.50000   0.25000   0.00000  Uiso   1.00
O1326  O     0.75000   0.96964   0.66317   0.00000  Uiso   1.00
O1327  O     0.58942   0.81576   0.16333   0.00000  Uiso   1.00
O1328  O     0.87936   0.70303   0.66647   0.00000  Uiso   1.00
O1329  O     0.81748   0.69095   0.68843   0.00000  Uiso   1.00
O1330  O     0.85872   0.72902   0.73311   0.00000  Uiso   1.00
O1331  O     0.62064   0.79667   0.33410   0.00000  Uiso   1.00
O1332  O     0.62939   0.85808   0.35981   0.00000  Uiso   1.00
O1333  O     0.56509   0.84007   0.33640   0.00000  Uiso   1.00
O1334  O     0.79135   0.87284   0.67264   0.00000  Uiso   1.00
O1335  O     0.80462   0.81332   0.70095   0.00000  Uiso   1.00
O1336  O     0.77006   0.85959   0.74342   0.00000  Uiso   1.00
O1337  O     0.96964   0.75000   0.33683   0.00000  Uiso   1.00
O1338  O     0.70883   0.62748   0.32755   0.00000  Uiso   1.00
O1339  O     0.64964   0.63910   0.35707   0.00000  Uiso   1.00
O1340  O     0.66581   0.57286   0.33929   0.00000  Uiso   1.00
O1341  O     0.62064   0.79697   0.66647   0.00000  Uiso   1.00
O1342  O     0.68253   0.80905   0.68843   0.00000  Uiso   1.00
O1343  O     0.64128   0.77099   0.73311   0.00000  Uiso   1.00
O1344  O     0.87936   0.70333   0.33410   0.00000  Uiso   1.00
O1345  O     0.87061   0.64192   0.35981   0.00000  Uiso   1.00
O1346  O     0.93491   0.65993   0.33640   0.00000  Uiso   1.00
O1347  O     0.70865   0.62716   0.67264   0.00000  Uiso   1.00
O1348  O     0.53036   0.75000   0.66317   0.00000  Uiso   1.00
O1349  O     0.69538   0.68668   0.70095   0.00000  Uiso   1.00
O1350  O     0.72994   0.64041   0.74342   0.00000  Uiso   1.00
O1351  O     0.79117   0.87252   0.32755   0.00000  Uiso   1.00
O1352  O     0.85036   0.86090   0.35707   0.00000  Uiso   1.00
O1353  O     0.83419   0.92714   0.33929   0.00000  Uiso   1.00
O1354  O     0.87267   0.79118   0.32714   0.00000  Uiso   1.00
O1355  O     0.81324   0.80442   0.29864   0.00000  Uiso   1.00
O1356  O     0.85966   0.76992   0.25631   0.00000  Uiso   1.00
O1357  O     0.62730   0.70876   0.67229   0.00000  Uiso   1.00
O1358  O     0.63883   0.64954   0.64276   0.00000  Uiso   1.00
O1359  O     0.50000   0.71964   0.83683   0.00000  Uiso   1.00
O1360  O     0.57264   0.66576   0.66068   0.00000  Uiso   1.00
O1361  O     0.79749   0.61997   0.33403   0.00000  Uiso   1.00
O1362  O     0.80961   0.68208   0.31277   0.00000  Uiso   1.00
O1363  O     0.77126   0.64141   0.26778   0.00000  Uiso   1.00
O1364  O     0.70379   0.87856   0.66650   0.00000  Uiso   1.00
O1365  O     0.64256   0.86979   0.64038   0.00000  Uiso   1.00
O1366  O     0.66058   0.93424   0.66333   0.00000  Uiso   1.00
O1367  O     0.62733   0.70882   0.32714   0.00000  Uiso   1.00
O1368  O     0.68677   0.69558   0.29864   0.00000  Uiso   1.00
O1369  O     0.64034   0.73008   0.25631   0.00000  Uiso   1.00
O1370  O     0.50000   0.78036   0.16317   0.00000  Uiso   1.00
O1371  O     0.87270   0.79124   0.67229   0.00000  Uiso   1.00
O1372  O     0.86117   0.85046   0.64276   0.00000  Uiso   1.00
O1373  O     0.92736   0.83424   0.66068   0.00000  Uiso   1.00
O1374  O     0.70251   0.88003   0.33403   0.00000  Uiso   1.00
O1375  O     0.69039   0.81792   0.31277   0.00000  Uiso   1.00
O1376  O     0.72874   0.85860   0.26778   0.00000  Uiso   1.00
O1377  O     0.79621   0.62144   0.66650   0.00000  Uiso   1.00
O1378  O     0.85744   0.63021   0.64038   0.00000  Uiso   1.00
O1379  O     0.83942   0.56576   0.66333   0.00000  Uiso   1.00
O1380  O     0.78036   0.50000   0.83683   0.00000  Uiso   1.00
O1381  O     0.71964   0.50000   0.16317   0.00000  Uiso   1.00
O1382  O     0.50000   0.78036   0.83683   0.00000  Uiso   1.00
O1383  O     0.50000   0.71964   0.16317   0.00000  Uiso   1.00
O1384  O     0.71964   0.50000   0.83683   0.00000  Uiso   1.00
O1385  O     0.75000   0.50000   0.75000   0.00000  Uiso   1.00
O1386  O     0.78036   0.50000   0.16317   0.00000  Uiso   1.00
O1387  O     0.70726   0.57307   0.27282   0.00000  Uiso   1.00
O1388  O     0.79275   0.92693   0.72718   0.00000  Uiso   1.00
O1389  O     0.92693   0.70726   0.27282   0.00000  Uiso   1.00
O1390  O     0.57307   0.79275   0.72718   0.00000  Uiso   1.00
O1391  O     0.79275   0.92693   0.27282   0.00000  Uiso   1.00
O1392  O     0.70726   0.57307   0.72718   0.00000  Uiso   1.00
O1393  O     0.57307   0.79275   0.27282   0.00000  Uiso   1.00
O1394  O     0.92693   0.70726   0.72718   0.00000  Uiso   1.00
O1395  O     0.70726   0.92693   0.72718   0.00000  Uiso   1.00
O1396  O     0.50000   0.75000   0.25000   0.00000  Uiso   1.00
O1397  O     0.79275   0.57307   0.27282   0.00000  Uiso   1.00
O1398  O     0.92693   0.79275   0.72718   0.00000  Uiso   1.00
O1399  O     0.57307   0.70726   0.27282   0.00000  Uiso   1.00
O1400  O     0.79275   0.57307   0.72718   0.00000  Uiso   1.00
O1401  O     0.70726   0.92693   0.27282   0.00000  Uiso   1.00
O1402  O     0.57307   0.70726   0.72718   0.00000  Uiso   1.00
O1403  O     0.92693   0.79275   0.27282   0.00000  Uiso   1.00
O1404  O     0.95726   0.82307   0.77282   0.00000  Uiso   1.00
O1405  O     0.54275   0.67693   0.22718   0.00000  Uiso   1.00
O1406  O     0.67693   0.95726   0.77282   0.00000  Uiso   1.00
O1407  O     0.50000   0.75000   0.75000   0.00000  Uiso   1.00
O1408  O     0.82307   0.54275   0.22718   0.00000  Uiso   1.00
O1409  O     0.54275   0.67693   0.77282   0.00000  Uiso   1.00
O1410  O     0.95726   0.82307   0.22718   0.00000  Uiso   1.00
O1411  O     0.82307   0.54275   0.77282   0.00000  Uiso   1.00
O1412  O     0.67693   0.95726   0.22718   0.00000  Uiso   1.00
O1413  O     0.95726   0.67693   0.22718   0.00000  Uiso   1.00
O1414  O     0.54275   0.82307   0.77282   0.00000  Uiso   1.00
O1415  O     0.67693   0.54275   0.22718   0.00000  Uiso   1.00
O1416  O     0.82307   0.95726   0.77282   0.00000  Uiso   1.00
O1417  O     0.54275   0.82307   0.22718   0.00000  Uiso   1.00
O1418  O     0.75000   0.96964   0.33683   0.00000  Uiso   1.00
O1419  O     0.95726   0.67693   0.77282   0.00000  Uiso   1.00
O1420  O     0.82307   0.95726   0.22718   0.00000  Uiso   1.00
O1421  O     0.67693   0.54275   0.77282   0.00000  Uiso   1.00
O1422  O     0.62936   0.95303   0.16647   0.00000  Uiso   1.00
O1423  O     0.56748   0.94095   0.18843   0.00000  Uiso   1.00
O1424  O     0.60872   0.97902   0.23311   0.00000  Uiso   1.00
O1425  O     0.87064   0.54667   0.83410   0.00000  Uiso   1.00
O1426  O     0.87939   0.60808   0.85981   0.00000  Uiso   1.00
O1427  O     0.81509   0.59007   0.83640   0.00000  Uiso   1.00
O1428  O     0.54135   0.62284   0.17264   0.00000  Uiso   1.00
O1429  O     0.75000   0.53036   0.66317   0.00000  Uiso   1.00
O1430  O     0.55462   0.56332   0.20095   0.00000  Uiso   1.00
O1431  O     0.52006   0.60959   0.24342   0.00000  Uiso   1.00
O1432  O     0.95883   0.87748   0.82755   0.00000  Uiso   1.00
O1433  O     0.89964   0.88910   0.85707   0.00000  Uiso   1.00
O1434  O     0.91581   0.82286   0.83929   0.00000  Uiso   1.00
O1435  O     0.87064   0.54697   0.16647   0.00000  Uiso   1.00
O1436  O     0.93253   0.55905   0.18843   0.00000  Uiso   1.00
O1437  O     0.89128   0.52099   0.23311   0.00000  Uiso   1.00
O1438  O     0.62936   0.95333   0.83410   0.00000  Uiso   1.00
O1439  O     0.62061   0.89192   0.85981   0.00000  Uiso   1.00
O1440  O     0.53036   0.75000   0.33683   0.00000  Uiso   1.00
O1441  O     0.68491   0.90993   0.83640   0.00000  Uiso   1.00
O1442  O     0.95865   0.87716   0.17264   0.00000  Uiso   1.00
O1443  O     0.94538   0.93668   0.20095   0.00000  Uiso   1.00
O1444  O     0.97994   0.89041   0.24342   0.00000  Uiso   1.00
O1445  O     0.54117   0.62252   0.82755   0.00000  Uiso   1.00
O1446  O     0.60036   0.61090   0.85707   0.00000  Uiso   1.00
O1447  O     0.58419   0.67714   0.83929   0.00000  Uiso   1.00
O1448  O     0.62267   0.54118   0.82714   0.00000  Uiso   1.00
O1449  O     0.56324   0.55442   0.79864   0.00000  Uiso   1.00
O1450  O     0.60966   0.51992   0.75631   0.00000  Uiso   1.00
O1451  O     0.96964   0.75000   0.66317   0.00000  Uiso   1.00
O1452  O     0.87730   0.95876   0.17229   0.00000  Uiso   1.00
O1453  O     0.88883   0.89954   0.14276   0.00000  Uiso   1.00
O1454  O     0.82264   0.91576   0.16068   0.00000  Uiso   1.00
O1455  O     0.54749   0.86997   0.83403   0.00000  Uiso   1.00
O1456  O     0.55961   0.93208   0.81277   0.00000  Uiso   1.00
O1457  O     0.52126   0.89141   0.76778   0.00000  Uiso   1.00
O1458  O     0.95379   0.62856   0.16650   0.00000  Uiso   1.00
O1459  O     0.89256   0.61979   0.14038   0.00000  Uiso   1.00
O1460  O     0.91058   0.68424   0.16333   0.00000  Uiso   1.00
O1461  O     0.87733   0.95882   0.82714   0.00000  Uiso   1.00
O1462  O     0.75000   0.53036   0.33683   0.00000  Uiso   1.00
O1463  O     0.93677   0.94558   0.79864   0.00000  Uiso   1.00
O1464  O     0.89034   0.98008   0.75631   0.00000  Uiso   1.00
O1465  O     0.62270   0.54124   0.17229   0.00000  Uiso   1.00
O1466  O     0.61117   0.60046   0.14276   0.00000  Uiso   1.00
O1467  O     0.67736   0.58424   0.16068   0.00000  Uiso   1.00
O1468  O     0.95251   0.63003   0.83403   0.00000  Uiso   1.00
O1469  O     0.94039   0.56792   0.81277   0.00000  Uiso   1.00
O1470  O     0.97874   0.60860   0.76778   0.00000  Uiso   1.00
O1471  O     0.54621   0.87144   0.16650   0.00000  Uiso   1.00
O1472  O     0.60744   0.88021   0.14038   0.00000  Uiso   1.00
S1473  S     0.60629   0.94441   0.20129   0.00000  Uiso   1.00
S1474  S     0.86675   0.91936   0.17273   0.00000  Uiso   1.00
S1475  S     0.55600   0.89340   0.79945   0.00000  Uiso   1.00
S1476  S     0.91461   0.63925   0.17065   0.00000  Uiso   1.00
S1477  S     0.89677   0.94804   0.79050   0.00000  Uiso   1.00
S1478  S     0.63325   0.58064   0.17273   0.00000  Uiso   1.00
S1479  S     0.94400   0.60660   0.79945   0.00000  Uiso   1.00
S1480  S     0.58539   0.86075   0.17065   0.00000  Uiso   1.00
S1481  S     0.85629   0.69441   0.70129   0.00000  Uiso   1.00
S1482  S     0.61011   0.83586   0.32955   0.00000  Uiso   1.00
S1483  S     0.80211   0.85329   0.70922   0.00000  Uiso   1.00
S1484  S     0.86011   0.58586   0.82955   0.00000  Uiso   1.00
S1485  S     0.66943   0.61695   0.32714   0.00000  Uiso   1.00
S1486  S     0.64371   0.80559   0.70129   0.00000  Uiso   1.00
S1487  S     0.88989   0.66414   0.32955   0.00000  Uiso   1.00
S1488  S     0.69789   0.64671   0.70922   0.00000  Uiso   1.00
S1489  S     0.83057   0.88305   0.32714   0.00000  Uiso   1.00
S1490  S     0.85323   0.80196   0.29050   0.00000  Uiso   1.00
S1491  S     0.61675   0.66936   0.67273   0.00000  Uiso   1.00
S1492  S     0.80600   0.64340   0.29945   0.00000  Uiso   1.00
S1493  S     0.66461   0.88925   0.67065   0.00000  Uiso   1.00
S1494  S     0.64677   0.69804   0.29050   0.00000  Uiso   1.00
S1495  S     0.55211   0.60329   0.20922   0.00000  Uiso   1.00
S1496  S     0.88325   0.83064   0.67273   0.00000  Uiso   1.00
S1497  S     0.69400   0.85660   0.29945   0.00000  Uiso   1.00
S1498  S     0.83539   0.61075   0.67065   0.00000  Uiso   1.00
S1499  S     0.91943   0.86695   0.82714   0.00000  Uiso   1.00
S1500  S     0.89371   0.55559   0.20129   0.00000  Uiso   1.00
S1501  S     0.63989   0.91414   0.82955   0.00000  Uiso   1.00
S1502  S     0.94789   0.89671   0.20922   0.00000  Uiso   1.00
S1503  S     0.58057   0.63305   0.82714   0.00000  Uiso   1.00
S1504  S     0.60323   0.55196   0.79050   0.00000  Uiso   1.00
Zn1505 Zn    0.70660   0.50000   0.21760   0.00000  Uiso   1.00
Zn1506 Zn    0.54340   0.75000   0.28240   0.00000  Uiso   1.00
Zn1507 Zn    0.75000   0.95660   0.71760   0.00000  Uiso   1.00
Zn1508 Zn    0.75000   0.54340   0.28240   0.00000  Uiso   1.00
Zn1509 Zn    0.54340   0.75000   0.71760   0.00000  Uiso   1.00
Zn1510 Zn    0.95660   0.75000   0.28240   0.00000  Uiso   1.00
Zn1511 Zn    0.75000   0.54340   0.71760   0.00000  Uiso   1.00
Zn1512 Zn    0.75000   0.95660   0.28240   0.00000  Uiso   1.00
Zn1513 Zn    0.79340   0.50000   0.78240   0.00000  Uiso   1.00
Zn1514 Zn    0.50000   0.70660   0.21760   0.00000  Uiso   1.00
Zn1515 Zn    0.50000   0.79340   0.78240   0.00000  Uiso   1.00
Zn1516 Zn    0.79340   0.50000   0.21760   0.00000  Uiso   1.00
Zn1517 Zn    0.70660   0.50000   0.78240   0.00000  Uiso   1.00
Zn1518 Zn    0.50000   0.79340   0.21760   0.00000  Uiso   1.00
Zn1519 Zn    0.50000   0.70660   0.78240   0.00000  Uiso   1.00
Zn1520 Zn    0.95660   0.75000   0.71760   0.00000  Uiso   1.00
loop_
_geom_bond_atom_site_label_1
_geom_bond_atom_site_label_2
_geom_bond_distance
_geom_bond_site_symmetry_2
_ccdc_geom_bond_type
C1     C48     1.403   .     A
C1     H121    1.083   .     S
C1     C30     1.389   .     A
C2     C53     1.403   .     A
C2     C40     1.389   .     A
C2     H122    1.083   .     S
C3     C103    1.423   .     A
C3     C96     1.422   .     A
C3     C67     1.468   .     S
C4     C68     1.457   .     S
C4     C106    1.413   .     A
C4     C95     1.413   .     A
C5     C105    1.426   .     A
C5     C94     1.426   .     A
C5     C69     1.472   .     S
C6     C93     1.416   .     A
C6     C70     1.462   .     S
C6     C108    1.416   .     A
C7     C92     1.422   .     A
C7     C107    1.423   .     A
C7     C71     1.468   .     S
C8     C81     1.462   .     S
C8     C111    1.416   .     A
C8     C91     1.416   .     A
C9     C90     1.423   .     A
C9     C82     1.468   .     S
C9     C109    1.422   .     A
C10    C113    1.413   .     A
C10    C89     1.413   .     A
C10    C74     1.457   .     S
C11    C112    1.426   .     A
C11    C87     1.426   .     A
C11    C75     1.472   .     S
C12    C115    1.416   .     A
C12    C86     1.416   .     A
C12    C76     1.462   .     S
C13    C41     1.389   .     A
C13    H123    1.083   .     S
C13    C814    1.403   .     S
C14    C114    1.422   .     A
C14    C85     1.423   .     A
C14    C78     1.468   .     S
C15    C84     1.413   .     A
C15    C79     1.457   .     S
C15    C117    1.413   .     A
C16    C80     1.472   .     S
C16    C116    1.426   .     A
C16    C83     1.426   .     A
C17    C30     1.401   .     A
C17    C64     1.457   .     S
C17    C795    1.401   1_545 S
C18    C31     1.402   .     A
C18    C63     1.458   .     S
C18    C796    1.402   1_545 S
C19    C32     1.401   .     A
C19    C62     1.458   .     S
C19    C417    1.401   1_455 S
C20    C34     1.401   .     A
C20    C61     1.457   .     S
C20    C418    1.401   1_455 S
C21    C43     1.401   .     A
C21    C419    1.401   1_455 S
C21    C60     1.457   .     S
C22    C59     1.458   .     S
C22    C40     1.402   .     A
C22    C425    1.402   1_455 S
C23    C46     1.401   .     A
C23    C58     1.458   .     S
C23    C801    1.401   1_545 S
C24    C56     1.403   .     A
C24    C42     1.389   .     A
C24    H124    1.083   .     S
C25    C57     1.457   .     S
C25    C42     1.401   .     A
C25    C807    1.401   1_545 S
C26    H125    1.083   .     S
C26    C43     1.389   .     A
C26    C52     1.403   .     A
C27    H126    1.083   .     S
C27    C45     1.389   .     A
C27    C433    1.403   .     S
C28    C54     1.403   .     A
C28    C46     1.389   .     A
C28    H127    1.083   .     S
C29    C47     1.389   .     A
C29    H128    1.083   .     S
C29    C816    1.403   .     S
C30    H129    1.084   .     S
C31    H130    1.083   .     S
C31    C33     1.389   .     A
C32    H131    1.083   .     S
C32    C44     1.389   .     A
C33    H132    1.083   .     S
C33    C49     1.403   .     A
C34    C55     1.389   .     A
C34    H133    1.083   .     S
C35    H134    1.084   .     S
C35    C66     1.389   .     A
C35    C777    1.401   .     S
C36    H135    1.083   .     S
C36    C77     1.389   .     A
C36    C778    1.402   .     S
C37    C88     1.389   .     A
C37    H136    1.083   .     S
C37    C399    1.401   .     S
C38    C99     1.389   .     A
C38    H137    1.083   .     S
C38    C400    1.401   .     S
C39    H138    1.084   .     S
C39    C110    1.389   .     A
C39    C401    1.401   .     S
C40    H139    1.083   .     S
C41    H140    1.083   .     S
C41    C783    1.401   .     S
C42    H141    1.083   .     S
C43    H142    1.084   .     S
C44    H143    1.083   .     S
C44    C50     1.403   .     S
C45    H144    1.083   .     S
C45    C402    1.402   .     S
C46    H145    1.083   .     S
C47    H146    1.083   .     S
C47    C785    1.401   .     S
C48    C49     1.468   1_554 S
C48    C826    1.403   1_545 S
C49    C48     1.468   1_556 S
C49    C837    1.403   1_545 S
C50    C468    1.403   1_455 A
C50    C51     1.468   1_554 S
C51    C55     1.403   .     A
C51    C50     1.468   1_556 S
C51    C479    1.403   1_455 S
C52    C53     1.468   .     S
C52    C490    1.403   1_455 S
C53    C407    1.403   1_455 S
C54    C56     1.468   .     S
C54    C773    1.403   1_545 S
C55    H154    1.083   .     S
C56    C789    1.403   1_545 S
C57    O322    1.284   .     A
C57    O1038   1.284   1_545 S
C58    O289    1.284   .     A
C58    O946    1.284   1_545 S
C59    O300    1.284   .     A
C59    O577    1.284   1_455 S
C60    O691    1.284   1_455 A
C60    O208    1.284   .     S
C61    O219    1.284   .     A
C61    O242    1.284   .     S
C62    O243    1.284   .     A
C62    O230    1.284   .     S
C63    O244    1.284   .     A
C63    O240    1.284   .     A
C64    O241    1.284   .     A
C64    O246    1.284   .     A
C65    C120    1.462   .     S
C65    O275    1.281   .     A
C65    O247    1.281   .     A
C66    H165    1.083   .     S
C66    C808    1.403   .     S
C67    O276    1.283   .     A
C67    O248    1.283   .     A
C68    O249    1.280   .     A
C68    O273    1.279   .     A
C69    O274    1.284   .     A
C69    O250    1.284   .     A
C70    O280    1.281   .     A
C70    O251    1.281   .     A
C71    O281    1.283   .     A
C71    O252    1.283   .     A
C72    O253    1.280   .     A
C72    C118    1.457   .     S
C72    O277    1.279   .     A
C73    C119    1.472   .     S
C73    O254    1.284   .     A
C73    O279    1.284   .     A
C74    O255    1.279   .     A
C74    O266    1.280   .     A
C75    O257    1.284   .     A
C75    O268    1.284   .     A
C76    O264    1.281   .     A
C76    O258    1.281   .     A
C77    H176    1.083   .     S
C77    C809    1.403   .     S
C78    O259    1.283   .     A
C78    O265    1.283   .     A
C79    O271    1.280   .     A
C79    O260    1.279   .     A
C80    O272    1.284   .     A
C80    O261    1.284   .     A
C81    O269    1.281   .     A
C81    O262    1.281   .     A
C82    O270    1.283   .     A
C82    O263    1.283   .     A
C83    C100    1.395   .     A
C83    S333    1.790   .     S
C84    S344    1.786   .     S
C84    C98     1.395   .     A
C85    C97     1.395   .     A
C85    S355    1.788   .     S
C86    S359    1.787   .     S
C86    C96     1.395   .     A
C87    C95     1.395   .     A
C87    S360    1.790   .     S
C88    H182    1.083   .     S
C88    C430    1.403   .     A
C89    C94     1.395   .     A
C89    S361    1.786   .     S
C90    C93     1.395   .     A
C90    S362    1.788   .     S
C91    C92     1.395   .     A
C91    S363    1.787   .     S
C92    S364    1.788   .     S
C93    S334    1.787   .     S
C94    S335    1.790   .     S
C95    S336    1.787   .     S
C96    S337    1.788   .     S
C97    S338    1.787   .     S
C97    C120    1.416   .     A
C98    S339    1.790   .     S
C98    C119    1.426   .     A
C99    H183    1.083   .     S
C99    C431    1.403   .     S
C100   S340    1.787   .     S
C100   C118    1.413   .     A
C101   S341    1.790   .     S
C101   C117    1.395   .     A
C101   C119    1.426   .     A
C102   S342    1.786   .     S
C102   C118    1.413   .     A
C102   C116    1.395   .     A
C103   C115    1.395   .     A
C103   S343    1.788   .     S
C104   S345    1.787   .     S
C104   C120    1.416   .     A
C104   C114    1.395   .     A
C105   C113    1.395   .     A
C105   S346    1.790   .     S
C106   C112    1.395   .     A
C106   S347    1.786   .     S
C107   S348    1.788   .     S
C107   C111    1.395   .     A
C108   C109    1.395   .     A
C108   S349    1.787   .     S
C109   S350    1.788   .     S
C110   H184    1.083   .     S
C110   C432    1.403   .     S
C111   S351    1.787   .     S
C112   S352    1.790   .     S
C113   S353    1.787   .     S
C114   S354    1.788   .     S
C115   S356    1.787   .     S
C116   S357    1.790   .     S
C117   S358    1.787   .     S
H147   O284    0.990   .     S
H148   O287    0.990   .     S
H149   O671    0.991   .     S
H150   O294    0.991   .     S
H151   O297    0.990   .     S
H152   O301    0.990   .     S
H153   O684    0.991   1_455 S
H155   O307    0.991   .     S
H156   O1070   0.991   .     S
H157   O314    0.991   .     S
H158   O317    0.991   .     S
H159   O320    0.991   .     S
H160   O1084   0.991   1_545 S
H161   O327    0.991   .     S
H162   O330    0.991   .     S
H163   O187    0.991   .     S
H164   O190    0.990   .     S
H166   O193    0.990   .     S
H167   O196    0.991   .     S
H168   O200    0.991   .     S
H169   O203    0.990   .     S
H170   O206    0.990   .     S
H171   O210    0.991   .     S
H172   O213    0.991   .     S
H173   O216    0.991   .     S
H174   O220    0.991   .     S
H175   O223    0.991   .     S
H177   O226    0.991   .     S
H178   O229    0.991   .     S
H179   O233    0.991   .     S
H180   O236    0.991   .     S
H181   O239    0.991   .     S
O185   Zn365   1.950   .     S
O185   Zn376   1.950   .     S
O185   Zn368   1.949   .     S
O185   Zn1132  1.949   1_545 S
O186   Zn367   1.934   .     S
O186   C818    1.284   .     S
O187   S340    1.683   .     S
O188   S341    1.503   .     D
O189   S341    1.503   .     D
O190   S341    1.683   .     S
O191   S342    1.503   .     D
O192   S342    1.503   .     D
O193   S342    1.683   .     S
O194   S343    1.504   .     D
O195   S343    1.503   .     D
O196   S343    1.683   .     S
O197   Zn370   1.934   .     S
O197   C439    1.284   .     S
O198   S345    1.503   .     D
O199   S345    1.503   .     D
O200   S345    1.683   .     S
O201   S346    1.503   .     D
O202   S346    1.503   .     D
O203   S346    1.683   .     S
O204   S347    1.503   .     D
O205   S347    1.503   .     D
O206   S347    1.683   .     S
O207   S348    1.504   .     D
O208   Zn369   1.934   .     S
O209   S348    1.503   .     D
O210   S348    1.683   .     S
O211   S349    1.503   .     D
O212   S349    1.503   .     D
O213   S349    1.683   .     S
O214   S350    1.504   .     D
O215   S350    1.503   .     D
O216   S350    1.683   .     S
O217   S351    1.503   .     D
O218   S351    1.503   .     D
O219   Zn379   1.934   .     S
O220   S351    1.683   .     S
O221   S352    1.503   .     D
O222   S352    1.503   .     D
O223   S352    1.683   .     S
O224   S353    1.504   .     D
O225   S353    1.503   .     D
O226   S353    1.683   .     S
O227   S354    1.504   .     D
O228   S354    1.503   .     D
O229   S354    1.683   .     S
O230   Zn378   1.934   .     S
O231   S356    1.503   .     D
O232   S356    1.503   .     D
O233   S356    1.683   .     S
O234   S357    1.503   .     D
O235   S357    1.503   .     D
O236   S357    1.683   .     S
O237   S358    1.504   .     D
O238   S358    1.503   .     D
O239   S358    1.683   .     S
O240   Zn373   1.934   .     S
O241   Zn365   1.934   .     S
O242   Zn375   1.934   .     S
O243   Zn374   1.934   .     S
O244   Zn377   1.934   .     S
O245   Zn371   1.949   .     S
O245   Zn377   1.950   .     S
O245   Zn373   1.950   .     S
O245   Zn1127  1.949   1_545 S
O246   Zn376   1.934   .     S
O247   Zn368   1.946   .     S
O248   Zn367   1.946   .     S
O249   Zn370   1.945   .     S
O250   Zn369   1.945   .     S
O251   Zn372   1.946   .     S
O252   Zn371   1.946   .     S
O253   Zn366   1.945   .     S
O254   Zn380   1.945   .     S
O255   Zn367   1.945   .     S
O256   Zn366   1.950   .     S
O256   Zn378   1.949   .     S
O256   Zn374   1.949   .     S
O256   Zn750   1.950   1_455 S
O257   Zn368   1.945   .     S
O258   Zn380   1.946   .     S
O259   Zn366   1.946   .     S
O260   Zn371   1.945   .     S
O261   Zn372   1.945   .     S
O262   Zn369   1.946   .     S
O263   Zn370   1.946   .     S
O264   Zn755   1.946   .     S
O265   Zn374   1.946   .     S
O266   Zn1137  1.945   .     S
O267   Zn379   1.949   .     S
O267   Zn375   1.949   .     S
O267   Zn369   1.950   .     S
O267   Zn760   1.950   1_455 S
O268   Zn376   1.945   .     S
O269   Zn379   1.946   .     S
O270   Zn758   1.946   .     S
O271   Zn373   1.945   .     S
O272   Zn1125  1.945   .     S
O273   Zn754   1.945   .     S
O274   Zn375   1.945   .     S
O275   Zn365   1.946   .     S
O276   Zn1133  1.946   .     S
O277   Zn378   1.945   .     S
O278   Zn372   1.934   .     S
O278   C817    1.284   .     S
O279   Zn759   1.945   .     S
O280   Zn1136  1.946   .     S
O281   Zn377   1.946   .     S
O282   S333    1.503   .     D
O283   S333    1.503   .     D
O284   S333    1.683   .     S
O285   S344    1.503   .     D
O286   S344    1.503   .     D
O287   S344    1.683   .     S
O288   S355    1.504   .     D
O289   Zn371   1.934   .     S
O290   S355    1.503   .     D
O291   S355    1.683   .     S
O291   H529    0.991   1_455 S
O292   S359    1.503   .     D
O293   S359    1.503   .     D
O294   S359    1.683   .     S
O295   S360    1.503   .     D
O296   S360    1.503   .     D
O297   S360    1.683   .     S
O298   S361    1.503   .     D
O299   S361    1.503   .     D
O300   Zn366   1.934   .     S
O301   S361    1.683   .     S
O302   S362    1.504   .     D
O303   S362    1.503   .     D
O304   S362    1.683   .     S
O304   H533    0.991   .     S
O305   S363    1.503   .     D
O306   S363    1.503   .     D
O307   S363    1.683   .     S
O308   S364    1.504   .     D
O309   S364    1.503   .     D
O310   S364    1.683   .     S
O310   H916    0.991   1_545 S
O311   C440    1.284   .     A
O311   Zn380   1.934   .     S
O312   S334    1.503   .     D
O313   S334    1.503   .     D
O314   S334    1.683   .     S
O315   S335    1.503   .     D
O316   S335    1.503   .     D
O317   S335    1.683   .     S
O318   S336    1.504   .     D
O319   S336    1.503   .     D
O320   S336    1.683   .     S
O321   S337    1.504   .     D
O322   Zn368   1.934   .     S
O323   S337    1.503   .     D
O324   S337    1.683   .     S
O324   H920    0.991   .     S
O325   S338    1.503   .     D
O326   S338    1.503   .     D
O327   S338    1.683   .     S
O328   S339    1.503   .     D
O329   S339    1.503   .     D
O330   S339    1.683   .     S
O331   S340    1.504   .     D
O332   S340    1.503   .     D
Zn365  O1032   1.945   1_545 S
Zn367  O1005   1.949   .     S
Zn370  O636    1.950   .     S
Zn372  O945    1.949   .     S
Zn373  O1036   1.946   1_545 S
Zn374  O653    1.945   1_455 S
Zn375  O644    1.946   1_455 S
Zn376  O1040   1.946   1_545 S
Zn377  O1026   1.945   1_545 S
Zn378  O650    1.946   1_455 S
Zn379  O659    1.945   1_455 S
Zn380  O647    1.950   .     S
C381   C428    1.403   .     A
C381   H501    1.083   .     S
C381   C410    1.389   .     A
C382   C433    1.403   .     A
C382   C420    1.389   .     A
C382   H502    1.083   .     S
C383   C483    1.423   .     A
C383   C476    1.422   .     A
C383   C447    1.468   .     S
C384   C448    1.457   .     S
C384   C486    1.413   .     A
C384   C475    1.413   .     A
C385   C485    1.426   .     A
C385   C474    1.426   .     A
C385   C449    1.472   .     S
C386   C473    1.416   .     A
C386   C450    1.462   .     S
C386   C488    1.416   .     A
C387   C472    1.422   .     A
C387   C487    1.423   .     A
C387   C451    1.468   .     S
C388   C461    1.462   .     S
C388   C491    1.416   .     A
C388   C471    1.416   .     A
C389   C470    1.423   .     A
C389   C462    1.468   .     S
C389   C489    1.422   .     A
C390   C493    1.413   .     A
C390   C469    1.413   .     A
C390   C454    1.457   .     S
C391   C492    1.426   .     A
C391   C467    1.426   .     A
C391   C455    1.472   .     S
C392   C495    1.416   .     A
C392   C466    1.416   .     A
C392   C456    1.462   .     S
C393   C421    1.389   .     A
C393   H503    1.083   .     S
C393   C1194   1.403   .     S
C394   C494    1.422   .     A
C394   C465    1.423   .     A
C394   C458    1.468   .     S
C395   C464    1.413   .     A
C395   C459    1.457   .     S
C395   C497    1.413   .     A
C396   C460    1.472   .     S
C396   C496    1.426   .     A
C396   C463    1.426   .     A
C397   C410    1.401   .     A
C397   C444    1.457   .     S
C397   C1175   1.401   1_545 S
C398   C411    1.402   .     A
C398   C443    1.458   .     S
C398   C1176   1.402   1_545 S
C399   C412    1.401   .     A
C399   C442    1.458   .     S
C400   C414    1.401   .     A
C400   C441    1.457   .     S
C401   C423    1.401   .     A
C401   C440    1.457   .     S
C402   C439    1.458   .     S
C402   C420    1.402   .     A
C403   C426    1.401   .     A
C403   C438    1.458   .     S
C403   C1181   1.401   1_545 S
C404   C436    1.403   .     A
C404   C422    1.389   .     A
C404   H504    1.083   .     S
C405   C437    1.457   .     S
C405   C422    1.401   .     A
C405   C1187   1.401   1_545 S
C406   H505    1.083   .     S
C406   C423    1.389   .     A
C406   C432    1.403   .     A
C407   H506    1.083   .     S
C407   C425    1.389   .     A
C407   C53     1.403   1_655 S
C408   C434    1.403   .     A
C408   C426    1.389   .     A
C408   H507    1.083   .     S
C409   C427    1.389   .     A
C409   H508    1.083   .     S
C409   C1196   1.403   .     S
C410   H509    1.084   .     S
C411   H510    1.083   .     S
C411   C413    1.389   .     A
C412   H511    1.083   .     S
C412   C424    1.389   .     A
C413   H512    1.083   .     S
C413   C429    1.403   .     A
C414   C435    1.389   .     A
C414   H513    1.083   .     S
C415   H514    1.084   .     S
C415   C446    1.389   .     A
C415   C1157   1.401   .     S
C416   H515    1.083   .     S
C416   C457    1.389   .     A
C416   C1158   1.402   .     S
C417   C468    1.389   .     A
C417   H516    1.083   .     S
C417   C19     1.401   1_655 S
C418   C479    1.389   .     A
C418   H517    1.083   .     S
C418   C20     1.401   1_655 S
C419   H518    1.084   .     S
C419   C490    1.389   .     A
C419   C21     1.401   1_655 S
C420   H519    1.083   .     S
C421   H520    1.083   .     S
C421   C1163   1.401   .     S
C422   H521    1.083   .     S
C423   H522    1.084   .     S
C424   H523    1.083   .     S
C424   C430    1.403   .     S
C425   H524    1.083   .     S
C425   C22     1.402   1_655 S
C426   H525    1.083   .     S
C427   H526    1.083   .     S
C427   C1165   1.401   .     S
C428   C429    1.468   1_554 S
C428   C1206   1.403   1_545 S
C429   C428    1.468   1_556 S
C429   C1217   1.403   1_545 S
C430   C431    1.468   1_554 S
C431   C435    1.403   .     A
C431   C430    1.468   1_556 S
C432   C433    1.468   .     S
C434   C436    1.468   .     S
C434   C1153   1.403   1_545 S
C435   H534    1.083   .     S
C436   C1169   1.403   1_545 S
C437   O702    1.284   .     A
C437   O1418   1.284   1_545 S
C438   O669    1.284   .     A
C438   O1326   1.284   1_545 S
C439   O680    1.284   .     A
C440   O588    1.284   .     S
C441   O599    1.284   .     A
C441   O622    1.284   .     S
C442   O623    1.284   .     A
C442   O610    1.284   .     S
C443   O624    1.284   .     A
C443   O620    1.284   .     A
C444   O621    1.284   .     A
C444   O626    1.284   .     A
C445   C500    1.462   .     S
C445   O655    1.281   .     A
C445   O627    1.281   .     A
C446   H545    1.083   .     S
C446   C1188   1.403   .     S
C447   O656    1.283   .     A
C447   O628    1.283   .     A
C448   O629    1.280   .     A
C448   O653    1.279   .     A
C449   O654    1.284   .     A
C449   O630    1.284   .     A
C450   O660    1.281   .     A
C450   O631    1.281   .     A
C451   O661    1.283   .     A
C451   O632    1.283   .     A
C452   O633    1.280   .     A
C452   C498    1.457   .     S
C452   O657    1.279   .     A
C453   C499    1.472   .     S
C453   O634    1.284   .     A
C453   O659    1.284   .     A
C454   O635    1.279   .     A
C454   O646    1.280   .     A
C455   O637    1.284   .     A
C455   O648    1.284   .     A
C456   O644    1.281   .     A
C456   O638    1.281   .     A
C457   H556    1.083   .     S
C457   C1189   1.403   .     S
C458   O639    1.283   .     A
C458   O645    1.283   .     A
C459   O651    1.280   .     A
C459   O640    1.279   .     A
C460   O652    1.284   .     A
C460   O641    1.284   .     A
C461   O649    1.281   .     A
C461   O642    1.281   .     A
C462   O650    1.283   .     A
C462   O643    1.283   .     A
C463   C480    1.395   .     A
C463   S713    1.790   .     S
C464   S724    1.786   .     S
C464   C478    1.395   .     A
C465   C477    1.395   .     A
C465   S735    1.788   .     S
C466   S739    1.787   .     S
C466   C476    1.395   .     A
C467   C475    1.395   .     A
C467   S740    1.790   .     S
C468   H562    1.083   .     S
C468   C50     1.403   1_655 A
C469   C474    1.395   .     A
C469   S741    1.786   .     S
C470   C473    1.395   .     A
C470   S742    1.788   .     S
C471   C472    1.395   .     A
C471   S743    1.787   .     S
C472   S744    1.788   .     S
C473   S714    1.787   .     S
C474   S715    1.790   .     S
C475   S716    1.787   .     S
C476   S717    1.788   .     S
C477   S718    1.787   .     S
C477   C500    1.416   .     A
C478   S719    1.790   .     S
C478   C499    1.426   .     A
C479   H563    1.083   .     S
C479   C51     1.403   1_655 S
C480   S720    1.787   .     S
C480   C498    1.413   .     A
C481   S721    1.790   .     S
C481   C497    1.395   .     A
C481   C499    1.426   .     A
C482   S722    1.786   .     S
C482   C498    1.413   .     A
C482   C496    1.395   .     A
C483   C495    1.395   .     A
C483   S723    1.788   .     S
C484   S725    1.787   .     S
C484   C500    1.416   .     A
C484   C494    1.395   .     A
C485   C493    1.395   .     A
C485   S726    1.790   .     S
C486   C492    1.395   .     A
C486   S727    1.786   .     S
C487   S728    1.788   .     S
C487   C491    1.395   .     A
C488   C489    1.395   .     A
C488   S729    1.787   .     S
C489   S730    1.788   .     S
C490   H564    1.083   .     S
C490   C52     1.403   1_655 S
C491   S731    1.787   .     S
C492   S732    1.790   .     S
C493   S733    1.787   .     S
C494   S734    1.788   .     S
C495   S736    1.787   .     S
C496   S737    1.790   .     S
C497   S738    1.787   .     S
H527   O664    0.990   .     S
H528   O667    0.990   .     S
H529   O291    0.991   1_655 S
H530   O674    0.991   .     S
H531   O677    0.990   .     S
H532   O681    0.990   .     S
H535   O687    0.991   .     S
H536   O1450   0.991   .     S
H537   O694    0.991   .     S
H538   O697    0.991   .     S
H539   O700    0.991   .     S
H540   O1464   0.991   1_545 S
H541   O707    0.991   .     S
H542   O710    0.991   .     S
H543   O567    0.991   .     S
H544   O570    0.990   .     S
H546   O573    0.990   .     S
H547   O576    0.991   .     S
H548   O580    0.991   .     S
H549   O583    0.990   .     S
H550   O586    0.990   .     S
H551   O590    0.991   .     S
H552   O593    0.991   .     S
H553   O596    0.991   .     S
H554   O600    0.991   .     S
H555   O603    0.991   .     S
H557   O606    0.991   .     S
H558   O609    0.991   .     S
H559   O613    0.991   .     S
H560   O616    0.991   .     S
H561   O619    0.991   .     S
O565   Zn745   1.950   .     S
O565   Zn756   1.950   .     S
O565   Zn748   1.949   .     S
O565   Zn1512  1.949   1_545 S
O566   Zn747   1.934   .     S
O566   C1198   1.284   .     S
O567   S720    1.683   .     S
O568   S721    1.503   .     D
O569   S721    1.503   .     D
O570   S721    1.683   .     S
O571   S722    1.503   .     D
O572   S722    1.503   .     D
O573   S722    1.683   .     S
O574   S723    1.504   .     D
O575   S723    1.503   .     D
O576   S723    1.683   .     S
O577   Zn750   1.934   .     S
O577   C59     1.284   1_655 S
O578   S725    1.503   .     D
O579   S725    1.503   .     D
O580   S725    1.683   .     S
O581   S726    1.503   .     D
O582   S726    1.503   .     D
O583   S726    1.683   .     S
O584   S727    1.503   .     D
O585   S727    1.503   .     D
O586   S727    1.683   .     S
O587   S728    1.504   .     D
O588   Zn749   1.934   .     S
O589   S728    1.503   .     D
O590   S728    1.683   .     S
O591   S729    1.503   .     D
O592   S729    1.503   .     D
O593   S729    1.683   .     S
O594   S730    1.504   .     D
O595   S730    1.503   .     D
O596   S730    1.683   .     S
O597   S731    1.503   .     D
O598   S731    1.503   .     D
O599   Zn759   1.934   .     S
O600   S731    1.683   .     S
O601   S732    1.503   .     D
O602   S732    1.503   .     D
O603   S732    1.683   .     S
O604   S733    1.504   .     D
O605   S733    1.503   .     D
O606   S733    1.683   .     S
O607   S734    1.504   .     D
O608   S734    1.503   .     D
O609   S734    1.683   .     S
O610   Zn758   1.934   .     S
O611   S736    1.503   .     D
O612   S736    1.503   .     D
O613   S736    1.683   .     S
O614   S737    1.503   .     D
O615   S737    1.503   .     D
O616   S737    1.683   .     S
O617   S738    1.504   .     D
O618   S738    1.503   .     D
O619   S738    1.683   .     S
O620   Zn753   1.934   .     S
O621   Zn745   1.934   .     S
O622   Zn755   1.934   .     S
O623   Zn754   1.934   .     S
O624   Zn757   1.934   .     S
O625   Zn751   1.949   .     S
O625   Zn757   1.950   .     S
O625   Zn753   1.950   .     S
O625   Zn1507  1.949   1_545 S
O626   Zn756   1.934   .     S
O627   Zn748   1.946   .     S
O628   Zn747   1.946   .     S
O629   Zn750   1.945   .     S
O630   Zn749   1.945   .     S
O631   Zn752   1.946   .     S
O632   Zn751   1.946   .     S
O633   Zn746   1.945   .     S
O634   Zn760   1.945   .     S
O635   Zn747   1.945   .     S
O636   Zn746   1.950   .     S
O636   Zn758   1.949   .     S
O636   Zn754   1.949   .     S
O637   Zn748   1.945   .     S
O638   Zn760   1.946   .     S
O639   Zn746   1.946   .     S
O640   Zn751   1.945   .     S
O641   Zn752   1.945   .     S
O642   Zn749   1.946   .     S
O643   Zn750   1.946   .     S
O644   Zn375   1.946   1_655 S
O645   Zn754   1.946   .     S
O646   Zn1517  1.945   .     S
O647   Zn759   1.949   .     S
O647   Zn755   1.949   .     S
O647   Zn749   1.950   .     S
O648   Zn756   1.945   .     S
O649   Zn759   1.946   .     S
O650   Zn378   1.946   1_655 S
O651   Zn753   1.945   .     S
O652   Zn1505  1.945   .     S
O653   Zn374   1.945   1_655 S
O654   Zn755   1.945   .     S
O655   Zn745   1.946   .     S
O656   Zn1513  1.946   .     S
O657   Zn758   1.945   .     S
O658   Zn752   1.934   .     S
O658   C1197   1.284   .     S
O659   Zn379   1.945   1_655 S
O660   Zn1516  1.946   .     S
O661   Zn757   1.946   .     S
O662   S713    1.503   .     D
O663   S713    1.503   .     D
O664   S713    1.683   .     S
O665   S724    1.503   .     D
O666   S724    1.503   .     D
O667   S724    1.683   .     S
O668   S735    1.504   .     D
O669   Zn751   1.934   .     S
O670   S735    1.503   .     D
O671   S735    1.683   .     S
O672   S739    1.503   .     D
O673   S739    1.503   .     D
O674   S739    1.683   .     S
O675   S740    1.503   .     D
O676   S740    1.503   .     D
O677   S740    1.683   .     S
O678   S741    1.503   .     D
O679   S741    1.503   .     D
O680   Zn746   1.934   .     S
O681   S741    1.683   .     S
O682   S742    1.504   .     D
O683   S742    1.503   .     D
O684   S742    1.683   .     S
O684   H153    0.991   1_655 S
O685   S743    1.503   .     D
O686   S743    1.503   .     D
O687   S743    1.683   .     S
O688   S744    1.504   .     D
O689   S744    1.503   .     D
O690   S744    1.683   .     S
O690   H1296   0.991   1_545 S
O691   C60     1.284   1_655 A
O691   Zn760   1.934   .     S
O692   S714    1.503   .     D
O693   S714    1.503   .     D
O694   S714    1.683   .     S
O695   S715    1.503   .     D
O696   S715    1.503   .     D
O697   S715    1.683   .     S
O698   S716    1.504   .     D
O699   S716    1.503   .     D
O700   S716    1.683   .     S
O701   S717    1.504   .     D
O702   Zn748   1.934   .     S
O703   S717    1.503   .     D
O704   S717    1.683   .     S
O704   H1300   0.991   .     S
O705   S718    1.503   .     D
O706   S718    1.503   .     D
O707   S718    1.683   .     S
O708   S719    1.503   .     D
O709   S719    1.503   .     D
O710   S719    1.683   .     S
O711   S720    1.504   .     D
O712   S720    1.503   .     D
Zn745  O1412   1.945   1_545 S
Zn747  O1385   1.949   .     S
Zn750  O256    1.950   1_655 S
Zn752  O1325   1.949   .     S
Zn753  O1416   1.946   1_545 S
Zn756  O1420   1.946   1_545 S
Zn757  O1406   1.945   1_545 S
Zn760  O267    1.950   1_655 S
C761   C808    1.403   .     A
C761   H881    1.083   .     S
C761   C790    1.389   .     A
C762   C813    1.403   .     A
C762   C800    1.389   .     A
C762   H882    1.083   .     S
C763   C863    1.423   .     A
C763   C856    1.422   .     A
C763   C827    1.468   .     S
C764   C828    1.457   .     S
C764   C866    1.413   .     A
C764   C855    1.413   .     A
C765   C865    1.426   .     A
C765   C854    1.426   .     A
C765   C829    1.472   .     S
C766   C853    1.416   .     A
C766   C830    1.462   .     S
C766   C868    1.416   .     A
C767   C852    1.422   .     A
C767   C867    1.423   .     A
C767   C831    1.468   .     S
C768   C841    1.462   .     S
C768   C871    1.416   .     A
C768   C851    1.416   .     A
C769   C850    1.423   .     A
C769   C842    1.468   .     S
C769   C869    1.422   .     A
C770   C873    1.413   .     A
C770   C849    1.413   .     A
C770   C834    1.457   .     S
C771   C872    1.426   .     A
C771   C847    1.426   .     A
C771   C835    1.472   .     S
C772   C875    1.416   .     A
C772   C846    1.416   .     A
C772   C836    1.462   .     S
C773   C801    1.389   .     A
C773   H883    1.083   .     S
C773   C54     1.403   1_565 S
C774   C874    1.422   .     A
C774   C845    1.423   .     A
C774   C838    1.468   .     S
C775   C844    1.413   .     A
C775   C839    1.457   .     S
C775   C877    1.413   .     A
C776   C840    1.472   .     S
C776   C876    1.426   .     A
C776   C843    1.426   .     A
C777   C790    1.401   .     A
C777   C824    1.457   .     S
C778   C791    1.402   .     A
C778   C823    1.458   .     S
C779   C792    1.401   .     A
C779   C822    1.458   .     S
C779   C1177   1.401   1_455 S
C780   C794    1.401   .     A
C780   C821    1.457   .     S
C780   C1178   1.401   1_455 S
C781   C803    1.401   .     A
C781   C1179   1.401   1_455 S
C781   C820    1.457   .     S
C782   C819    1.458   .     S
C782   C800    1.402   .     A
C782   C1185   1.402   1_455 S
C783   C806    1.401   .     A
C783   C818    1.458   .     S
C784   C816    1.403   .     A
C784   C802    1.389   .     A
C784   H884    1.083   .     S
C785   C817    1.457   .     S
C785   C802    1.401   .     A
C786   H885    1.083   .     S
C786   C803    1.389   .     A
C786   C812    1.403   .     A
C787   H886    1.083   .     S
C787   C805    1.389   .     A
C787   C1193   1.403   .     S
C788   C814    1.403   .     A
C788   C806    1.389   .     A
C788   H887    1.083   .     S
C789   C807    1.389   .     A
C789   H888    1.083   .     S
C789   C56     1.403   1_565 S
C790   H889    1.084   .     S
C791   H890    1.083   .     S
C791   C793    1.389   .     A
C792   H891    1.083   .     S
C792   C804    1.389   .     A
C793   H892    1.083   .     S
C793   C809    1.403   .     A
C794   C815    1.389   .     A
C794   H893    1.083   .     S
C795   H894    1.084   .     S
C795   C826    1.389   .     A
C795   C17     1.401   1_565 S
C796   H895    1.083   .     S
C796   C837    1.389   .     A
C796   C18     1.402   1_565 S
C797   C848    1.389   .     A
C797   H896    1.083   .     S
C797   C1159   1.401   .     S
C798   C859    1.389   .     A
C798   H897    1.083   .     S
C798   C1160   1.401   .     S
C799   H898    1.084   .     S
C799   C870    1.389   .     A
C799   C1161   1.401   .     S
C800   H899    1.083   .     S
C801   H900    1.083   .     S
C801   C23     1.401   1_565 S
C802   H901    1.083   .     S
C803   H902    1.084   .     S
C804   H903    1.083   .     S
C804   C810    1.403   .     S
C805   H904    1.083   .     S
C805   C1162   1.402   .     S
C806   H905    1.083   .     S
C807   H906    1.083   .     S
C807   C25     1.401   1_565 S
C808   C809    1.468   1_554 S
C809   C808    1.468   1_556 S
C810   C1228   1.403   1_455 A
C810   C811    1.468   1_554 S
C811   C815    1.403   .     A
C811   C810    1.468   1_556 S
C811   C1239   1.403   1_455 S
C812   C813    1.468   .     S
C812   C1250   1.403   1_455 S
C813   C1167   1.403   1_455 S
C814   C816    1.468   .     S
C815   H914    1.083   .     S
C817   O1082   1.284   .     A
C818   O1049   1.284   .     A
C819   O1060   1.284   .     A
C819   O1337   1.284   1_455 S
C820   O1451   1.284   1_455 A
C820   O968    1.284   .     S
C821   O979    1.284   .     A
C821   O1002   1.284   .     S
C822   O1003   1.284   .     A
C822   O990    1.284   .     S
C823   O1004   1.284   .     A
C823   O1000   1.284   .     A
C824   O1001   1.284   .     A
C824   O1006   1.284   .     A
C825   C880    1.462   .     S
C825   O1035   1.281   .     A
C825   O1007   1.281   .     A
C826   H925    1.083   .     S
C826   C48     1.403   1_565 S
C827   O1036   1.283   .     A
C827   O1008   1.283   .     A
C828   O1009   1.280   .     A
C828   O1033   1.279   .     A
C829   O1034   1.284   .     A
C829   O1010   1.284   .     A
C830   O1040   1.281   .     A
C830   O1011   1.281   .     A
C831   O1041   1.283   .     A
C831   O1012   1.283   .     A
C832   O1013   1.280   .     A
C832   C878    1.457   .     S
C832   O1037   1.279   .     A
C833   C879    1.472   .     S
C833   O1014   1.284   .     A
C833   O1039   1.284   .     A
C834   O1015   1.279   .     A
C834   O1026   1.280   .     A
C835   O1017   1.284   .     A
C835   O1028   1.284   .     A
C836   O1024   1.281   .     A
C836   O1018   1.281   .     A
C837   H936    1.083   .     S
C837   C49     1.403   1_565 S
C838   O1019   1.283   .     A
C838   O1025   1.283   .     A
C839   O1031   1.280   .     A
C839   O1020   1.279   .     A
C840   O1032   1.284   .     A
C840   O1021   1.284   .     A
C841   O1029   1.281   .     A
C841   O1022   1.281   .     A
C842   O1030   1.283   .     A
C842   O1023   1.283   .     A
C843   C860    1.395   .     A
C843   S1093   1.790   .     S
C844   S1104   1.786   .     S
C844   C858    1.395   .     A
C845   C857    1.395   .     A
C845   S1115   1.788   .     S
C846   S1119   1.787   .     S
C846   C856    1.395   .     A
C847   C855    1.395   .     A
C847   S1120   1.790   .     S
C848   H942    1.083   .     S
C848   C1190   1.403   .     A
C849   C854    1.395   .     A
C849   S1121   1.786   .     S
C850   C853    1.395   .     A
C850   S1122   1.788   .     S
C851   C852    1.395   .     A
C851   S1123   1.787   .     S
C852   S1124   1.788   .     S
C853   S1094   1.787   .     S
C854   S1095   1.790   .     S
C855   S1096   1.787   .     S
C856   S1097   1.788   .     S
C857   S1098   1.787   .     S
C857   C880    1.416   .     A
C858   S1099   1.790   .     S
C858   C879    1.426   .     A
C859   H943    1.083   .     S
C859   C1191   1.403   .     S
C860   S1100   1.787   .     S
C860   C878    1.413   .     A
C861   S1101   1.790   .     S
C861   C877    1.395   .     A
C861   C879    1.426   .     A
C862   S1102   1.786   .     S
C862   C878    1.413   .     A
C862   C876    1.395   .     A
C863   C875    1.395   .     A
C863   S1103   1.788   .     S
C864   S1105   1.787   .     S
C864   C880    1.416   .     A
C864   C874    1.395   .     A
C865   C873    1.395   .     A
C865   S1106   1.790   .     S
C866   C872    1.395   .     A
C866   S1107   1.786   .     S
C867   S1108   1.788   .     S
C867   C871    1.395   .     A
C868   C869    1.395   .     A
C868   S1109   1.787   .     S
C869   S1110   1.788   .     S
C870   H944    1.083   .     S
C870   C1192   1.403   .     S
C871   S1111   1.787   .     S
C872   S1112   1.790   .     S
C873   S1113   1.787   .     S
C874   S1114   1.788   .     S
C875   S1116   1.787   .     S
C876   S1117   1.790   .     S
C877   S1118   1.787   .     S
H907   O1044   0.990   .     S
H908   O1047   0.990   .     S
H909   O1431   0.991   .     S
H910   O1054   0.991   .     S
H911   O1057   0.990   .     S
H912   O1061   0.990   .     S
H913   O1444   0.991   1_455 S
H915   O1067   0.991   .     S
H916   O310    0.991   1_565 S
H917   O1074   0.991   .     S
H918   O1077   0.991   .     S
H919   O1080   0.991   .     S
H921   O1087   0.991   .     S
H922   O1090   0.991   .     S
H923   O947    0.991   .     S
H924   O950    0.990   .     S
H926   O953    0.990   .     S
H927   O956    0.991   .     S
H928   O960    0.991   .     S
H929   O963    0.990   .     S
H930   O966    0.990   .     S
H931   O970    0.991   .     S
H932   O973    0.991   .     S
H933   O976    0.991   .     S
H934   O980    0.991   .     S
H935   O983    0.991   .     S
H937   O986    0.991   .     S
H938   O989    0.991   .     S
H939   O993    0.991   .     S
H940   O996    0.991   .     S
H941   O999    0.991   .     S
O945   Zn1125  1.950   .     S
O945   Zn1136  1.950   .     S
O945   Zn1128  1.949   .     S
O946   Zn1127  1.934   .     S
O946   C58     1.284   1_565 S
O947   S1100   1.683   .     S
O948   S1101   1.503   .     D
O949   S1101   1.503   .     D
O950   S1101   1.683   .     S
O951   S1102   1.503   .     D
O952   S1102   1.503   .     D
O953   S1102   1.683   .     S
O954   S1103   1.504   .     D
O955   S1103   1.503   .     D
O956   S1103   1.683   .     S
O957   Zn1130  1.934   .     S
O957   C1199   1.284   .     S
O958   S1105   1.503   .     D
O959   S1105   1.503   .     D
O960   S1105   1.683   .     S
O961   S1106   1.503   .     D
O962   S1106   1.503   .     D
O963   S1106   1.683   .     S
O964   S1107   1.503   .     D
O965   S1107   1.503   .     D
O966   S1107   1.683   .     S
O967   S1108   1.504   .     D
O968   Zn1129  1.934   .     S
O969   S1108   1.503   .     D
O970   S1108   1.683   .     S
O971   S1109   1.503   .     D
O972   S1109   1.503   .     D
O973   S1109   1.683   .     S
O974   S1110   1.504   .     D
O975   S1110   1.503   .     D
O976   S1110   1.683   .     S
O977   S1111   1.503   .     D
O978   S1111   1.503   .     D
O979   Zn1139  1.934   .     S
O980   S1111   1.683   .     S
O981   S1112   1.503   .     D
O982   S1112   1.503   .     D
O983   S1112   1.683   .     S
O984   S1113   1.504   .     D
O985   S1113   1.503   .     D
O986   S1113   1.683   .     S
O987   S1114   1.504   .     D
O988   S1114   1.503   .     D
O989   S1114   1.683   .     S
O990   Zn1138  1.934   .     S
O991   S1116   1.503   .     D
O992   S1116   1.503   .     D
O993   S1116   1.683   .     S
O994   S1117   1.503   .     D
O995   S1117   1.503   .     D
O996   S1117   1.683   .     S
O997   S1118   1.504   .     D
O998   S1118   1.503   .     D
O999   S1118   1.683   .     S
O1000  Zn1133  1.934   .     S
O1001  Zn1125  1.934   .     S
O1002  Zn1135  1.934   .     S
O1003  Zn1134  1.934   .     S
O1004  Zn1137  1.934   .     S
O1005  Zn1131  1.949   .     S
O1005  Zn1137  1.950   .     S
O1005  Zn1133  1.950   .     S
O1006  Zn1136  1.934   .     S
O1007  Zn1128  1.946   .     S
O1008  Zn1127  1.946   .     S
O1009  Zn1130  1.945   .     S
O1010  Zn1129  1.945   .     S
O1011  Zn1132  1.946   .     S
O1012  Zn1131  1.946   .     S
O1013  Zn1126  1.945   .     S
O1014  Zn1140  1.945   .     S
O1015  Zn1127  1.945   .     S
O1016  Zn1126  1.950   .     S
O1016  Zn1138  1.949   .     S
O1016  Zn1134  1.949   .     S
O1016  Zn1510  1.950   1_455 S
O1017  Zn1128  1.945   .     S
O1018  Zn1140  1.946   .     S
O1019  Zn1126  1.946   .     S
O1020  Zn1131  1.945   .     S
O1021  Zn1132  1.945   .     S
O1022  Zn1129  1.946   .     S
O1023  Zn1130  1.946   .     S
O1024  Zn1515  1.946   .     S
O1025  Zn1134  1.946   .     S
O1026  Zn377   1.945   1_565 S
O1027  Zn1139  1.949   .     S
O1027  Zn1135  1.949   .     S
O1027  Zn1129  1.950   .     S
O1027  Zn1520  1.950   1_455 S
O1028  Zn1136  1.945   .     S
O1029  Zn1139  1.946   .     S
O1030  Zn1518  1.946   .     S
O1031  Zn1133  1.945   .     S
O1032  Zn365   1.945   1_565 S
O1033  Zn1514  1.945   .     S
O1034  Zn1135  1.945   .     S
O1035  Zn1125  1.946   .     S
O1036  Zn373   1.946   1_565 S
O1037  Zn1138  1.945   .     S
O1038  Zn1132  1.934   .     S
O1038  C57     1.284   1_565 S
O1039  Zn1519  1.945   .     S
O1040  Zn376   1.946   1_565 S
O1041  Zn1137  1.946   .     S
O1042  S1093   1.503   .     D
O1043  S1093   1.503   .     D
O1044  S1093   1.683   .     S
O1045  S1104   1.503   .     D
O1046  S1104   1.503   .     D
O1047  S1104   1.683   .     S
O1048  S1115   1.504   .     D
O1049  Zn1131  1.934   .     S
O1050  S1115   1.503   .     D
O1051  S1115   1.683   .     S
O1051  H1289   0.991   1_455 S
O1052  S1119   1.503   .     D
O1053  S1119   1.503   .     D
O1054  S1119   1.683   .     S
O1055  S1120   1.503   .     D
O1056  S1120   1.503   .     D
O1057  S1120   1.683   .     S
O1058  S1121   1.503   .     D
O1059  S1121   1.503   .     D
O1060  Zn1126  1.934   .     S
O1061  S1121   1.683   .     S
O1062  S1122   1.504   .     D
O1063  S1122   1.503   .     D
O1064  S1122   1.683   .     S
O1064  H1293   0.991   .     S
O1065  S1123   1.503   .     D
O1066  S1123   1.503   .     D
O1067  S1123   1.683   .     S
O1068  S1124   1.504   .     D
O1069  S1124   1.503   .     D
O1070  S1124   1.683   .     S
O1071  C1200   1.284   .     A
O1071  Zn1140  1.934   .     S
O1072  S1094   1.503   .     D
O1073  S1094   1.503   .     D
O1074  S1094   1.683   .     S
O1075  S1095   1.503   .     D
O1076  S1095   1.503   .     D
O1077  S1095   1.683   .     S
O1078  S1096   1.504   .     D
O1079  S1096   1.503   .     D
O1080  S1096   1.683   .     S
O1081  S1097   1.504   .     D
O1082  Zn1128  1.934   .     S
O1083  S1097   1.503   .     D
O1084  S1097   1.683   .     S
O1084  H160    0.991   1_565 S
O1085  S1098   1.503   .     D
O1086  S1098   1.503   .     D
O1087  S1098   1.683   .     S
O1088  S1099   1.503   .     D
O1089  S1099   1.503   .     D
O1090  S1099   1.683   .     S
O1091  S1100   1.504   .     D
O1092  S1100   1.503   .     D
Zn1127 O245    1.949   1_565 S
Zn1130 O1396   1.950   .     S
Zn1132 O185    1.949   1_565 S
Zn1134 O1413   1.945   1_455 S
Zn1135 O1404   1.946   1_455 S
Zn1138 O1410   1.946   1_455 S
Zn1139 O1419   1.945   1_455 S
Zn1140 O1407   1.950   .     S
C1141  C1188   1.403   .     A
C1141  H1261   1.083   .     S
C1141  C1170   1.389   .     A
C1142  C1193   1.403   .     A
C1142  C1180   1.389   .     A
C1142  H1262   1.083   .     S
C1143  C1243   1.423   .     A
C1143  C1236   1.422   .     A
C1143  C1207   1.468   .     S
C1144  C1208   1.457   .     S
C1144  C1246   1.413   .     A
C1144  C1235   1.413   .     A
C1145  C1245   1.426   .     A
C1145  C1234   1.426   .     A
C1145  C1209   1.472   .     S
C1146  C1233   1.416   .     A
C1146  C1210   1.462   .     S
C1146  C1248   1.416   .     A
C1147  C1232   1.422   .     A
C1147  C1247   1.423   .     A
C1147  C1211   1.468   .     S
C1148  C1221   1.462   .     S
C1148  C1251   1.416   .     A
C1148  C1231   1.416   .     A
C1149  C1230   1.423   .     A
C1149  C1222   1.468   .     S
C1149  C1249   1.422   .     A
C1150  C1253   1.413   .     A
C1150  C1229   1.413   .     A
C1150  C1214   1.457   .     S
C1151  C1252   1.426   .     A
C1151  C1227   1.426   .     A
C1151  C1215   1.472   .     S
C1152  C1255   1.416   .     A
C1152  C1226   1.416   .     A
C1152  C1216   1.462   .     S
C1153  C1181   1.389   .     A
C1153  H1263   1.083   .     S
C1153  C434    1.403   1_565 S
C1154  C1254   1.422   .     A
C1154  C1225   1.423   .     A
C1154  C1218   1.468   .     S
C1155  C1224   1.413   .     A
C1155  C1219   1.457   .     S
C1155  C1257   1.413   .     A
C1156  C1220   1.472   .     S
C1156  C1256   1.426   .     A
C1156  C1223   1.426   .     A
C1157  C1170   1.401   .     A
C1157  C1204   1.457   .     S
C1158  C1171   1.402   .     A
C1158  C1203   1.458   .     S
C1159  C1172   1.401   .     A
C1159  C1202   1.458   .     S
C1160  C1174   1.401   .     A
C1160  C1201   1.457   .     S
C1161  C1183   1.401   .     A
C1161  C1200   1.457   .     S
C1162  C1199   1.458   .     S
C1162  C1180   1.402   .     A
C1163  C1186   1.401   .     A
C1163  C1198   1.458   .     S
C1164  C1196   1.403   .     A
C1164  C1182   1.389   .     A
C1164  H1264   1.083   .     S
C1165  C1197   1.457   .     S
C1165  C1182   1.401   .     A
C1166  H1265   1.083   .     S
C1166  C1183   1.389   .     A
C1166  C1192   1.403   .     A
C1167  H1266   1.083   .     S
C1167  C1185   1.389   .     A
C1167  C813    1.403   1_655 S
C1168  C1194   1.403   .     A
C1168  C1186   1.389   .     A
C1168  H1267   1.083   .     S
C1169  C1187   1.389   .     A
C1169  H1268   1.083   .     S
C1169  C436    1.403   1_565 S
C1170  H1269   1.084   .     S
C1171  H1270   1.083   .     S
C1171  C1173   1.389   .     A
C1172  H1271   1.083   .     S
C1172  C1184   1.389   .     A
C1173  H1272   1.083   .     S
C1173  C1189   1.403   .     A
C1174  C1195   1.389   .     A
C1174  H1273   1.083   .     S
C1175  H1274   1.084   .     S
C1175  C1206   1.389   .     A
C1175  C397    1.401   1_565 S
C1176  H1275   1.083   .     S
C1176  C1217   1.389   .     A
C1176  C398    1.402   1_565 S
C1177  C1228   1.389   .     A
C1177  H1276   1.083   .     S
C1177  C779    1.401   1_655 S
C1178  C1239   1.389   .     A
C1178  H1277   1.083   .     S
C1178  C780    1.401   1_655 S
C1179  H1278   1.084   .     S
C1179  C1250   1.389   .     A
C1179  C781    1.401   1_655 S
C1180  H1279   1.083   .     S
C1181  H1280   1.083   .     S
C1181  C403    1.401   1_565 S
C1182  H1281   1.083   .     S
C1183  H1282   1.084   .     S
C1184  H1283   1.083   .     S
C1184  C1190   1.403   .     S
C1185  H1284   1.083   .     S
C1185  C782    1.402   1_655 S
C1186  H1285   1.083   .     S
C1187  H1286   1.083   .     S
C1187  C405    1.401   1_565 S
C1188  C1189   1.468   1_554 S
C1189  C1188   1.468   1_556 S
C1190  C1191   1.468   1_554 S
C1191  C1195   1.403   .     A
C1191  C1190   1.468   1_556 S
C1192  C1193   1.468   .     S
C1194  C1196   1.468   .     S
C1195  H1294   1.083   .     S
C1197  O1462   1.284   .     A
C1198  O1429   1.284   .     A
C1199  O1440   1.284   .     A
C1200  O1348   1.284   .     S
C1201  O1359   1.284   .     A
C1201  O1382   1.284   .     S
C1202  O1383   1.284   .     A
C1202  O1370   1.284   .     S
C1203  O1384   1.284   .     A
C1203  O1380   1.284   .     A
C1204  O1381   1.284   .     A
C1204  O1386   1.284   .     A
C1205  C1260   1.462   .     S
C1205  O1415   1.281   .     A
C1205  O1387   1.281   .     A
C1206  H1305   1.083   .     S
C1206  C428    1.403   1_565 S
C1207  O1416   1.283   .     A
C1207  O1388   1.283   .     A
C1208  O1389   1.280   .     A
C1208  O1413   1.279   .     A
C1209  O1414   1.284   .     A
C1209  O1390   1.284   .     A
C1210  O1420   1.281   .     A
C1210  O1391   1.281   .     A
C1211  O1421   1.283   .     A
C1211  O1392   1.283   .     A
C1212  O1393   1.280   .     A
C1212  C1258   1.457   .     S
C1212  O1417   1.279   .     A
C1213  C1259   1.472   .     S
C1213  O1394   1.284   .     A
C1213  O1419   1.284   .     A
C1214  O1395   1.279   .     A
C1214  O1406   1.280   .     A
C1215  O1397   1.284   .     A
C1215  O1408   1.284   .     A
C1216  O1404   1.281   .     A
C1216  O1398   1.281   .     A
C1217  H1316   1.083   .     S
C1217  C429    1.403   1_565 S
C1218  O1399   1.283   .     A
C1218  O1405   1.283   .     A
C1219  O1411   1.280   .     A
C1219  O1400   1.279   .     A
C1220  O1412   1.284   .     A
C1220  O1401   1.284   .     A
C1221  O1409   1.281   .     A
C1221  O1402   1.281   .     A
C1222  O1410   1.283   .     A
C1222  O1403   1.283   .     A
C1223  C1240   1.395   .     A
C1223  S1473   1.790   .     S
C1224  S1484   1.786   .     S
C1224  C1238   1.395   .     A
C1225  C1237   1.395   .     A
C1225  S1495   1.788   .     S
C1226  S1499   1.787   .     S
C1226  C1236   1.395   .     A
C1227  C1235   1.395   .     A
C1227  S1500   1.790   .     S
C1228  H1322   1.083   .     S
C1228  C810    1.403   1_655 A
C1229  C1234   1.395   .     A
C1229  S1501   1.786   .     S
C1230  C1233   1.395   .     A
C1230  S1502   1.788   .     S
C1231  C1232   1.395   .     A
C1231  S1503   1.787   .     S
C1232  S1504   1.788   .     S
C1233  S1474   1.787   .     S
C1234  S1475   1.790   .     S
C1235  S1476   1.787   .     S
C1236  S1477   1.788   .     S
C1237  S1478   1.787   .     S
C1237  C1260   1.416   .     A
C1238  S1479   1.790   .     S
C1238  C1259   1.426   .     A
C1239  H1323   1.083   .     S
C1239  C811    1.403   1_655 S
C1240  S1480   1.787   .     S
C1240  C1258   1.413   .     A
C1241  S1481   1.790   .     S
C1241  C1257   1.395   .     A
C1241  C1259   1.426   .     A
C1242  S1482   1.786   .     S
C1242  C1258   1.413   .     A
C1242  C1256   1.395   .     A
C1243  C1255   1.395   .     A
C1243  S1483   1.788   .     S
C1244  S1485   1.787   .     S
C1244  C1260   1.416   .     A
C1244  C1254   1.395   .     A
C1245  C1253   1.395   .     A
C1245  S1486   1.790   .     S
C1246  C1252   1.395   .     A
C1246  S1487   1.786   .     S
C1247  S1488   1.788   .     S
C1247  C1251   1.395   .     A
C1248  C1249   1.395   .     A
C1248  S1489   1.787   .     S
C1249  S1490   1.788   .     S
C1250  H1324   1.083   .     S
C1250  C812    1.403   1_655 S
C1251  S1491   1.787   .     S
C1252  S1492   1.790   .     S
C1253  S1493   1.787   .     S
C1254  S1494   1.788   .     S
C1255  S1496   1.787   .     S
C1256  S1497   1.790   .     S
C1257  S1498   1.787   .     S
H1287  O1424   0.990   .     S
H1288  O1427   0.990   .     S
H1289  O1051   0.991   1_655 S
H1290  O1434   0.991   .     S
H1291  O1437   0.990   .     S
H1292  O1441   0.990   .     S
H1295  O1447   0.991   .     S
H1296  O690    0.991   1_565 S
H1297  O1454   0.991   .     S
H1298  O1457   0.991   .     S
H1299  O1460   0.991   .     S
H1301  O1467   0.991   .     S
H1302  O1470   0.991   .     S
H1303  O1327   0.991   .     S
H1304  O1330   0.990   .     S
H1306  O1333   0.990   .     S
H1307  O1336   0.991   .     S
H1308  O1340   0.991   .     S
H1309  O1343   0.990   .     S
H1310  O1346   0.990   .     S
H1311  O1350   0.991   .     S
H1312  O1353   0.991   .     S
H1313  O1356   0.991   .     S
H1314  O1360   0.991   .     S
H1315  O1363   0.991   .     S
H1317  O1366   0.991   .     S
H1318  O1369   0.991   .     S
H1319  O1373   0.991   .     S
H1320  O1376   0.991   .     S
H1321  O1379   0.991   .     S
O1325  Zn1505  1.950   .     S
O1325  Zn1516  1.950   .     S
O1325  Zn1508  1.949   .     S
O1326  Zn1507  1.934   .     S
O1326  C438    1.284   1_565 S
O1327  S1480   1.683   .     S
O1328  S1481   1.503   .     D
O1329  S1481   1.503   .     D
O1330  S1481   1.683   .     S
O1331  S1482   1.503   .     D
O1332  S1482   1.503   .     D
O1333  S1482   1.683   .     S
O1334  S1483   1.504   .     D
O1335  S1483   1.503   .     D
O1336  S1483   1.683   .     S
O1337  Zn1510  1.934   .     S
O1337  C819    1.284   1_655 S
O1338  S1485   1.503   .     D
O1339  S1485   1.503   .     D
O1340  S1485   1.683   .     S
O1341  S1486   1.503   .     D
O1342  S1486   1.503   .     D
O1343  S1486   1.683   .     S
O1344  S1487   1.503   .     D
O1345  S1487   1.503   .     D
O1346  S1487   1.683   .     S
O1347  S1488   1.504   .     D
O1348  Zn1509  1.934   .     S
O1349  S1488   1.503   .     D
O1350  S1488   1.683   .     S
O1351  S1489   1.503   .     D
O1352  S1489   1.503   .     D
O1353  S1489   1.683   .     S
O1354  S1490   1.504   .     D
O1355  S1490   1.503   .     D
O1356  S1490   1.683   .     S
O1357  S1491   1.503   .     D
O1358  S1491   1.503   .     D
O1359  Zn1519  1.934   .     S
O1360  S1491   1.683   .     S
O1361  S1492   1.503   .     D
O1362  S1492   1.503   .     D
O1363  S1492   1.683   .     S
O1364  S1493   1.504   .     D
O1365  S1493   1.503   .     D
O1366  S1493   1.683   .     S
O1367  S1494   1.504   .     D
O1368  S1494   1.503   .     D
O1369  S1494   1.683   .     S
O1370  Zn1518  1.934   .     S
O1371  S1496   1.503   .     D
O1372  S1496   1.503   .     D
O1373  S1496   1.683   .     S
O1374  S1497   1.503   .     D
O1375  S1497   1.503   .     D
O1376  S1497   1.683   .     S
O1377  S1498   1.504   .     D
O1378  S1498   1.503   .     D
O1379  S1498   1.683   .     S
O1380  Zn1513  1.934   .     S
O1381  Zn1505  1.934   .     S
O1382  Zn1515  1.934   .     S
O1383  Zn1514  1.934   .     S
O1384  Zn1517  1.934   .     S
O1385  Zn1511  1.949   .     S
O1385  Zn1517  1.950   .     S
O1385  Zn1513  1.950   .     S
O1386  Zn1516  1.934   .     S
O1387  Zn1508  1.946   .     S
O1388  Zn1507  1.946   .     S
O1389  Zn1510  1.945   .     S
O1390  Zn1509  1.945   .     S
O1391  Zn1512  1.946   .     S
O1392  Zn1511  1.946   .     S
O1393  Zn1506  1.945   .     S
O1394  Zn1520  1.945   .     S
O1395  Zn1507  1.945   .     S
O1396  Zn1506  1.950   .     S
O1396  Zn1518  1.949   .     S
O1396  Zn1514  1.949   .     S
O1397  Zn1508  1.945   .     S
O1398  Zn1520  1.946   .     S
O1399  Zn1506  1.946   .     S
O1400  Zn1511  1.945   .     S
O1401  Zn1512  1.945   .     S
O1402  Zn1509  1.946   .     S
O1403  Zn1510  1.946   .     S
O1404  Zn1135  1.946   1_655 S
O1405  Zn1514  1.946   .     S
O1406  Zn757   1.945   1_565 S
O1407  Zn1519  1.949   .     S
O1407  Zn1515  1.949   .     S
O1407  Zn1509  1.950   .     S
O1408  Zn1516  1.945   .     S
O1409  Zn1519  1.946   .     S
O1410  Zn1138  1.946   1_655 S
O1411  Zn1513  1.945   .     S
O1412  Zn745   1.945   1_565 S
O1413  Zn1134  1.945   1_655 S
O1414  Zn1515  1.945   .     S
O1415  Zn1505  1.946   .     S
O1416  Zn753   1.946   1_565 S
O1417  Zn1518  1.945   .     S
O1418  Zn1512  1.934   .     S
O1418  C437    1.284   1_565 S
O1419  Zn1139  1.945   1_655 S
O1420  Zn756   1.946   1_565 S
O1421  Zn1517  1.946   .     S
O1422  S1473   1.503   .     D
O1423  S1473   1.503   .     D
O1424  S1473   1.683   .     S
O1425  S1484   1.503   .     D
O1426  S1484   1.503   .     D
O1427  S1484   1.683   .     S
O1428  S1495   1.504   .     D
O1429  Zn1511  1.934   .     S
O1430  S1495   1.503   .     D
O1431  S1495   1.683   .     S
O1432  S1499   1.503   .     D
O1433  S1499   1.503   .     D
O1434  S1499   1.683   .     S
O1435  S1500   1.503   .     D
O1436  S1500   1.503   .     D
O1437  S1500   1.683   .     S
O1438  S1501   1.503   .     D
O1439  S1501   1.503   .     D
O1440  Zn1506  1.934   .     S
O1441  S1501   1.683   .     S
O1442  S1502   1.504   .     D
O1443  S1502   1.503   .     D
O1444  S1502   1.683   .     S
O1444  H913    0.991   1_655 S
O1445  S1503   1.503   .     D
O1446  S1503   1.503   .     D
O1447  S1503   1.683   .     S
O1448  S1504   1.504   .     D
O1449  S1504   1.503   .     D
O1450  S1504   1.683   .     S
O1451  C820    1.284   1_655 A
O1451  Zn1520  1.934   .     S
O1452  S1474   1.503   .     D
O1453  S1474   1.503   .     D
O1454  S1474   1.683   .     S
O1455  S1475   1.503   .     D
O1456  S1475   1.503   .     D
O1457  S1475   1.683   .     S
O1458  S1476   1.504   .     D
O1459  S1476   1.503   .     D
O1460  S1476   1.683   .     S
O1461  S1477   1.504   .     D
O1462  Zn1508  1.934   .     S
O1463  S1477   1.503   .     D
O1464  S1477   1.683   .     S
O1464  H540    0.991   1_565 S
O1465  S1478   1.503   .     D
O1466  S1478   1.503   .     D
O1467  S1478   1.683   .     S
O1468  S1479   1.503   .     D
O1469  S1479   1.503   .     D
O1470  S1479   1.683   .     S
O1471  S1480   1.504   .     D
O1472  S1480   1.503   .     D
Zn1507 O625    1.949   1_565 S
Zn1510 O1016   1.950   1_655 S
Zn1512 O565    1.949   1_565 S
Zn1520 O1027   1.950   1_655 S
