data_str_m1_o1_o5_pcu_sym.18
_audit_creation_date              2020-01-03
_audit_creation_method            'Materials Studio'
_symmetry_space_group_name_H-M    'P1'
_symmetry_Int_Tables_number       1
_symmetry_cell_setting            triclinic
loop_
_symmetry_equiv_pos_as_xyz
  x,y,z
_cell_length_a                    36.6329
_cell_length_b                    36.6520
_cell_length_c                    22.4599
_cell_angle_alpha                 90.0001
_cell_angle_beta                  89.9999
_cell_angle_gamma                 89.8642
loop_
_atom_site_label
_atom_site_type_symbol
_atom_site_fract_x
_atom_site_fract_y
_atom_site_fract_z
_atom_site_U_iso_or_equiv
_atom_site_adp_type
_atom_site_occupancy
C1     C     0.00000   0.25000   0.02665   0.00000  Uiso   1.00
C2     C     0.00000   0.25000   0.58990   0.00000  Uiso   1.00
C3     C     0.46491   0.38144   0.08790   0.00000  Uiso   1.00
C4     C     0.37918   0.06197   0.86113   0.00000  Uiso   1.00
C5     C     0.37348   0.04367   0.92102   0.00000  Uiso   1.00
C6     C     0.14988   0.42430   0.11657   0.00000  Uiso   1.00
C7     C     0.16997   0.42873   0.05780   0.00000  Uiso   1.00
C8     C     0.43233   0.35857   0.87530   0.00000  Uiso   1.00
C9     C     0.43576   0.35737   0.94266   0.00000  Uiso   1.00
C10    C     0.05148   0.12147   0.14980   0.00000  Uiso   1.00
C11    C     0.03509   0.11856   0.08789   0.00000  Uiso   1.00
C12    C     0.12080   0.43803   0.86112   0.00000  Uiso   1.00
C13    C     0.25000   0.00000   0.41011   0.00000  Uiso   1.00
C14    C     0.12652   0.45635   0.92099   0.00000  Uiso   1.00
C15    C     0.35012   0.07570   0.11657   0.00000  Uiso   1.00
C16    C     0.33003   0.07127   0.05780   0.00000  Uiso   1.00
C17    C     0.31334   0.11500   0.62654   0.00000  Uiso   1.00
C18    C     0.30458   0.10718   0.56157   0.00000  Uiso   1.00
C19    C     0.11619   0.43561   0.37363   0.00000  Uiso   1.00
C20    C     0.12903   0.45454   0.43012   0.00000  Uiso   1.00
C21    C     0.10574   0.17562   0.61746   0.00000  Uiso   1.00
C22    C     0.08745   0.18207   0.55760   0.00000  Uiso   1.00
C23    C     0.37088   0.30201   0.35367   0.00000  Uiso   1.00
C24    C     0.25000   0.00000   0.58989   0.00000  Uiso   1.00
C25    C     0.37422   0.28399   0.41432   0.00000  Uiso   1.00
C26    C     0.18667   0.38500   0.62655   0.00000  Uiso   1.00
C27    C     0.19544   0.39282   0.56158   0.00000  Uiso   1.00
C28    C     0.38381   0.06439   0.37363   0.00000  Uiso   1.00
C29    C     0.37097   0.04546   0.43012   0.00000  Uiso   1.00
C30    C     0.39424   0.32437   0.61748   0.00000  Uiso   1.00
C31    C     0.41250   0.31792   0.55760   0.00000  Uiso   1.00
C32    C     0.12911   0.19798   0.35368   0.00000  Uiso   1.00
C33    C     0.12576   0.21601   0.41433   0.00000  Uiso   1.00
C34    C     0.29947   0.37502   0.35038   0.00000  Uiso   1.00
C35    C     0.25000   0.00000   0.91011   0.00000  Uiso   1.00
C36    C     0.28463   0.36790   0.41241   0.00000  Uiso   1.00
C37    C     0.18145   0.10948   0.62479   0.00000  Uiso   1.00
C38    C     0.18457   0.10834   0.55740   0.00000  Uiso   1.00
C39    C     0.11386   0.32879   0.38319   0.00000  Uiso   1.00
C40    C     0.09739   0.31805   0.44279   0.00000  Uiso   1.00
C41    C     0.38112   0.18193   0.62029   0.00000  Uiso   1.00
C42    C     0.40667   0.21174   0.59858   0.00000  Uiso   1.00
C43    C     0.20052   0.12498   0.35038   0.00000  Uiso   1.00
C44    C     0.21537   0.13209   0.41242   0.00000  Uiso   1.00
C45    C     0.31855   0.39053   0.62479   0.00000  Uiso   1.00
C46    C     0.25000   0.00000   0.08990   0.00000  Uiso   1.00
C47    C     0.31546   0.39160   0.55740   0.00000  Uiso   1.00
C48    C     0.38614   0.17122   0.38319   0.00000  Uiso   1.00
C49    C     0.40260   0.18196   0.44279   0.00000  Uiso   1.00
C50    C     0.11889   0.31806   0.62030   0.00000  Uiso   1.00
C51    C     0.09334   0.28824   0.59860   0.00000  Uiso   1.00
C52    C    -0.00000   0.25000   0.91011   0.00000  Uiso   1.00
C53    C     0.00000   0.25000   0.08989   0.00000  Uiso   1.00
C54    C     0.07009   0.18007   0.25021   0.00000  Uiso   1.00
C55    C     0.43005   0.32008   0.75002   0.00000  Uiso   1.00
C56    C     0.18001   0.42988   0.25031   0.00000  Uiso   1.00
C57    C    -0.00000   0.25000   0.97335   0.00000  Uiso   1.00
C58    C     0.31996   0.07006   0.74974   0.00000  Uiso   1.00
C59    C     0.42991   0.31993   0.25021   0.00000  Uiso   1.00
C60    C     0.06995   0.17993   0.75002   0.00000  Uiso   1.00
C61    C     0.31999   0.07012   0.25031   0.00000  Uiso   1.00
C62    C     0.18003   0.42994   0.74974   0.00000  Uiso   1.00
C63    C     0.07011   0.32000   0.74996   0.00000  Uiso   1.00
C64    C     0.43004   0.17989   0.24979   0.00000  Uiso   1.00
C65    C     0.17999   0.07001   0.75008   0.00000  Uiso   1.00
C66    C     0.32007   0.43006   0.24973   0.00000  Uiso   1.00
C67    C     0.42989   0.18000   0.74996   0.00000  Uiso   1.00
C68    C     0.25000   0.00000   0.02666   0.00000  Uiso   1.00
C69    C     0.06996   0.32011   0.24979   0.00000  Uiso   1.00
C70    C     0.32001   0.43000   0.75008   0.00000  Uiso   1.00
C71    C     0.17993   0.06994   0.24974   0.00000  Uiso   1.00
C72    C     0.11484   0.35809   0.19545   0.00000  Uiso   1.00
C73    C     0.38803   0.13865   0.80368   0.00000  Uiso   1.00
C74    C     0.36688   0.39393   0.19747   0.00000  Uiso   1.00
C75    C     0.14014   0.11316   0.80462   0.00000  Uiso   1.00
C76    C     0.38516   0.14191   0.19545   0.00000  Uiso   1.00
C77    C     0.11197   0.36135   0.80368   0.00000  Uiso   1.00
C78    C     0.13312   0.10607   0.19747   0.00000  Uiso   1.00
C79    C     0.25000   0.00000   0.97336   0.00000  Uiso   1.00
C80    C     0.35986   0.38684   0.80462   0.00000  Uiso   1.00
C81    C     0.11298   0.13993   0.80469   0.00000  Uiso   1.00
C82    C     0.39470   0.36775   0.19780   0.00000  Uiso   1.00
C83    C     0.36299   0.10988   0.80307   0.00000  Uiso   1.00
C84    C     0.14161   0.38523   0.19512   0.00000  Uiso   1.00
C85    C     0.38702   0.36007   0.80469   0.00000  Uiso   1.00
C86    C     0.10530   0.13225   0.19780   0.00000  Uiso   1.00
C87    C     0.13701   0.39013   0.80307   0.00000  Uiso   1.00
C88    C     0.35839   0.11477   0.19512   0.00000  Uiso   1.00
C89    C     0.35986   0.11320   0.69443   0.00000  Uiso   1.00
C90    C     0.25000   0.00000   0.52665   0.00000  Uiso   1.00
C91    C     0.13245   0.39434   0.30232   0.00000  Uiso   1.00
C92    C     0.10898   0.13588   0.69589   0.00000  Uiso   1.00
C93    C     0.38165   0.35465   0.30260   0.00000  Uiso   1.00
C94    C     0.14015   0.38679   0.69443   0.00000  Uiso   1.00
C95    C     0.36755   0.10566   0.30232   0.00000  Uiso   1.00
C96    C     0.39102   0.36412   0.69589   0.00000  Uiso   1.00
C97    C     0.11835   0.14535   0.30260   0.00000  Uiso   1.00
C98    C     0.35448   0.38157   0.30265   0.00000  Uiso   1.00
C99    C     0.13654   0.10959   0.69580   0.00000  Uiso   1.00
C100   C     0.10710   0.36590   0.30281   0.00000  Uiso   1.00
C101   C     0.25000   0.00000   0.47335   0.00000  Uiso   1.00
C102   C     0.38745   0.13962   0.69486   0.00000  Uiso   1.00
C103   C     0.14552   0.11843   0.30266   0.00000  Uiso   1.00
C104   C     0.36346   0.39041   0.69580   0.00000  Uiso   1.00
C105   C     0.39290   0.13410   0.30281   0.00000  Uiso   1.00
C106   C     0.11255   0.36038   0.69486   0.00000  Uiso   1.00
C107   C     0.15093   0.40281   0.24905   0.00000  Uiso   1.00
C108   C     0.34769   0.09838   0.74888   0.00000  Uiso   1.00
C109   C     0.40183   0.34797   0.25029   0.00000  Uiso   1.00
C110   C     0.09767   0.15154   0.75023   0.00000  Uiso   1.00
C111   C     0.34907   0.09719   0.24905   0.00000  Uiso   1.00
C112   C     0.00000   0.25000   0.52666   0.00000  Uiso   1.00
C113   C     0.15231   0.40161   0.74888   0.00000  Uiso   1.00
C114   C     0.09817   0.15203   0.25029   0.00000  Uiso   1.00
C115   C     0.40233   0.34846   0.75023   0.00000  Uiso   1.00
C116   C     0.15198   0.09810   0.75016   0.00000  Uiso   1.00
C117   C     0.34756   0.40146   0.25014   0.00000  Uiso   1.00
C118   C     0.40134   0.15236   0.74946   0.00000  Uiso   1.00
C119   C     0.09768   0.34849   0.24924   0.00000  Uiso   1.00
C120   C     0.34802   0.40190   0.75016   0.00000  Uiso   1.00
C121   C     0.15244   0.09854   0.25014   0.00000  Uiso   1.00
C122   C     0.09866   0.34764   0.74946   0.00000  Uiso   1.00
C123   C     0.00000   0.25000   0.47336   0.00000  Uiso   1.00
C124   C     0.40232   0.15152   0.24924   0.00000  Uiso   1.00
C125   C     0.08199   0.35889   0.10834   0.00000  Uiso   1.00
C126   C     0.05310   0.33305   0.08433   0.00000  Uiso   1.00
C127   C     0.37834   0.17198   0.88769   0.00000  Uiso   1.00
C128   C     0.39579   0.18506   0.94518   0.00000  Uiso   1.00
C129   C     0.37722   0.44391   0.13857   0.00000  Uiso   1.00
C130   C     0.35320   0.47229   0.10840   0.00000  Uiso   1.00
C131   C     0.14016   0.07106   0.87962   0.00000  Uiso   1.00
C132   C     0.15585   0.06233   0.94066   0.00000  Uiso   1.00
C133   C     0.41802   0.14111   0.10834   0.00000  Uiso   1.00
C134   C    -0.00000   0.25000   0.41011   0.00000  Uiso   1.00
C135   C     0.44690   0.16695   0.08433   0.00000  Uiso   1.00
C136   C     0.12165   0.32803   0.88769   0.00000  Uiso   1.00
C137   C     0.10420   0.31494   0.94518   0.00000  Uiso   1.00
C138   C     0.12278   0.05609   0.13859   0.00000  Uiso   1.00
C139   C     0.14679   0.02771   0.10840   0.00000  Uiso   1.00
C140   C     0.35984   0.42894   0.87962   0.00000  Uiso   1.00
C141   C     0.34414   0.43767   0.94065   0.00000  Uiso   1.00
C142   C     0.06767   0.14143   0.87529   0.00000  Uiso   1.00
C143   C     0.06424   0.14263   0.94266   0.00000  Uiso   1.00
C144   C     0.44852   0.37854   0.14980   0.00000  Uiso   1.00
H145   H     0.09686   0.37065   0.06983   0.00000  Uiso   1.00
H146   H     0.40332   0.16119   0.97298   0.00000  Uiso   1.00
H147   H     0.40342   0.27899   0.42504   0.00000  Uiso   1.00
H148   H     0.18714   0.35488   0.63320   0.00000  Uiso   1.00
H149   H     0.20846   0.39737   0.65435   0.00000  Uiso   1.00
H150   H     0.19686   0.42274   0.55404   0.00000  Uiso   1.00
H151   H     0.22211   0.38041   0.54971   0.00000  Uiso   1.00
H152   H     0.17399   0.38107   0.53240   0.00000  Uiso   1.00
H153   H     0.41019   0.07807   0.38355   0.00000  Uiso   1.00
H154   H     0.38835   0.04324   0.33875   0.00000  Uiso   1.00
H155   H     0.34490   0.03098   0.42167   0.00000  Uiso   1.00
H156   H     0.39180   0.02533   0.44486   0.00000  Uiso   1.00
H157   H     0.40126   0.43883   0.10965   0.00000  Uiso   1.00
H158   H     0.36674   0.06586   0.46607   0.00000  Uiso   1.00
H159   H     0.36438   0.32695   0.60991   0.00000  Uiso   1.00
H160   H     0.39943   0.30014   0.64610   0.00000  Uiso   1.00
H161   H     0.44251   0.31570   0.56335   0.00000  Uiso   1.00
H162   H     0.40227   0.29226   0.53766   0.00000  Uiso   1.00
H163   H     0.40634   0.34090   0.52693   0.00000  Uiso   1.00
H164   H     0.11683   0.21659   0.32007   0.00000  Uiso   1.00
H165   H     0.15867   0.19467   0.34373   0.00000  Uiso   1.00
H166   H     0.13804   0.19814   0.44892   0.00000  Uiso   1.00
H167   H     0.14046   0.24245   0.41409   0.00000  Uiso   1.00
H168   H     0.38695   0.45571   0.18162   0.00000  Uiso   1.00
H169   H     0.09656   0.22101   0.42504   0.00000  Uiso   1.00
H170   H     0.29770   0.34913   0.32447   0.00000  Uiso   1.00
H171   H     0.28144   0.39560   0.32910   0.00000  Uiso   1.00
H172   H     0.28349   0.39391   0.43768   0.00000  Uiso   1.00
H173   H     0.25663   0.35650   0.40939   0.00000  Uiso   1.00
H174   H     0.30245   0.34812   0.43616   0.00000  Uiso   1.00
H175   H     0.20409   0.09288   0.64354   0.00000  Uiso   1.00
H176   H     0.18527   0.13833   0.63938   0.00000  Uiso   1.00
H177   H     0.16199   0.12420   0.53680   0.00000  Uiso   1.00
H178   H     0.21098   0.12049   0.54376   0.00000  Uiso   1.00
H179   H     0.33077   0.48068   0.13874   0.00000  Uiso   1.00
H180   H     0.18339   0.07968   0.54146   0.00000  Uiso   1.00
H181   H     0.14178   0.33965   0.39153   0.00000  Uiso   1.00
H182   H     0.11584   0.30388   0.35492   0.00000  Uiso   1.00
H183   H     0.07000   0.30581   0.43602   0.00000  Uiso   1.00
H184   H     0.11527   0.29779   0.46524   0.00000  Uiso   1.00
H185   H     0.09478   0.34245   0.47183   0.00000  Uiso   1.00
H186   H     0.36227   0.19433   0.65387   0.00000  Uiso   1.00
H187   H     0.36453   0.17255   0.58187   0.00000  Uiso   1.00
H188   H     0.42676   0.20039   0.56650   0.00000  Uiso   1.00
H189   H     0.39052   0.23337   0.57617   0.00000  Uiso   1.00
H190   H     0.36988   0.49653   0.09699   0.00000  Uiso   1.00
H191   H     0.42145   0.22400   0.63678   0.00000  Uiso   1.00
H192   H     0.20229   0.15087   0.32449   0.00000  Uiso   1.00
H193   H     0.21856   0.10441   0.32909   0.00000  Uiso   1.00
H194   H     0.21651   0.10608   0.43767   0.00000  Uiso   1.00
H195   H     0.24337   0.14349   0.40941   0.00000  Uiso   1.00
H196   H     0.19755   0.15186   0.43618   0.00000  Uiso   1.00
H197   H     0.29592   0.40717   0.64346   0.00000  Uiso   1.00
H198   H     0.31469   0.36171   0.63945   0.00000  Uiso   1.00
H199   H     0.33803   0.37571   0.53687   0.00000  Uiso   1.00
H200   H     0.28905   0.37947   0.54376   0.00000  Uiso   1.00
H201   H     0.34123   0.46100   0.06697   0.00000  Uiso   1.00
H202   H     0.31667   0.42025   0.54138   0.00000  Uiso   1.00
H203   H     0.35822   0.16035   0.39153   0.00000  Uiso   1.00
H204   H     0.38416   0.19613   0.35491   0.00000  Uiso   1.00
H205   H     0.43000   0.19419   0.43602   0.00000  Uiso   1.00
H206   H     0.38472   0.20221   0.46523   0.00000  Uiso   1.00
H207   H     0.40521   0.15756   0.47183   0.00000  Uiso   1.00
H208   H     0.13774   0.30567   0.65388   0.00000  Uiso   1.00
H209   H     0.13548   0.32744   0.58187   0.00000  Uiso   1.00
H210   H     0.07325   0.29959   0.56650   0.00000  Uiso   1.00
H211   H     0.10950   0.26662   0.57619   0.00000  Uiso   1.00
H212   H     0.14595   0.04758   0.84968   0.00000  Uiso   1.00
H213   H     0.07856   0.27599   0.63680   0.00000  Uiso   1.00
H214   H     0.11012   0.07408   0.88440   0.00000  Uiso   1.00
H215   H     0.14977   0.08492   0.97214   0.00000  Uiso   1.00
H216   H     0.14351   0.03683   0.95795   0.00000  Uiso   1.00
H217   H     0.06766   0.38153   0.13223   0.00000  Uiso   1.00
H218   H     0.18588   0.05861   0.93758   0.00000  Uiso   1.00
H219   H     0.40314   0.12935   0.06984   0.00000  Uiso   1.00
H220   H     0.43234   0.11847   0.13224   0.00000  Uiso   1.00
H221   H     0.46551   0.17534   0.12082   0.00000  Uiso   1.00
H222   H     0.46311   0.15308   0.04920   0.00000  Uiso   1.00
H223   H     0.43381   0.19152   0.06472   0.00000  Uiso   1.00
H224   H     0.14681   0.34339   0.89944   0.00000  Uiso   1.00
H225   H     0.12928   0.30368   0.86066   0.00000  Uiso   1.00
H226   H     0.07926   0.29889   0.93529   0.00000  Uiso   1.00
H227   H     0.12371   0.29753   0.97026   0.00000  Uiso   1.00
H228   H     0.03449   0.32467   0.12082   0.00000  Uiso   1.00
H229   H     0.09667   0.33881   0.97298   0.00000  Uiso   1.00
H230   H     0.09873   0.06117   0.10968   0.00000  Uiso   1.00
H231   H     0.11306   0.04429   0.18163   0.00000  Uiso   1.00
H232   H     0.16923   0.01932   0.13873   0.00000  Uiso   1.00
H233   H     0.13012   0.00346   0.09700   0.00000  Uiso   1.00
H234   H     0.15876   0.03900   0.06697   0.00000  Uiso   1.00
H235   H     0.35406   0.45242   0.84967   0.00000  Uiso   1.00
H236   H     0.38988   0.42592   0.88442   0.00000  Uiso   1.00
H237   H     0.35021   0.41509   0.97214   0.00000  Uiso   1.00
H238   H     0.35648   0.46318   0.95794   0.00000  Uiso   1.00
H239   H     0.03689   0.34692   0.04919   0.00000  Uiso   1.00
H240   H     0.31411   0.44140   0.93755   0.00000  Uiso   1.00
H241   H     0.06284   0.11280   0.86047   0.00000  Uiso   1.00
H242   H     0.04574   0.15889   0.85646   0.00000  Uiso   1.00
H243   H     0.06740   0.17109   0.95882   0.00000  Uiso   1.00
H244   H     0.03691   0.13244   0.95597   0.00000  Uiso   1.00
H245   H     0.08558   0.12518   0.96333   0.00000  Uiso   1.00
H246   H     0.46758   0.36224   0.17764   0.00000  Uiso   1.00
H247   H     0.44655   0.40662   0.16871   0.00000  Uiso   1.00
H248   H     0.44689   0.39810   0.05887   0.00000  Uiso   1.00
H249   H     0.49209   0.39470   0.09046   0.00000  Uiso   1.00
H250   H     0.06619   0.30848   0.06473   0.00000  Uiso   1.00
H251   H     0.46811   0.35378   0.06837   0.00000  Uiso   1.00
H252   H     0.40821   0.07096   0.85869   0.00000  Uiso   1.00
H253   H     0.37404   0.04137   0.82568   0.00000  Uiso   1.00
H254   H     0.34457   0.03508   0.92581   0.00000  Uiso   1.00
H255   H     0.39137   0.01926   0.92450   0.00000  Uiso   1.00
H256   H     0.38073   0.06293   0.95722   0.00000  Uiso   1.00
H257   H     0.15658   0.44813   0.14494   0.00000  Uiso   1.00
H258   H     0.12002   0.42478   0.10782   0.00000  Uiso   1.00
H259   H     0.16181   0.40675   0.02652   0.00000  Uiso   1.00
H260   H     0.16345   0.45568   0.03794   0.00000  Uiso   1.00
H261   H     0.35318   0.15661   0.89944   0.00000  Uiso   1.00
H262   H     0.19988   0.42706   0.06517   0.00000  Uiso   1.00
H263   H     0.43716   0.38720   0.86048   0.00000  Uiso   1.00
H264   H     0.45426   0.34111   0.85646   0.00000  Uiso   1.00
H265   H     0.43260   0.32890   0.95882   0.00000  Uiso   1.00
H266   H     0.46309   0.36755   0.95597   0.00000  Uiso   1.00
H267   H     0.41442   0.37482   0.96334   0.00000  Uiso   1.00
H268   H     0.03242   0.13778   0.17763   0.00000  Uiso   1.00
H269   H     0.05344   0.09339   0.16873   0.00000  Uiso   1.00
H270   H     0.05311   0.10189   0.05889   0.00000  Uiso   1.00
H271   H     0.00791   0.10531   0.09045   0.00000  Uiso   1.00
H272   H     0.37071   0.19632   0.86065   0.00000  Uiso   1.00
H273   H     0.03190   0.14622   0.06835   0.00000  Uiso   1.00
H274   H     0.09178   0.42902   0.85874   0.00000  Uiso   1.00
H275   H     0.12592   0.45862   0.82565   0.00000  Uiso   1.00
H276   H     0.15544   0.46495   0.92575   0.00000  Uiso   1.00
H277   H     0.10863   0.48076   0.92447   0.00000  Uiso   1.00
H278   H     0.11930   0.43710   0.95722   0.00000  Uiso   1.00
H279   H     0.34341   0.05187   0.14494   0.00000  Uiso   1.00
H280   H     0.37998   0.07522   0.10782   0.00000  Uiso   1.00
H281   H     0.33819   0.09325   0.02652   0.00000  Uiso   1.00
H282   H     0.33656   0.04432   0.03794   0.00000  Uiso   1.00
H283   H     0.42073   0.20111   0.93529   0.00000  Uiso   1.00
H284   H     0.30012   0.07294   0.06516   0.00000  Uiso   1.00
H285   H     0.31287   0.14512   0.63319   0.00000  Uiso   1.00
H286   H     0.29154   0.10263   0.65434   0.00000  Uiso   1.00
H287   H     0.30315   0.07726   0.55403   0.00000  Uiso   1.00
H288   H     0.27791   0.11959   0.54969   0.00000  Uiso   1.00
H289   H     0.32604   0.11892   0.53240   0.00000  Uiso   1.00
H290   H     0.08981   0.42193   0.38355   0.00000  Uiso   1.00
H291   H     0.11165   0.45676   0.33874   0.00000  Uiso   1.00
H292   H     0.15510   0.46902   0.42167   0.00000  Uiso   1.00
H293   H     0.10820   0.47467   0.44486   0.00000  Uiso   1.00
H294   H     0.37628   0.20247   0.97025   0.00000  Uiso   1.00
H295   H     0.13326   0.43414   0.46607   0.00000  Uiso   1.00
H296   H     0.13559   0.17303   0.60985   0.00000  Uiso   1.00
H297   H     0.10057   0.19984   0.64609   0.00000  Uiso   1.00
H298   H     0.05744   0.18427   0.56338   0.00000  Uiso   1.00
H299   H     0.09767   0.20773   0.53765   0.00000  Uiso   1.00
H300   H     0.09361   0.15909   0.52691   0.00000  Uiso   1.00
H301   H     0.38317   0.28340   0.32006   0.00000  Uiso   1.00
H302   H     0.34133   0.30533   0.34370   0.00000  Uiso   1.00
H303   H     0.36193   0.30186   0.44890   0.00000  Uiso   1.00
H304   H     0.35952   0.25754   0.41406   0.00000  Uiso   1.00
O305   O     0.00000   0.25000   0.25000   0.00000  Uiso   1.00
O306   O     0.00000   0.28036   0.61781   0.00000  Uiso   1.00
O307   O     0.21964   0.00000   0.38219   0.00000  Uiso   1.00
O308   O     0.28035   0.00000   0.61781   0.00000  Uiso   1.00
O309   O     0.25000   0.03036   0.88219   0.00000  Uiso   1.00
O310   O     0.25000   0.46965   0.11781   0.00000  Uiso   1.00
O311   O     0.03035   0.25000   0.88219   0.00000  Uiso   1.00
O312   O     0.46964   0.25000   0.11781   0.00000  Uiso   1.00
O313   O     0.25000   0.46965   0.88219   0.00000  Uiso   1.00
O314   O     0.25000   0.03036   0.11781   0.00000  Uiso   1.00
O315   O     0.46964   0.25000   0.88219   0.00000  Uiso   1.00
O316   O    -0.00000   0.25000   0.75000   0.00000  Uiso   1.00
O317   O     0.03035   0.25000   0.11781   0.00000  Uiso   1.00
O318   O     0.04267   0.17693   0.28474   0.00000  Uiso   1.00
O319   O     0.45732   0.32308   0.71526   0.00000  Uiso   1.00
O320   O     0.17692   0.45733   0.28474   0.00000  Uiso   1.00
O321   O     0.32307   0.04268   0.71526   0.00000  Uiso   1.00
O322   O     0.45732   0.32308   0.28474   0.00000  Uiso   1.00
O323   O     0.04267   0.17693   0.71526   0.00000  Uiso   1.00
O324   O     0.32307   0.04268   0.28474   0.00000  Uiso   1.00
O325   O     0.17692   0.45733   0.71526   0.00000  Uiso   1.00
O326   O     0.04267   0.32308   0.71526   0.00000  Uiso   1.00
O327   O     0.25000   0.00000   0.25000   0.00000  Uiso   1.00
O328   O     0.45732   0.17693   0.28474   0.00000  Uiso   1.00
O329   O     0.17692   0.04268   0.71526   0.00000  Uiso   1.00
O330   O     0.32307   0.45733   0.28474   0.00000  Uiso   1.00
O331   O     0.45732   0.17693   0.71526   0.00000  Uiso   1.00
O332   O     0.04267   0.32308   0.28474   0.00000  Uiso   1.00
O333   O     0.32307   0.45733   0.71526   0.00000  Uiso   1.00
O334   O     0.17692   0.04268   0.28474   0.00000  Uiso   1.00
O335   O     0.29267   0.42693   0.78474   0.00000  Uiso   1.00
O336   O     0.20732   0.07308   0.21526   0.00000  Uiso   1.00
O337   O     0.42692   0.20733   0.78474   0.00000  Uiso   1.00
O338   O     0.25000   0.00000   0.75000   0.00000  Uiso   1.00
O339   O     0.07307   0.29268   0.21526   0.00000  Uiso   1.00
O340   O     0.20732   0.07308   0.78474   0.00000  Uiso   1.00
O341   O     0.29267   0.42693   0.21526   0.00000  Uiso   1.00
O342   O     0.07307   0.29268   0.78474   0.00000  Uiso   1.00
O343   O     0.42692   0.20733   0.21526   0.00000  Uiso   1.00
O344   O     0.29267   0.07308   0.21526   0.00000  Uiso   1.00
O345   O     0.20732   0.42693   0.78474   0.00000  Uiso   1.00
O346   O     0.42692   0.29268   0.21526   0.00000  Uiso   1.00
O347   O     0.07307   0.20733   0.78474   0.00000  Uiso   1.00
O348   O     0.20732   0.42693   0.21526   0.00000  Uiso   1.00
O349   O    -0.00000   0.28036   0.38219   0.00000  Uiso   1.00
O350   O     0.29267   0.07308   0.78474   0.00000  Uiso   1.00
O351   O     0.07307   0.20733   0.21526   0.00000  Uiso   1.00
O352   O     0.42692   0.29268   0.78474   0.00000  Uiso   1.00
O353   O     0.10712   0.33905   0.14371   0.00000  Uiso   1.00
O354   O     0.40355   0.14969   0.85687   0.00000  Uiso   1.00
O355   O     0.35735   0.41109   0.14478   0.00000  Uiso   1.00
O356   O     0.15636   0.10344   0.85807   0.00000  Uiso   1.00
O357   O     0.39288   0.16095   0.14371   0.00000  Uiso   1.00
O358   O     0.09645   0.35031   0.85687   0.00000  Uiso   1.00
O359   O     0.14264   0.08891   0.14478   0.00000  Uiso   1.00
O360   O    -0.00000   0.21965   0.61781   0.00000  Uiso   1.00
O361   O     0.34364   0.39656   0.85807   0.00000  Uiso   1.00
O362   O     0.10240   0.15499   0.85866   0.00000  Uiso   1.00
O363   O     0.41411   0.36120   0.14595   0.00000  Uiso   1.00
O364   O     0.35492   0.09185   0.85557   0.00000  Uiso   1.00
O365   O     0.16107   0.39114   0.14314   0.00000  Uiso   1.00
O366   O     0.39760   0.34501   0.85866   0.00000  Uiso   1.00
O367   O     0.08590   0.13880   0.14595   0.00000  Uiso   1.00
O368   O     0.14508   0.40816   0.85557   0.00000  Uiso   1.00
O369   O     0.33893   0.10886   0.14314   0.00000  Uiso   1.00
O370   O     0.34776   0.09965   0.64036   0.00000  Uiso   1.00
O371   O     0.28035   0.00000   0.38219   0.00000  Uiso   1.00
O372   O     0.14305   0.41018   0.35558   0.00000  Uiso   1.00
O373   O     0.09111   0.14363   0.64300   0.00000  Uiso   1.00
O374   O     0.38920   0.33592   0.35474   0.00000  Uiso   1.00
O375   O     0.15224   0.40034   0.64035   0.00000  Uiso   1.00
O376   O     0.35695   0.08982   0.35558   0.00000  Uiso   1.00
O377   O     0.40888   0.35636   0.64300   0.00000  Uiso   1.00
O378   O     0.11080   0.16407   0.35475   0.00000  Uiso   1.00
O379   O     0.33557   0.38853   0.35496   0.00000  Uiso   1.00
O380   O     0.14734   0.09468   0.64188   0.00000  Uiso   1.00
O381   O     0.09133   0.35532   0.35608   0.00000  Uiso   1.00
O382   O     0.21964   0.00000   0.61781   0.00000  Uiso   1.00
O383   O     0.40193   0.15209   0.64170   0.00000  Uiso   1.00
O384   O     0.16442   0.11147   0.35496   0.00000  Uiso   1.00
O385   O     0.35267   0.40533   0.64188   0.00000  Uiso   1.00
O386   O     0.40867   0.14468   0.35609   0.00000  Uiso   1.00
O387   O     0.09808   0.34790   0.64170   0.00000  Uiso   1.00
O388   O    -0.00000   0.21965   0.38219   0.00000  Uiso   1.00
Zn389  Zn    0.04333   0.25000   0.20067   0.00000  Uiso   1.00
Zn390  Zn    0.20667   0.00000   0.29933   0.00000  Uiso   1.00
Zn391  Zn    0.00000   0.20667   0.70067   0.00000  Uiso   1.00
Zn392  Zn    0.00000   0.29333   0.29933   0.00000  Uiso   1.00
Zn393  Zn    0.20667   0.00000   0.70067   0.00000  Uiso   1.00
Zn394  Zn    0.29333   0.00000   0.29933   0.00000  Uiso   1.00
Zn395  Zn    0.00000   0.29333   0.70067   0.00000  Uiso   1.00
Zn396  Zn   -0.00000   0.20667   0.29933   0.00000  Uiso   1.00
Zn397  Zn    0.45667   0.25000   0.79933   0.00000  Uiso   1.00
Zn398  Zn    0.25000   0.45667   0.20067   0.00000  Uiso   1.00
Zn399  Zn    0.25000   0.04333   0.79933   0.00000  Uiso   1.00
Zn400  Zn    0.45667   0.25000   0.20067   0.00000  Uiso   1.00
Zn401  Zn    0.04333   0.25000   0.79933   0.00000  Uiso   1.00
Zn402  Zn    0.25000   0.04333   0.20067   0.00000  Uiso   1.00
Zn403  Zn    0.25000   0.45667   0.79933   0.00000  Uiso   1.00
Zn404  Zn    0.29333   0.00000   0.70067   0.00000  Uiso   1.00
C405   C     0.50000   0.25000   0.02665   0.00000  Uiso   1.00
C406   C     0.50000   0.25000   0.58990   0.00000  Uiso   1.00
C407   C     0.96491   0.38144   0.08790   0.00000  Uiso   1.00
C408   C     0.87918   0.06197   0.86113   0.00000  Uiso   1.00
C409   C     0.87348   0.04367   0.92102   0.00000  Uiso   1.00
C410   C     0.64988   0.42430   0.11657   0.00000  Uiso   1.00
C411   C     0.66997   0.42873   0.05780   0.00000  Uiso   1.00
C412   C     0.93233   0.35857   0.87530   0.00000  Uiso   1.00
C413   C     0.93576   0.35737   0.94266   0.00000  Uiso   1.00
C414   C     0.55148   0.12147   0.14980   0.00000  Uiso   1.00
C415   C     0.53509   0.11856   0.08789   0.00000  Uiso   1.00
C416   C     0.62080   0.43803   0.86112   0.00000  Uiso   1.00
C417   C     0.75000   0.00000   0.41011   0.00000  Uiso   1.00
C418   C     0.62652   0.45635   0.92099   0.00000  Uiso   1.00
C419   C     0.85012   0.07570   0.11657   0.00000  Uiso   1.00
C420   C     0.83003   0.07127   0.05780   0.00000  Uiso   1.00
C421   C     0.81334   0.11500   0.62654   0.00000  Uiso   1.00
C422   C     0.80458   0.10718   0.56157   0.00000  Uiso   1.00
C423   C     0.61619   0.43561   0.37363   0.00000  Uiso   1.00
C424   C     0.62903   0.45454   0.43012   0.00000  Uiso   1.00
C425   C     0.60574   0.17562   0.61746   0.00000  Uiso   1.00
C426   C     0.58745   0.18207   0.55760   0.00000  Uiso   1.00
C427   C     0.87088   0.30201   0.35367   0.00000  Uiso   1.00
C428   C     0.75000   0.00000   0.58989   0.00000  Uiso   1.00
C429   C     0.87422   0.28399   0.41432   0.00000  Uiso   1.00
C430   C     0.68667   0.38500   0.62655   0.00000  Uiso   1.00
C431   C     0.69544   0.39282   0.56158   0.00000  Uiso   1.00
C432   C     0.88381   0.06439   0.37363   0.00000  Uiso   1.00
C433   C     0.87097   0.04546   0.43012   0.00000  Uiso   1.00
C434   C     0.89424   0.32437   0.61748   0.00000  Uiso   1.00
C435   C     0.91250   0.31792   0.55760   0.00000  Uiso   1.00
C436   C     0.62911   0.19798   0.35368   0.00000  Uiso   1.00
C437   C     0.62576   0.21601   0.41433   0.00000  Uiso   1.00
C438   C     0.79947   0.37502   0.35038   0.00000  Uiso   1.00
C439   C     0.75000   0.00000   0.91011   0.00000  Uiso   1.00
C440   C     0.78463   0.36790   0.41241   0.00000  Uiso   1.00
C441   C     0.68145   0.10948   0.62479   0.00000  Uiso   1.00
C442   C     0.68457   0.10834   0.55740   0.00000  Uiso   1.00
C443   C     0.61386   0.32879   0.38319   0.00000  Uiso   1.00
C444   C     0.59739   0.31805   0.44279   0.00000  Uiso   1.00
C445   C     0.88112   0.18193   0.62029   0.00000  Uiso   1.00
C446   C     0.90667   0.21174   0.59858   0.00000  Uiso   1.00
C447   C     0.70052   0.12498   0.35038   0.00000  Uiso   1.00
C448   C     0.71537   0.13209   0.41242   0.00000  Uiso   1.00
C449   C     0.81855   0.39053   0.62479   0.00000  Uiso   1.00
C450   C     0.75000   0.00000   0.08990   0.00000  Uiso   1.00
C451   C     0.81546   0.39160   0.55740   0.00000  Uiso   1.00
C452   C     0.88614   0.17122   0.38319   0.00000  Uiso   1.00
C453   C     0.90260   0.18196   0.44279   0.00000  Uiso   1.00
C454   C     0.61889   0.31806   0.62030   0.00000  Uiso   1.00
C455   C     0.59334   0.28824   0.59860   0.00000  Uiso   1.00
C456   C     0.50000   0.25000   0.91011   0.00000  Uiso   1.00
C457   C     0.50000   0.25000   0.08989   0.00000  Uiso   1.00
C458   C     0.57009   0.18007   0.25021   0.00000  Uiso   1.00
C459   C     0.93005   0.32008   0.75002   0.00000  Uiso   1.00
C460   C     0.68001   0.42988   0.25031   0.00000  Uiso   1.00
C461   C     0.50000   0.25000   0.97335   0.00000  Uiso   1.00
C462   C     0.81996   0.07006   0.74974   0.00000  Uiso   1.00
C463   C     0.92991   0.31993   0.25021   0.00000  Uiso   1.00
C464   C     0.56995   0.17993   0.75002   0.00000  Uiso   1.00
C465   C     0.81999   0.07012   0.25031   0.00000  Uiso   1.00
C466   C     0.68003   0.42994   0.74974   0.00000  Uiso   1.00
C467   C     0.57011   0.32000   0.74996   0.00000  Uiso   1.00
C468   C     0.93004   0.17989   0.24979   0.00000  Uiso   1.00
C469   C     0.67999   0.07001   0.75008   0.00000  Uiso   1.00
C470   C     0.82007   0.43006   0.24973   0.00000  Uiso   1.00
C471   C     0.92989   0.18000   0.74996   0.00000  Uiso   1.00
C472   C     0.75000   0.00000   0.02666   0.00000  Uiso   1.00
C473   C     0.56996   0.32011   0.24979   0.00000  Uiso   1.00
C474   C     0.82001   0.43000   0.75008   0.00000  Uiso   1.00
C475   C     0.67993   0.06994   0.24974   0.00000  Uiso   1.00
C476   C     0.61484   0.35809   0.19545   0.00000  Uiso   1.00
C477   C     0.88803   0.13865   0.80368   0.00000  Uiso   1.00
C478   C     0.86688   0.39393   0.19747   0.00000  Uiso   1.00
C479   C     0.64014   0.11316   0.80462   0.00000  Uiso   1.00
C480   C     0.88516   0.14191   0.19545   0.00000  Uiso   1.00
C481   C     0.61197   0.36135   0.80368   0.00000  Uiso   1.00
C482   C     0.63312   0.10607   0.19747   0.00000  Uiso   1.00
C483   C     0.75000   0.00000   0.97336   0.00000  Uiso   1.00
C484   C     0.85986   0.38684   0.80462   0.00000  Uiso   1.00
C485   C     0.61298   0.13993   0.80469   0.00000  Uiso   1.00
C486   C     0.89470   0.36775   0.19780   0.00000  Uiso   1.00
C487   C     0.86299   0.10988   0.80307   0.00000  Uiso   1.00
C488   C     0.64161   0.38523   0.19512   0.00000  Uiso   1.00
C489   C     0.88702   0.36007   0.80469   0.00000  Uiso   1.00
C490   C     0.60530   0.13225   0.19780   0.00000  Uiso   1.00
C491   C     0.63701   0.39013   0.80307   0.00000  Uiso   1.00
C492   C     0.85839   0.11477   0.19512   0.00000  Uiso   1.00
C493   C     0.85986   0.11320   0.69443   0.00000  Uiso   1.00
C494   C     0.75000   0.00000   0.52665   0.00000  Uiso   1.00
C495   C     0.63245   0.39434   0.30232   0.00000  Uiso   1.00
C496   C     0.60898   0.13588   0.69589   0.00000  Uiso   1.00
C497   C     0.88165   0.35465   0.30260   0.00000  Uiso   1.00
C498   C     0.64015   0.38679   0.69443   0.00000  Uiso   1.00
C499   C     0.86755   0.10566   0.30232   0.00000  Uiso   1.00
C500   C     0.89102   0.36412   0.69589   0.00000  Uiso   1.00
C501   C     0.61835   0.14535   0.30260   0.00000  Uiso   1.00
C502   C     0.85448   0.38157   0.30265   0.00000  Uiso   1.00
C503   C     0.63654   0.10959   0.69580   0.00000  Uiso   1.00
C504   C     0.60710   0.36590   0.30281   0.00000  Uiso   1.00
C505   C     0.75000   0.00000   0.47335   0.00000  Uiso   1.00
C506   C     0.88745   0.13962   0.69486   0.00000  Uiso   1.00
C507   C     0.64552   0.11843   0.30266   0.00000  Uiso   1.00
C508   C     0.86346   0.39041   0.69580   0.00000  Uiso   1.00
C509   C     0.89290   0.13410   0.30281   0.00000  Uiso   1.00
C510   C     0.61255   0.36038   0.69486   0.00000  Uiso   1.00
C511   C     0.65093   0.40281   0.24905   0.00000  Uiso   1.00
C512   C     0.84769   0.09838   0.74888   0.00000  Uiso   1.00
C513   C     0.90183   0.34797   0.25029   0.00000  Uiso   1.00
C514   C     0.59767   0.15154   0.75023   0.00000  Uiso   1.00
C515   C     0.84907   0.09719   0.24905   0.00000  Uiso   1.00
C516   C     0.50000   0.25000   0.52666   0.00000  Uiso   1.00
C517   C     0.65231   0.40161   0.74888   0.00000  Uiso   1.00
C518   C     0.59817   0.15203   0.25029   0.00000  Uiso   1.00
C519   C     0.90233   0.34846   0.75023   0.00000  Uiso   1.00
C520   C     0.65198   0.09810   0.75016   0.00000  Uiso   1.00
C521   C     0.84756   0.40146   0.25014   0.00000  Uiso   1.00
C522   C     0.90134   0.15236   0.74946   0.00000  Uiso   1.00
C523   C     0.59768   0.34849   0.24924   0.00000  Uiso   1.00
C524   C     0.84802   0.40190   0.75016   0.00000  Uiso   1.00
C525   C     0.65244   0.09854   0.25014   0.00000  Uiso   1.00
C526   C     0.59866   0.34764   0.74946   0.00000  Uiso   1.00
C527   C     0.50000   0.25000   0.47336   0.00000  Uiso   1.00
C528   C     0.90232   0.15152   0.24924   0.00000  Uiso   1.00
C529   C     0.58199   0.35889   0.10834   0.00000  Uiso   1.00
C530   C     0.55310   0.33305   0.08433   0.00000  Uiso   1.00
C531   C     0.87834   0.17198   0.88769   0.00000  Uiso   1.00
C532   C     0.89579   0.18506   0.94518   0.00000  Uiso   1.00
C533   C     0.87722   0.44391   0.13857   0.00000  Uiso   1.00
C534   C     0.85320   0.47229   0.10840   0.00000  Uiso   1.00
C535   C     0.64016   0.07106   0.87962   0.00000  Uiso   1.00
C536   C     0.65585   0.06233   0.94066   0.00000  Uiso   1.00
C537   C     0.91802   0.14111   0.10834   0.00000  Uiso   1.00
C538   C     0.50000   0.25000   0.41011   0.00000  Uiso   1.00
C539   C     0.94690   0.16695   0.08433   0.00000  Uiso   1.00
C540   C     0.62165   0.32803   0.88769   0.00000  Uiso   1.00
C541   C     0.60420   0.31494   0.94518   0.00000  Uiso   1.00
C542   C     0.62278   0.05609   0.13859   0.00000  Uiso   1.00
C543   C     0.64679   0.02771   0.10840   0.00000  Uiso   1.00
C544   C     0.85984   0.42894   0.87962   0.00000  Uiso   1.00
C545   C     0.84414   0.43767   0.94065   0.00000  Uiso   1.00
C546   C     0.56767   0.14143   0.87529   0.00000  Uiso   1.00
C547   C     0.56424   0.14263   0.94266   0.00000  Uiso   1.00
C548   C     0.94852   0.37854   0.14980   0.00000  Uiso   1.00
H549   H     0.59686   0.37065   0.06983   0.00000  Uiso   1.00
H550   H     0.90332   0.16119   0.97298   0.00000  Uiso   1.00
H551   H     0.90342   0.27899   0.42504   0.00000  Uiso   1.00
H552   H     0.68714   0.35488   0.63320   0.00000  Uiso   1.00
H553   H     0.70846   0.39737   0.65435   0.00000  Uiso   1.00
H554   H     0.69686   0.42274   0.55404   0.00000  Uiso   1.00
H555   H     0.72211   0.38041   0.54971   0.00000  Uiso   1.00
H556   H     0.67399   0.38107   0.53240   0.00000  Uiso   1.00
H557   H     0.91019   0.07807   0.38355   0.00000  Uiso   1.00
H558   H     0.88835   0.04324   0.33875   0.00000  Uiso   1.00
H559   H     0.84490   0.03098   0.42167   0.00000  Uiso   1.00
H560   H     0.89180   0.02533   0.44486   0.00000  Uiso   1.00
H561   H     0.90126   0.43883   0.10965   0.00000  Uiso   1.00
H562   H     0.86674   0.06586   0.46607   0.00000  Uiso   1.00
H563   H     0.86438   0.32695   0.60991   0.00000  Uiso   1.00
H564   H     0.89943   0.30014   0.64610   0.00000  Uiso   1.00
H565   H     0.94251   0.31570   0.56335   0.00000  Uiso   1.00
H566   H     0.90227   0.29226   0.53766   0.00000  Uiso   1.00
H567   H     0.90634   0.34090   0.52693   0.00000  Uiso   1.00
H568   H     0.61683   0.21659   0.32007   0.00000  Uiso   1.00
H569   H     0.65867   0.19467   0.34373   0.00000  Uiso   1.00
H570   H     0.63804   0.19814   0.44892   0.00000  Uiso   1.00
H571   H     0.64046   0.24245   0.41409   0.00000  Uiso   1.00
H572   H     0.88695   0.45571   0.18162   0.00000  Uiso   1.00
H573   H     0.59656   0.22101   0.42504   0.00000  Uiso   1.00
H574   H     0.79770   0.34913   0.32447   0.00000  Uiso   1.00
H575   H     0.78144   0.39560   0.32910   0.00000  Uiso   1.00
H576   H     0.78349   0.39391   0.43768   0.00000  Uiso   1.00
H577   H     0.75663   0.35650   0.40939   0.00000  Uiso   1.00
H578   H     0.80245   0.34812   0.43616   0.00000  Uiso   1.00
H579   H     0.70409   0.09288   0.64354   0.00000  Uiso   1.00
H580   H     0.68527   0.13833   0.63938   0.00000  Uiso   1.00
H581   H     0.66199   0.12420   0.53680   0.00000  Uiso   1.00
H582   H     0.71098   0.12049   0.54376   0.00000  Uiso   1.00
H583   H     0.83077   0.48068   0.13874   0.00000  Uiso   1.00
H584   H     0.68339   0.07968   0.54146   0.00000  Uiso   1.00
H585   H     0.64178   0.33965   0.39153   0.00000  Uiso   1.00
H586   H     0.61584   0.30388   0.35492   0.00000  Uiso   1.00
H587   H     0.57000   0.30581   0.43602   0.00000  Uiso   1.00
H588   H     0.61527   0.29779   0.46524   0.00000  Uiso   1.00
H589   H     0.59478   0.34245   0.47183   0.00000  Uiso   1.00
H590   H     0.86227   0.19433   0.65387   0.00000  Uiso   1.00
H591   H     0.86453   0.17255   0.58187   0.00000  Uiso   1.00
H592   H     0.92676   0.20039   0.56650   0.00000  Uiso   1.00
H593   H     0.89052   0.23337   0.57617   0.00000  Uiso   1.00
H594   H     0.86988   0.49653   0.09699   0.00000  Uiso   1.00
H595   H     0.92145   0.22400   0.63678   0.00000  Uiso   1.00
H596   H     0.70229   0.15087   0.32449   0.00000  Uiso   1.00
H597   H     0.71856   0.10441   0.32909   0.00000  Uiso   1.00
H598   H     0.71651   0.10608   0.43767   0.00000  Uiso   1.00
H599   H     0.74337   0.14349   0.40941   0.00000  Uiso   1.00
H600   H     0.69755   0.15186   0.43618   0.00000  Uiso   1.00
H601   H     0.79592   0.40717   0.64346   0.00000  Uiso   1.00
H602   H     0.81469   0.36171   0.63945   0.00000  Uiso   1.00
H603   H     0.83803   0.37571   0.53687   0.00000  Uiso   1.00
H604   H     0.78905   0.37947   0.54376   0.00000  Uiso   1.00
H605   H     0.84123   0.46100   0.06697   0.00000  Uiso   1.00
H606   H     0.81667   0.42025   0.54138   0.00000  Uiso   1.00
H607   H     0.85822   0.16035   0.39153   0.00000  Uiso   1.00
H608   H     0.88416   0.19613   0.35491   0.00000  Uiso   1.00
H609   H     0.93000   0.19419   0.43602   0.00000  Uiso   1.00
H610   H     0.88472   0.20221   0.46523   0.00000  Uiso   1.00
H611   H     0.90521   0.15756   0.47183   0.00000  Uiso   1.00
H612   H     0.63774   0.30567   0.65388   0.00000  Uiso   1.00
H613   H     0.63548   0.32744   0.58187   0.00000  Uiso   1.00
H614   H     0.57325   0.29959   0.56650   0.00000  Uiso   1.00
H615   H     0.60950   0.26662   0.57619   0.00000  Uiso   1.00
H616   H     0.64595   0.04758   0.84968   0.00000  Uiso   1.00
H617   H     0.57856   0.27599   0.63680   0.00000  Uiso   1.00
H618   H     0.61012   0.07408   0.88440   0.00000  Uiso   1.00
H619   H     0.64977   0.08492   0.97214   0.00000  Uiso   1.00
H620   H     0.64351   0.03683   0.95795   0.00000  Uiso   1.00
H621   H     0.56766   0.38153   0.13223   0.00000  Uiso   1.00
H622   H     0.68588   0.05861   0.93758   0.00000  Uiso   1.00
H623   H     0.90314   0.12935   0.06984   0.00000  Uiso   1.00
H624   H     0.93234   0.11847   0.13224   0.00000  Uiso   1.00
H625   H     0.96551   0.17534   0.12082   0.00000  Uiso   1.00
H626   H     0.96311   0.15308   0.04920   0.00000  Uiso   1.00
H627   H     0.93381   0.19152   0.06472   0.00000  Uiso   1.00
H628   H     0.64681   0.34339   0.89944   0.00000  Uiso   1.00
H629   H     0.62928   0.30368   0.86066   0.00000  Uiso   1.00
H630   H     0.57926   0.29889   0.93529   0.00000  Uiso   1.00
H631   H     0.62371   0.29753   0.97026   0.00000  Uiso   1.00
H632   H     0.53449   0.32467   0.12082   0.00000  Uiso   1.00
H633   H     0.59667   0.33881   0.97298   0.00000  Uiso   1.00
H634   H     0.59873   0.06117   0.10968   0.00000  Uiso   1.00
H635   H     0.61306   0.04429   0.18163   0.00000  Uiso   1.00
H636   H     0.66923   0.01932   0.13873   0.00000  Uiso   1.00
H637   H     0.63012   0.00346   0.09700   0.00000  Uiso   1.00
H638   H     0.65876   0.03900   0.06697   0.00000  Uiso   1.00
H639   H     0.85406   0.45242   0.84967   0.00000  Uiso   1.00
H640   H     0.88988   0.42592   0.88442   0.00000  Uiso   1.00
H641   H     0.85021   0.41509   0.97214   0.00000  Uiso   1.00
H642   H     0.85648   0.46318   0.95794   0.00000  Uiso   1.00
H643   H     0.53689   0.34692   0.04919   0.00000  Uiso   1.00
H644   H     0.81411   0.44140   0.93755   0.00000  Uiso   1.00
H645   H     0.56284   0.11280   0.86047   0.00000  Uiso   1.00
H646   H     0.54574   0.15889   0.85646   0.00000  Uiso   1.00
H647   H     0.56740   0.17109   0.95882   0.00000  Uiso   1.00
H648   H     0.53691   0.13244   0.95597   0.00000  Uiso   1.00
H649   H     0.58558   0.12518   0.96333   0.00000  Uiso   1.00
H650   H     0.96758   0.36224   0.17764   0.00000  Uiso   1.00
H651   H     0.94655   0.40662   0.16871   0.00000  Uiso   1.00
H652   H     0.94689   0.39810   0.05887   0.00000  Uiso   1.00
H653   H     0.99209   0.39470   0.09046   0.00000  Uiso   1.00
H654   H     0.56619   0.30848   0.06473   0.00000  Uiso   1.00
H655   H     0.96811   0.35378   0.06837   0.00000  Uiso   1.00
H656   H     0.90821   0.07096   0.85869   0.00000  Uiso   1.00
H657   H     0.87404   0.04137   0.82568   0.00000  Uiso   1.00
H658   H     0.84457   0.03508   0.92581   0.00000  Uiso   1.00
H659   H     0.89137   0.01926   0.92450   0.00000  Uiso   1.00
H660   H     0.88073   0.06293   0.95722   0.00000  Uiso   1.00
H661   H     0.65658   0.44813   0.14494   0.00000  Uiso   1.00
H662   H     0.62002   0.42478   0.10782   0.00000  Uiso   1.00
H663   H     0.66181   0.40675   0.02652   0.00000  Uiso   1.00
H664   H     0.66345   0.45568   0.03794   0.00000  Uiso   1.00
H665   H     0.85318   0.15661   0.89944   0.00000  Uiso   1.00
H666   H     0.69988   0.42706   0.06517   0.00000  Uiso   1.00
H667   H     0.93716   0.38720   0.86048   0.00000  Uiso   1.00
H668   H     0.95426   0.34111   0.85646   0.00000  Uiso   1.00
H669   H     0.93260   0.32890   0.95882   0.00000  Uiso   1.00
H670   H     0.96309   0.36755   0.95597   0.00000  Uiso   1.00
H671   H     0.91442   0.37482   0.96334   0.00000  Uiso   1.00
H672   H     0.53242   0.13778   0.17763   0.00000  Uiso   1.00
H673   H     0.55344   0.09339   0.16873   0.00000  Uiso   1.00
H674   H     0.55311   0.10189   0.05889   0.00000  Uiso   1.00
H675   H     0.50791   0.10531   0.09045   0.00000  Uiso   1.00
H676   H     0.87071   0.19632   0.86065   0.00000  Uiso   1.00
H677   H     0.53190   0.14622   0.06835   0.00000  Uiso   1.00
H678   H     0.59178   0.42902   0.85874   0.00000  Uiso   1.00
H679   H     0.62592   0.45862   0.82565   0.00000  Uiso   1.00
H680   H     0.65544   0.46495   0.92575   0.00000  Uiso   1.00
H681   H     0.60863   0.48076   0.92447   0.00000  Uiso   1.00
H682   H     0.61930   0.43710   0.95722   0.00000  Uiso   1.00
H683   H     0.84341   0.05187   0.14494   0.00000  Uiso   1.00
H684   H     0.87998   0.07522   0.10782   0.00000  Uiso   1.00
H685   H     0.83819   0.09325   0.02652   0.00000  Uiso   1.00
H686   H     0.83656   0.04432   0.03794   0.00000  Uiso   1.00
H687   H     0.92073   0.20111   0.93529   0.00000  Uiso   1.00
H688   H     0.80012   0.07294   0.06516   0.00000  Uiso   1.00
H689   H     0.81287   0.14512   0.63319   0.00000  Uiso   1.00
H690   H     0.79154   0.10263   0.65434   0.00000  Uiso   1.00
H691   H     0.80315   0.07726   0.55403   0.00000  Uiso   1.00
H692   H     0.77791   0.11959   0.54969   0.00000  Uiso   1.00
H693   H     0.82604   0.11892   0.53240   0.00000  Uiso   1.00
H694   H     0.58981   0.42193   0.38355   0.00000  Uiso   1.00
H695   H     0.61165   0.45676   0.33874   0.00000  Uiso   1.00
H696   H     0.65510   0.46902   0.42167   0.00000  Uiso   1.00
H697   H     0.60820   0.47467   0.44486   0.00000  Uiso   1.00
H698   H     0.87628   0.20247   0.97025   0.00000  Uiso   1.00
H699   H     0.63326   0.43414   0.46607   0.00000  Uiso   1.00
H700   H     0.63559   0.17303   0.60985   0.00000  Uiso   1.00
H701   H     0.60057   0.19984   0.64609   0.00000  Uiso   1.00
H702   H     0.55744   0.18427   0.56338   0.00000  Uiso   1.00
H703   H     0.59767   0.20773   0.53765   0.00000  Uiso   1.00
H704   H     0.59361   0.15909   0.52691   0.00000  Uiso   1.00
H705   H     0.88317   0.28340   0.32006   0.00000  Uiso   1.00
H706   H     0.84133   0.30533   0.34370   0.00000  Uiso   1.00
H707   H     0.86193   0.30186   0.44890   0.00000  Uiso   1.00
H708   H     0.85952   0.25754   0.41406   0.00000  Uiso   1.00
O709   O     0.50000   0.25000   0.25000   0.00000  Uiso   1.00
O710   O     0.50000   0.28036   0.61781   0.00000  Uiso   1.00
O711   O     0.71964   0.00000   0.38219   0.00000  Uiso   1.00
O712   O     0.78035   0.00000   0.61781   0.00000  Uiso   1.00
O713   O     0.75000   0.03036   0.88219   0.00000  Uiso   1.00
O714   O     0.75000   0.46965   0.11781   0.00000  Uiso   1.00
O715   O     0.53035   0.25000   0.88219   0.00000  Uiso   1.00
O716   O     0.96964   0.25000   0.11781   0.00000  Uiso   1.00
O717   O     0.75000   0.46965   0.88219   0.00000  Uiso   1.00
O718   O     0.75000   0.03036   0.11781   0.00000  Uiso   1.00
O719   O     0.96964   0.25000   0.88219   0.00000  Uiso   1.00
O720   O     0.50000   0.25000   0.75000   0.00000  Uiso   1.00
O721   O     0.53035   0.25000   0.11781   0.00000  Uiso   1.00
O722   O     0.54267   0.17693   0.28474   0.00000  Uiso   1.00
O723   O     0.95732   0.32308   0.71526   0.00000  Uiso   1.00
O724   O     0.67692   0.45733   0.28474   0.00000  Uiso   1.00
O725   O     0.82307   0.04268   0.71526   0.00000  Uiso   1.00
O726   O     0.95732   0.32308   0.28474   0.00000  Uiso   1.00
O727   O     0.54267   0.17693   0.71526   0.00000  Uiso   1.00
O728   O     0.82307   0.04268   0.28474   0.00000  Uiso   1.00
O729   O     0.67692   0.45733   0.71526   0.00000  Uiso   1.00
O730   O     0.54267   0.32308   0.71526   0.00000  Uiso   1.00
O731   O     0.75000   0.00000   0.25000   0.00000  Uiso   1.00
O732   O     0.95732   0.17693   0.28474   0.00000  Uiso   1.00
O733   O     0.67692   0.04268   0.71526   0.00000  Uiso   1.00
O734   O     0.82307   0.45733   0.28474   0.00000  Uiso   1.00
O735   O     0.95732   0.17693   0.71526   0.00000  Uiso   1.00
O736   O     0.54267   0.32308   0.28474   0.00000  Uiso   1.00
O737   O     0.82307   0.45733   0.71526   0.00000  Uiso   1.00
O738   O     0.67692   0.04268   0.28474   0.00000  Uiso   1.00
O739   O     0.79267   0.42693   0.78474   0.00000  Uiso   1.00
O740   O     0.70732   0.07308   0.21526   0.00000  Uiso   1.00
O741   O     0.92692   0.20733   0.78474   0.00000  Uiso   1.00
O742   O     0.75000   0.00000   0.75000   0.00000  Uiso   1.00
O743   O     0.57307   0.29268   0.21526   0.00000  Uiso   1.00
O744   O     0.70732   0.07308   0.78474   0.00000  Uiso   1.00
O745   O     0.79267   0.42693   0.21526   0.00000  Uiso   1.00
O746   O     0.57307   0.29268   0.78474   0.00000  Uiso   1.00
O747   O     0.92692   0.20733   0.21526   0.00000  Uiso   1.00
O748   O     0.79267   0.07308   0.21526   0.00000  Uiso   1.00
O749   O     0.70732   0.42693   0.78474   0.00000  Uiso   1.00
O750   O     0.92692   0.29268   0.21526   0.00000  Uiso   1.00
O751   O     0.57307   0.20733   0.78474   0.00000  Uiso   1.00
O752   O     0.70732   0.42693   0.21526   0.00000  Uiso   1.00
O753   O     0.50000   0.28036   0.38219   0.00000  Uiso   1.00
O754   O     0.79267   0.07308   0.78474   0.00000  Uiso   1.00
O755   O     0.57307   0.20733   0.21526   0.00000  Uiso   1.00
O756   O     0.92692   0.29268   0.78474   0.00000  Uiso   1.00
O757   O     0.60712   0.33905   0.14371   0.00000  Uiso   1.00
O758   O     0.90355   0.14969   0.85687   0.00000  Uiso   1.00
O759   O     0.85735   0.41109   0.14478   0.00000  Uiso   1.00
O760   O     0.65636   0.10344   0.85807   0.00000  Uiso   1.00
O761   O     0.89288   0.16095   0.14371   0.00000  Uiso   1.00
O762   O     0.59645   0.35031   0.85687   0.00000  Uiso   1.00
O763   O     0.64264   0.08891   0.14478   0.00000  Uiso   1.00
O764   O     0.50000   0.21965   0.61781   0.00000  Uiso   1.00
O765   O     0.84364   0.39656   0.85807   0.00000  Uiso   1.00
O766   O     0.60240   0.15499   0.85866   0.00000  Uiso   1.00
O767   O     0.91411   0.36120   0.14595   0.00000  Uiso   1.00
O768   O     0.85492   0.09185   0.85557   0.00000  Uiso   1.00
O769   O     0.66107   0.39114   0.14314   0.00000  Uiso   1.00
O770   O     0.89760   0.34501   0.85866   0.00000  Uiso   1.00
O771   O     0.58590   0.13880   0.14595   0.00000  Uiso   1.00
O772   O     0.64508   0.40816   0.85557   0.00000  Uiso   1.00
O773   O     0.83893   0.10886   0.14314   0.00000  Uiso   1.00
O774   O     0.84776   0.09965   0.64036   0.00000  Uiso   1.00
O775   O     0.78035   0.00000   0.38219   0.00000  Uiso   1.00
O776   O     0.64305   0.41018   0.35558   0.00000  Uiso   1.00
O777   O     0.59111   0.14363   0.64300   0.00000  Uiso   1.00
O778   O     0.88920   0.33592   0.35474   0.00000  Uiso   1.00
O779   O     0.65224   0.40034   0.64035   0.00000  Uiso   1.00
O780   O     0.85695   0.08982   0.35558   0.00000  Uiso   1.00
O781   O     0.90888   0.35636   0.64300   0.00000  Uiso   1.00
O782   O     0.61080   0.16407   0.35475   0.00000  Uiso   1.00
O783   O     0.83557   0.38853   0.35496   0.00000  Uiso   1.00
O784   O     0.64734   0.09468   0.64188   0.00000  Uiso   1.00
O785   O     0.59133   0.35532   0.35608   0.00000  Uiso   1.00
O786   O     0.71964   0.00000   0.61781   0.00000  Uiso   1.00
O787   O     0.90193   0.15209   0.64170   0.00000  Uiso   1.00
O788   O     0.66442   0.11147   0.35496   0.00000  Uiso   1.00
O789   O     0.85267   0.40533   0.64188   0.00000  Uiso   1.00
O790   O     0.90867   0.14468   0.35609   0.00000  Uiso   1.00
O791   O     0.59808   0.34790   0.64170   0.00000  Uiso   1.00
O792   O     0.50000   0.21965   0.38219   0.00000  Uiso   1.00
Zn793  Zn    0.54333   0.25000   0.20067   0.00000  Uiso   1.00
Zn794  Zn    0.70667   0.00000   0.29933   0.00000  Uiso   1.00
Zn795  Zn    0.50000   0.20667   0.70067   0.00000  Uiso   1.00
Zn796  Zn    0.50000   0.29333   0.29933   0.00000  Uiso   1.00
Zn797  Zn    0.70667   0.00000   0.70067   0.00000  Uiso   1.00
Zn798  Zn    0.79333   0.00000   0.29933   0.00000  Uiso   1.00
Zn799  Zn    0.50000   0.29333   0.70067   0.00000  Uiso   1.00
Zn800  Zn    0.50000   0.20667   0.29933   0.00000  Uiso   1.00
Zn801  Zn    0.95667   0.25000   0.79933   0.00000  Uiso   1.00
Zn802  Zn    0.75000   0.45667   0.20067   0.00000  Uiso   1.00
Zn803  Zn    0.75000   0.04333   0.79933   0.00000  Uiso   1.00
Zn804  Zn    0.95667   0.25000   0.20067   0.00000  Uiso   1.00
Zn805  Zn    0.54333   0.25000   0.79933   0.00000  Uiso   1.00
Zn806  Zn    0.75000   0.04333   0.20067   0.00000  Uiso   1.00
Zn807  Zn    0.75000   0.45667   0.79933   0.00000  Uiso   1.00
Zn808  Zn    0.79333   0.00000   0.70067   0.00000  Uiso   1.00
C809   C     0.00000   0.75000   0.02665   0.00000  Uiso   1.00
C810   C     0.00000   0.75000   0.58990   0.00000  Uiso   1.00
C811   C     0.46491   0.88144   0.08790   0.00000  Uiso   1.00
C812   C     0.37918   0.56197   0.86113   0.00000  Uiso   1.00
C813   C     0.37348   0.54367   0.92102   0.00000  Uiso   1.00
C814   C     0.14988   0.92430   0.11657   0.00000  Uiso   1.00
C815   C     0.16997   0.92873   0.05780   0.00000  Uiso   1.00
C816   C     0.43233   0.85857   0.87530   0.00000  Uiso   1.00
C817   C     0.43576   0.85737   0.94266   0.00000  Uiso   1.00
C818   C     0.05148   0.62147   0.14980   0.00000  Uiso   1.00
C819   C     0.03509   0.61856   0.08789   0.00000  Uiso   1.00
C820   C     0.12080   0.93803   0.86112   0.00000  Uiso   1.00
C821   C     0.25000   0.50000   0.41011   0.00000  Uiso   1.00
C822   C     0.12652   0.95635   0.92099   0.00000  Uiso   1.00
C823   C     0.35012   0.57570   0.11657   0.00000  Uiso   1.00
C824   C     0.33003   0.57127   0.05780   0.00000  Uiso   1.00
C825   C     0.31334   0.61500   0.62654   0.00000  Uiso   1.00
C826   C     0.30458   0.60718   0.56157   0.00000  Uiso   1.00
C827   C     0.11619   0.93561   0.37363   0.00000  Uiso   1.00
C828   C     0.12903   0.95454   0.43012   0.00000  Uiso   1.00
C829   C     0.10574   0.67562   0.61746   0.00000  Uiso   1.00
C830   C     0.08745   0.68207   0.55760   0.00000  Uiso   1.00
C831   C     0.37088   0.80201   0.35367   0.00000  Uiso   1.00
C832   C     0.25000   0.50000   0.58989   0.00000  Uiso   1.00
C833   C     0.37422   0.78399   0.41432   0.00000  Uiso   1.00
C834   C     0.18667   0.88500   0.62655   0.00000  Uiso   1.00
C835   C     0.19544   0.89282   0.56158   0.00000  Uiso   1.00
C836   C     0.38381   0.56439   0.37363   0.00000  Uiso   1.00
C837   C     0.37097   0.54546   0.43012   0.00000  Uiso   1.00
C838   C     0.39424   0.82437   0.61748   0.00000  Uiso   1.00
C839   C     0.41250   0.81792   0.55760   0.00000  Uiso   1.00
C840   C     0.12911   0.69798   0.35368   0.00000  Uiso   1.00
C841   C     0.12576   0.71601   0.41433   0.00000  Uiso   1.00
C842   C     0.29947   0.87502   0.35038   0.00000  Uiso   1.00
C843   C     0.25000   0.50000   0.91011   0.00000  Uiso   1.00
C844   C     0.28463   0.86790   0.41241   0.00000  Uiso   1.00
C845   C     0.18145   0.60948   0.62479   0.00000  Uiso   1.00
C846   C     0.18457   0.60834   0.55740   0.00000  Uiso   1.00
C847   C     0.11386   0.82879   0.38319   0.00000  Uiso   1.00
C848   C     0.09739   0.81805   0.44279   0.00000  Uiso   1.00
C849   C     0.38112   0.68193   0.62029   0.00000  Uiso   1.00
C850   C     0.40667   0.71174   0.59858   0.00000  Uiso   1.00
C851   C     0.20052   0.62498   0.35038   0.00000  Uiso   1.00
C852   C     0.21537   0.63209   0.41242   0.00000  Uiso   1.00
C853   C     0.31855   0.89053   0.62479   0.00000  Uiso   1.00
C854   C     0.25000   0.50000   0.08990   0.00000  Uiso   1.00
C855   C     0.31546   0.89160   0.55740   0.00000  Uiso   1.00
C856   C     0.38614   0.67122   0.38319   0.00000  Uiso   1.00
C857   C     0.40260   0.68196   0.44279   0.00000  Uiso   1.00
C858   C     0.11889   0.81806   0.62030   0.00000  Uiso   1.00
C859   C     0.09334   0.78824   0.59860   0.00000  Uiso   1.00
C860   C    -0.00000   0.75000   0.91011   0.00000  Uiso   1.00
C861   C     0.00000   0.75000   0.08989   0.00000  Uiso   1.00
C862   C     0.07009   0.68007   0.25021   0.00000  Uiso   1.00
C863   C     0.43005   0.82008   0.75002   0.00000  Uiso   1.00
C864   C     0.18001   0.92988   0.25031   0.00000  Uiso   1.00
C865   C    -0.00000   0.75000   0.97335   0.00000  Uiso   1.00
C866   C     0.31996   0.57006   0.74974   0.00000  Uiso   1.00
C867   C     0.42991   0.81993   0.25021   0.00000  Uiso   1.00
C868   C     0.06995   0.67993   0.75002   0.00000  Uiso   1.00
C869   C     0.31999   0.57012   0.25031   0.00000  Uiso   1.00
C870   C     0.18003   0.92994   0.74974   0.00000  Uiso   1.00
C871   C     0.07011   0.82000   0.74996   0.00000  Uiso   1.00
C872   C     0.43004   0.67989   0.24979   0.00000  Uiso   1.00
C873   C     0.17999   0.57001   0.75008   0.00000  Uiso   1.00
C874   C     0.32007   0.93006   0.24973   0.00000  Uiso   1.00
C875   C     0.42989   0.68000   0.74996   0.00000  Uiso   1.00
C876   C     0.25000   0.50000   0.02666   0.00000  Uiso   1.00
C877   C     0.06996   0.82011   0.24979   0.00000  Uiso   1.00
C878   C     0.32001   0.93000   0.75008   0.00000  Uiso   1.00
C879   C     0.17993   0.56994   0.24974   0.00000  Uiso   1.00
C880   C     0.11484   0.85809   0.19545   0.00000  Uiso   1.00
C881   C     0.38803   0.63865   0.80368   0.00000  Uiso   1.00
C882   C     0.36688   0.89393   0.19747   0.00000  Uiso   1.00
C883   C     0.14014   0.61316   0.80462   0.00000  Uiso   1.00
C884   C     0.38516   0.64191   0.19545   0.00000  Uiso   1.00
C885   C     0.11197   0.86135   0.80368   0.00000  Uiso   1.00
C886   C     0.13312   0.60607   0.19747   0.00000  Uiso   1.00
C887   C     0.25000   0.50000   0.97336   0.00000  Uiso   1.00
C888   C     0.35986   0.88684   0.80462   0.00000  Uiso   1.00
C889   C     0.11298   0.63993   0.80469   0.00000  Uiso   1.00
C890   C     0.39470   0.86775   0.19780   0.00000  Uiso   1.00
C891   C     0.36299   0.60988   0.80307   0.00000  Uiso   1.00
C892   C     0.14161   0.88523   0.19512   0.00000  Uiso   1.00
C893   C     0.38702   0.86007   0.80469   0.00000  Uiso   1.00
C894   C     0.10530   0.63225   0.19780   0.00000  Uiso   1.00
C895   C     0.13701   0.89013   0.80307   0.00000  Uiso   1.00
C896   C     0.35839   0.61477   0.19512   0.00000  Uiso   1.00
C897   C     0.35986   0.61320   0.69443   0.00000  Uiso   1.00
C898   C     0.25000   0.50000   0.52665   0.00000  Uiso   1.00
C899   C     0.13245   0.89434   0.30232   0.00000  Uiso   1.00
C900   C     0.10898   0.63588   0.69589   0.00000  Uiso   1.00
C901   C     0.38165   0.85465   0.30260   0.00000  Uiso   1.00
C902   C     0.14015   0.88679   0.69443   0.00000  Uiso   1.00
C903   C     0.36755   0.60566   0.30232   0.00000  Uiso   1.00
C904   C     0.39102   0.86412   0.69589   0.00000  Uiso   1.00
C905   C     0.11835   0.64535   0.30260   0.00000  Uiso   1.00
C906   C     0.35448   0.88157   0.30265   0.00000  Uiso   1.00
C907   C     0.13654   0.60959   0.69580   0.00000  Uiso   1.00
C908   C     0.10710   0.86590   0.30281   0.00000  Uiso   1.00
C909   C     0.25000   0.50000   0.47335   0.00000  Uiso   1.00
C910   C     0.38745   0.63962   0.69486   0.00000  Uiso   1.00
C911   C     0.14552   0.61843   0.30266   0.00000  Uiso   1.00
C912   C     0.36346   0.89041   0.69580   0.00000  Uiso   1.00
C913   C     0.39290   0.63410   0.30281   0.00000  Uiso   1.00
C914   C     0.11255   0.86038   0.69486   0.00000  Uiso   1.00
C915   C     0.15093   0.90281   0.24905   0.00000  Uiso   1.00
C916   C     0.34769   0.59838   0.74888   0.00000  Uiso   1.00
C917   C     0.40183   0.84797   0.25029   0.00000  Uiso   1.00
C918   C     0.09767   0.65154   0.75023   0.00000  Uiso   1.00
C919   C     0.34907   0.59719   0.24905   0.00000  Uiso   1.00
C920   C     0.00000   0.75000   0.52666   0.00000  Uiso   1.00
C921   C     0.15231   0.90161   0.74888   0.00000  Uiso   1.00
C922   C     0.09817   0.65203   0.25029   0.00000  Uiso   1.00
C923   C     0.40233   0.84846   0.75023   0.00000  Uiso   1.00
C924   C     0.15198   0.59810   0.75016   0.00000  Uiso   1.00
C925   C     0.34756   0.90146   0.25014   0.00000  Uiso   1.00
C926   C     0.40134   0.65236   0.74946   0.00000  Uiso   1.00
C927   C     0.09768   0.84849   0.24924   0.00000  Uiso   1.00
C928   C     0.34802   0.90190   0.75016   0.00000  Uiso   1.00
C929   C     0.15244   0.59854   0.25014   0.00000  Uiso   1.00
C930   C     0.09866   0.84764   0.74946   0.00000  Uiso   1.00
C931   C     0.00000   0.75000   0.47336   0.00000  Uiso   1.00
C932   C     0.40232   0.65152   0.24924   0.00000  Uiso   1.00
C933   C     0.08199   0.85889   0.10834   0.00000  Uiso   1.00
C934   C     0.05310   0.83305   0.08433   0.00000  Uiso   1.00
C935   C     0.37834   0.67198   0.88769   0.00000  Uiso   1.00
C936   C     0.39579   0.68506   0.94518   0.00000  Uiso   1.00
C937   C     0.37722   0.94391   0.13857   0.00000  Uiso   1.00
C938   C     0.35320   0.97229   0.10840   0.00000  Uiso   1.00
C939   C     0.14016   0.57106   0.87962   0.00000  Uiso   1.00
C940   C     0.15585   0.56233   0.94066   0.00000  Uiso   1.00
C941   C     0.41802   0.64111   0.10834   0.00000  Uiso   1.00
C942   C    -0.00000   0.75000   0.41011   0.00000  Uiso   1.00
C943   C     0.44690   0.66695   0.08433   0.00000  Uiso   1.00
C944   C     0.12165   0.82803   0.88769   0.00000  Uiso   1.00
C945   C     0.10420   0.81494   0.94518   0.00000  Uiso   1.00
C946   C     0.12278   0.55609   0.13859   0.00000  Uiso   1.00
C947   C     0.14679   0.52771   0.10840   0.00000  Uiso   1.00
C948   C     0.35984   0.92894   0.87962   0.00000  Uiso   1.00
C949   C     0.34414   0.93767   0.94065   0.00000  Uiso   1.00
C950   C     0.06767   0.64143   0.87529   0.00000  Uiso   1.00
C951   C     0.06424   0.64263   0.94266   0.00000  Uiso   1.00
C952   C     0.44852   0.87854   0.14980   0.00000  Uiso   1.00
H953   H     0.09686   0.87065   0.06983   0.00000  Uiso   1.00
H954   H     0.40332   0.66119   0.97298   0.00000  Uiso   1.00
H955   H     0.40342   0.77899   0.42504   0.00000  Uiso   1.00
H956   H     0.18714   0.85488   0.63320   0.00000  Uiso   1.00
H957   H     0.20846   0.89737   0.65435   0.00000  Uiso   1.00
H958   H     0.19686   0.92274   0.55404   0.00000  Uiso   1.00
H959   H     0.22211   0.88041   0.54971   0.00000  Uiso   1.00
H960   H     0.17399   0.88107   0.53240   0.00000  Uiso   1.00
H961   H     0.41019   0.57807   0.38355   0.00000  Uiso   1.00
H962   H     0.38835   0.54324   0.33875   0.00000  Uiso   1.00
H963   H     0.34490   0.53098   0.42167   0.00000  Uiso   1.00
H964   H     0.39180   0.52533   0.44486   0.00000  Uiso   1.00
H965   H     0.40126   0.93883   0.10965   0.00000  Uiso   1.00
H966   H     0.36674   0.56586   0.46607   0.00000  Uiso   1.00
H967   H     0.36438   0.82695   0.60991   0.00000  Uiso   1.00
H968   H     0.39943   0.80014   0.64610   0.00000  Uiso   1.00
H969   H     0.44251   0.81570   0.56335   0.00000  Uiso   1.00
H970   H     0.40227   0.79226   0.53766   0.00000  Uiso   1.00
H971   H     0.40634   0.84090   0.52693   0.00000  Uiso   1.00
H972   H     0.11683   0.71659   0.32007   0.00000  Uiso   1.00
H973   H     0.15867   0.69467   0.34373   0.00000  Uiso   1.00
H974   H     0.13804   0.69814   0.44892   0.00000  Uiso   1.00
H975   H     0.14046   0.74245   0.41409   0.00000  Uiso   1.00
H976   H     0.38695   0.95571   0.18162   0.00000  Uiso   1.00
H977   H     0.09656   0.72101   0.42504   0.00000  Uiso   1.00
H978   H     0.29770   0.84913   0.32447   0.00000  Uiso   1.00
H979   H     0.28144   0.89560   0.32910   0.00000  Uiso   1.00
H980   H     0.28349   0.89391   0.43768   0.00000  Uiso   1.00
H981   H     0.25663   0.85650   0.40939   0.00000  Uiso   1.00
H982   H     0.30245   0.84812   0.43616   0.00000  Uiso   1.00
H983   H     0.20409   0.59288   0.64354   0.00000  Uiso   1.00
H984   H     0.18527   0.63833   0.63938   0.00000  Uiso   1.00
H985   H     0.16199   0.62420   0.53680   0.00000  Uiso   1.00
H986   H     0.21098   0.62049   0.54376   0.00000  Uiso   1.00
H987   H     0.33077   0.98068   0.13874   0.00000  Uiso   1.00
H988   H     0.18339   0.57968   0.54146   0.00000  Uiso   1.00
H989   H     0.14178   0.83965   0.39153   0.00000  Uiso   1.00
H990   H     0.11584   0.80388   0.35492   0.00000  Uiso   1.00
H991   H     0.07000   0.80581   0.43602   0.00000  Uiso   1.00
H992   H     0.11527   0.79779   0.46524   0.00000  Uiso   1.00
H993   H     0.09478   0.84245   0.47183   0.00000  Uiso   1.00
H994   H     0.36227   0.69433   0.65387   0.00000  Uiso   1.00
H995   H     0.36453   0.67255   0.58187   0.00000  Uiso   1.00
H996   H     0.42676   0.70039   0.56650   0.00000  Uiso   1.00
H997   H     0.39052   0.73337   0.57617   0.00000  Uiso   1.00
H998   H     0.36988   0.99653   0.09699   0.00000  Uiso   1.00
H999   H     0.42145   0.72400   0.63678   0.00000  Uiso   1.00
H1000  H     0.20229   0.65087   0.32449   0.00000  Uiso   1.00
H1001  H     0.21856   0.60441   0.32909   0.00000  Uiso   1.00
H1002  H     0.21651   0.60608   0.43767   0.00000  Uiso   1.00
H1003  H     0.24337   0.64349   0.40941   0.00000  Uiso   1.00
H1004  H     0.19755   0.65186   0.43618   0.00000  Uiso   1.00
H1005  H     0.29592   0.90717   0.64346   0.00000  Uiso   1.00
H1006  H     0.31469   0.86171   0.63945   0.00000  Uiso   1.00
H1007  H     0.33803   0.87571   0.53687   0.00000  Uiso   1.00
H1008  H     0.28905   0.87947   0.54376   0.00000  Uiso   1.00
H1009  H     0.34123   0.96100   0.06697   0.00000  Uiso   1.00
H1010  H     0.31667   0.92025   0.54138   0.00000  Uiso   1.00
H1011  H     0.35822   0.66035   0.39153   0.00000  Uiso   1.00
H1012  H     0.38416   0.69613   0.35491   0.00000  Uiso   1.00
H1013  H     0.43000   0.69419   0.43602   0.00000  Uiso   1.00
H1014  H     0.38472   0.70221   0.46523   0.00000  Uiso   1.00
H1015  H     0.40521   0.65756   0.47183   0.00000  Uiso   1.00
H1016  H     0.13774   0.80567   0.65388   0.00000  Uiso   1.00
H1017  H     0.13548   0.82744   0.58187   0.00000  Uiso   1.00
H1018  H     0.07325   0.79959   0.56650   0.00000  Uiso   1.00
H1019  H     0.10950   0.76662   0.57619   0.00000  Uiso   1.00
H1020  H     0.14595   0.54758   0.84968   0.00000  Uiso   1.00
H1021  H     0.07856   0.77599   0.63680   0.00000  Uiso   1.00
H1022  H     0.11012   0.57408   0.88440   0.00000  Uiso   1.00
H1023  H     0.14977   0.58492   0.97214   0.00000  Uiso   1.00
H1024  H     0.14351   0.53683   0.95795   0.00000  Uiso   1.00
H1025  H     0.06766   0.88153   0.13223   0.00000  Uiso   1.00
H1026  H     0.18588   0.55861   0.93758   0.00000  Uiso   1.00
H1027  H     0.40314   0.62935   0.06984   0.00000  Uiso   1.00
H1028  H     0.43234   0.61847   0.13224   0.00000  Uiso   1.00
H1029  H     0.46551   0.67534   0.12082   0.00000  Uiso   1.00
H1030  H     0.46311   0.65308   0.04920   0.00000  Uiso   1.00
H1031  H     0.43381   0.69152   0.06472   0.00000  Uiso   1.00
H1032  H     0.14681   0.84339   0.89944   0.00000  Uiso   1.00
H1033  H     0.12928   0.80368   0.86066   0.00000  Uiso   1.00
H1034  H     0.07926   0.79889   0.93529   0.00000  Uiso   1.00
H1035  H     0.12371   0.79753   0.97026   0.00000  Uiso   1.00
H1036  H     0.03449   0.82467   0.12082   0.00000  Uiso   1.00
H1037  H     0.09667   0.83881   0.97298   0.00000  Uiso   1.00
H1038  H     0.09873   0.56117   0.10968   0.00000  Uiso   1.00
H1039  H     0.11306   0.54429   0.18163   0.00000  Uiso   1.00
H1040  H     0.16923   0.51932   0.13873   0.00000  Uiso   1.00
H1041  H     0.13012   0.50346   0.09700   0.00000  Uiso   1.00
H1042  H     0.15876   0.53900   0.06697   0.00000  Uiso   1.00
H1043  H     0.35406   0.95242   0.84967   0.00000  Uiso   1.00
H1044  H     0.38988   0.92592   0.88442   0.00000  Uiso   1.00
H1045  H     0.35021   0.91509   0.97214   0.00000  Uiso   1.00
H1046  H     0.35648   0.96318   0.95794   0.00000  Uiso   1.00
H1047  H     0.03689   0.84692   0.04919   0.00000  Uiso   1.00
H1048  H     0.31411   0.94140   0.93755   0.00000  Uiso   1.00
H1049  H     0.06284   0.61280   0.86047   0.00000  Uiso   1.00
H1050  H     0.04574   0.65889   0.85646   0.00000  Uiso   1.00
H1051  H     0.06740   0.67109   0.95882   0.00000  Uiso   1.00
H1052  H     0.03691   0.63244   0.95597   0.00000  Uiso   1.00
H1053  H     0.08558   0.62518   0.96333   0.00000  Uiso   1.00
H1054  H     0.46758   0.86224   0.17764   0.00000  Uiso   1.00
H1055  H     0.44655   0.90662   0.16871   0.00000  Uiso   1.00
H1056  H     0.44689   0.89810   0.05887   0.00000  Uiso   1.00
H1057  H     0.49209   0.89470   0.09046   0.00000  Uiso   1.00
H1058  H     0.06619   0.80848   0.06473   0.00000  Uiso   1.00
H1059  H     0.46811   0.85378   0.06837   0.00000  Uiso   1.00
H1060  H     0.40821   0.57096   0.85869   0.00000  Uiso   1.00
H1061  H     0.37404   0.54137   0.82568   0.00000  Uiso   1.00
H1062  H     0.34457   0.53508   0.92581   0.00000  Uiso   1.00
H1063  H     0.39137   0.51926   0.92450   0.00000  Uiso   1.00
H1064  H     0.38073   0.56293   0.95722   0.00000  Uiso   1.00
H1065  H     0.15658   0.94813   0.14494   0.00000  Uiso   1.00
H1066  H     0.12002   0.92478   0.10782   0.00000  Uiso   1.00
H1067  H     0.16181   0.90675   0.02652   0.00000  Uiso   1.00
H1068  H     0.16345   0.95568   0.03794   0.00000  Uiso   1.00
H1069  H     0.35318   0.65661   0.89944   0.00000  Uiso   1.00
H1070  H     0.19988   0.92706   0.06517   0.00000  Uiso   1.00
H1071  H     0.43716   0.88720   0.86048   0.00000  Uiso   1.00
H1072  H     0.45426   0.84111   0.85646   0.00000  Uiso   1.00
H1073  H     0.43260   0.82890   0.95882   0.00000  Uiso   1.00
H1074  H     0.46309   0.86755   0.95597   0.00000  Uiso   1.00
H1075  H     0.41442   0.87482   0.96334   0.00000  Uiso   1.00
H1076  H     0.03242   0.63778   0.17763   0.00000  Uiso   1.00
H1077  H     0.05344   0.59339   0.16873   0.00000  Uiso   1.00
H1078  H     0.05311   0.60189   0.05889   0.00000  Uiso   1.00
H1079  H     0.00791   0.60531   0.09045   0.00000  Uiso   1.00
H1080  H     0.37071   0.69632   0.86065   0.00000  Uiso   1.00
H1081  H     0.03190   0.64622   0.06835   0.00000  Uiso   1.00
H1082  H     0.09178   0.92902   0.85874   0.00000  Uiso   1.00
H1083  H     0.12592   0.95862   0.82565   0.00000  Uiso   1.00
H1084  H     0.15544   0.96495   0.92575   0.00000  Uiso   1.00
H1085  H     0.10863   0.98076   0.92447   0.00000  Uiso   1.00
H1086  H     0.11930   0.93710   0.95722   0.00000  Uiso   1.00
H1087  H     0.34341   0.55187   0.14494   0.00000  Uiso   1.00
H1088  H     0.37998   0.57522   0.10782   0.00000  Uiso   1.00
H1089  H     0.33819   0.59325   0.02652   0.00000  Uiso   1.00
H1090  H     0.33656   0.54432   0.03794   0.00000  Uiso   1.00
H1091  H     0.42073   0.70111   0.93529   0.00000  Uiso   1.00
H1092  H     0.30012   0.57294   0.06516   0.00000  Uiso   1.00
H1093  H     0.31287   0.64512   0.63319   0.00000  Uiso   1.00
H1094  H     0.29154   0.60263   0.65434   0.00000  Uiso   1.00
H1095  H     0.30315   0.57726   0.55403   0.00000  Uiso   1.00
H1096  H     0.27791   0.61959   0.54969   0.00000  Uiso   1.00
H1097  H     0.32604   0.61892   0.53240   0.00000  Uiso   1.00
H1098  H     0.08981   0.92193   0.38355   0.00000  Uiso   1.00
H1099  H     0.11165   0.95676   0.33874   0.00000  Uiso   1.00
H1100  H     0.15510   0.96902   0.42167   0.00000  Uiso   1.00
H1101  H     0.10820   0.97467   0.44486   0.00000  Uiso   1.00
H1102  H     0.37628   0.70247   0.97025   0.00000  Uiso   1.00
H1103  H     0.13326   0.93414   0.46607   0.00000  Uiso   1.00
H1104  H     0.13559   0.67303   0.60985   0.00000  Uiso   1.00
H1105  H     0.10057   0.69984   0.64609   0.00000  Uiso   1.00
H1106  H     0.05744   0.68427   0.56338   0.00000  Uiso   1.00
H1107  H     0.09767   0.70773   0.53765   0.00000  Uiso   1.00
H1108  H     0.09361   0.65909   0.52691   0.00000  Uiso   1.00
H1109  H     0.38317   0.78340   0.32006   0.00000  Uiso   1.00
H1110  H     0.34133   0.80533   0.34370   0.00000  Uiso   1.00
H1111  H     0.36193   0.80186   0.44890   0.00000  Uiso   1.00
H1112  H     0.35952   0.75754   0.41406   0.00000  Uiso   1.00
O1113  O     0.00000   0.75000   0.25000   0.00000  Uiso   1.00
O1114  O     0.00000   0.78036   0.61781   0.00000  Uiso   1.00
O1115  O     0.21964   0.50000   0.38219   0.00000  Uiso   1.00
O1116  O     0.28035   0.50000   0.61781   0.00000  Uiso   1.00
O1117  O     0.25000   0.53036   0.88219   0.00000  Uiso   1.00
O1118  O     0.25000   0.96965   0.11781   0.00000  Uiso   1.00
O1119  O     0.03035   0.75000   0.88219   0.00000  Uiso   1.00
O1120  O     0.46964   0.75000   0.11781   0.00000  Uiso   1.00
O1121  O     0.25000   0.96965   0.88219   0.00000  Uiso   1.00
O1122  O     0.25000   0.53036   0.11781   0.00000  Uiso   1.00
O1123  O     0.46964   0.75000   0.88219   0.00000  Uiso   1.00
O1124  O    -0.00000   0.75000   0.75000   0.00000  Uiso   1.00
O1125  O     0.03035   0.75000   0.11781   0.00000  Uiso   1.00
O1126  O     0.04267   0.67693   0.28474   0.00000  Uiso   1.00
O1127  O     0.45732   0.82308   0.71526   0.00000  Uiso   1.00
O1128  O     0.17692   0.95733   0.28474   0.00000  Uiso   1.00
O1129  O     0.32307   0.54268   0.71526   0.00000  Uiso   1.00
O1130  O     0.45732   0.82308   0.28474   0.00000  Uiso   1.00
O1131  O     0.04267   0.67693   0.71526   0.00000  Uiso   1.00
O1132  O     0.32307   0.54268   0.28474   0.00000  Uiso   1.00
O1133  O     0.17692   0.95733   0.71526   0.00000  Uiso   1.00
O1134  O     0.04267   0.82308   0.71526   0.00000  Uiso   1.00
O1135  O     0.25000   0.50000   0.25000   0.00000  Uiso   1.00
O1136  O     0.45732   0.67693   0.28474   0.00000  Uiso   1.00
O1137  O     0.17692   0.54268   0.71526   0.00000  Uiso   1.00
O1138  O     0.32307   0.95733   0.28474   0.00000  Uiso   1.00
O1139  O     0.45732   0.67693   0.71526   0.00000  Uiso   1.00
O1140  O     0.04267   0.82308   0.28474   0.00000  Uiso   1.00
O1141  O     0.32307   0.95733   0.71526   0.00000  Uiso   1.00
O1142  O     0.17692   0.54268   0.28474   0.00000  Uiso   1.00
O1143  O     0.29267   0.92693   0.78474   0.00000  Uiso   1.00
O1144  O     0.20732   0.57308   0.21526   0.00000  Uiso   1.00
O1145  O     0.42692   0.70733   0.78474   0.00000  Uiso   1.00
O1146  O     0.25000   0.50000   0.75000   0.00000  Uiso   1.00
O1147  O     0.07307   0.79268   0.21526   0.00000  Uiso   1.00
O1148  O     0.20732   0.57308   0.78474   0.00000  Uiso   1.00
O1149  O     0.29267   0.92693   0.21526   0.00000  Uiso   1.00
O1150  O     0.07307   0.79268   0.78474   0.00000  Uiso   1.00
O1151  O     0.42692   0.70733   0.21526   0.00000  Uiso   1.00
O1152  O     0.29267   0.57308   0.21526   0.00000  Uiso   1.00
O1153  O     0.20732   0.92693   0.78474   0.00000  Uiso   1.00
O1154  O     0.42692   0.79268   0.21526   0.00000  Uiso   1.00
O1155  O     0.07307   0.70733   0.78474   0.00000  Uiso   1.00
O1156  O     0.20732   0.92693   0.21526   0.00000  Uiso   1.00
O1157  O    -0.00000   0.78036   0.38219   0.00000  Uiso   1.00
O1158  O     0.29267   0.57308   0.78474   0.00000  Uiso   1.00
O1159  O     0.07307   0.70733   0.21526   0.00000  Uiso   1.00
O1160  O     0.42692   0.79268   0.78474   0.00000  Uiso   1.00
O1161  O     0.10712   0.83905   0.14371   0.00000  Uiso   1.00
O1162  O     0.40355   0.64969   0.85687   0.00000  Uiso   1.00
O1163  O     0.35735   0.91109   0.14478   0.00000  Uiso   1.00
O1164  O     0.15636   0.60344   0.85807   0.00000  Uiso   1.00
O1165  O     0.39288   0.66095   0.14371   0.00000  Uiso   1.00
O1166  O     0.09645   0.85031   0.85687   0.00000  Uiso   1.00
O1167  O     0.14264   0.58891   0.14478   0.00000  Uiso   1.00
O1168  O    -0.00000   0.71965   0.61781   0.00000  Uiso   1.00
O1169  O     0.34364   0.89656   0.85807   0.00000  Uiso   1.00
O1170  O     0.10240   0.65499   0.85866   0.00000  Uiso   1.00
O1171  O     0.41411   0.86120   0.14595   0.00000  Uiso   1.00
O1172  O     0.35492   0.59185   0.85557   0.00000  Uiso   1.00
O1173  O     0.16107   0.89114   0.14314   0.00000  Uiso   1.00
O1174  O     0.39760   0.84501   0.85866   0.00000  Uiso   1.00
O1175  O     0.08590   0.63880   0.14595   0.00000  Uiso   1.00
O1176  O     0.14508   0.90816   0.85557   0.00000  Uiso   1.00
O1177  O     0.33893   0.60886   0.14314   0.00000  Uiso   1.00
O1178  O     0.34776   0.59965   0.64036   0.00000  Uiso   1.00
O1179  O     0.28035   0.50000   0.38219   0.00000  Uiso   1.00
O1180  O     0.14305   0.91018   0.35558   0.00000  Uiso   1.00
O1181  O     0.09111   0.64363   0.64300   0.00000  Uiso   1.00
O1182  O     0.38920   0.83592   0.35474   0.00000  Uiso   1.00
O1183  O     0.15224   0.90034   0.64035   0.00000  Uiso   1.00
O1184  O     0.35695   0.58982   0.35558   0.00000  Uiso   1.00
O1185  O     0.40888   0.85636   0.64300   0.00000  Uiso   1.00
O1186  O     0.11080   0.66407   0.35475   0.00000  Uiso   1.00
O1187  O     0.33557   0.88853   0.35496   0.00000  Uiso   1.00
O1188  O     0.14734   0.59468   0.64188   0.00000  Uiso   1.00
O1189  O     0.09133   0.85532   0.35608   0.00000  Uiso   1.00
O1190  O     0.21964   0.50000   0.61781   0.00000  Uiso   1.00
O1191  O     0.40193   0.65209   0.64170   0.00000  Uiso   1.00
O1192  O     0.16442   0.61147   0.35496   0.00000  Uiso   1.00
O1193  O     0.35267   0.90533   0.64188   0.00000  Uiso   1.00
O1194  O     0.40867   0.64468   0.35609   0.00000  Uiso   1.00
O1195  O     0.09808   0.84790   0.64170   0.00000  Uiso   1.00
O1196  O    -0.00000   0.71965   0.38219   0.00000  Uiso   1.00
Zn1197 Zn    0.04333   0.75000   0.20067   0.00000  Uiso   1.00
Zn1198 Zn    0.20667   0.50000   0.29933   0.00000  Uiso   1.00
Zn1199 Zn    0.00000   0.70667   0.70067   0.00000  Uiso   1.00
Zn1200 Zn    0.00000   0.79333   0.29933   0.00000  Uiso   1.00
Zn1201 Zn    0.20667   0.50000   0.70067   0.00000  Uiso   1.00
Zn1202 Zn    0.29333   0.50000   0.29933   0.00000  Uiso   1.00
Zn1203 Zn    0.00000   0.79333   0.70067   0.00000  Uiso   1.00
Zn1204 Zn   -0.00000   0.70667   0.29933   0.00000  Uiso   1.00
Zn1205 Zn    0.45667   0.75000   0.79933   0.00000  Uiso   1.00
Zn1206 Zn    0.25000   0.95667   0.20067   0.00000  Uiso   1.00
Zn1207 Zn    0.25000   0.54333   0.79933   0.00000  Uiso   1.00
Zn1208 Zn    0.45667   0.75000   0.20067   0.00000  Uiso   1.00
Zn1209 Zn    0.04333   0.75000   0.79933   0.00000  Uiso   1.00
Zn1210 Zn    0.25000   0.54333   0.20067   0.00000  Uiso   1.00
Zn1211 Zn    0.25000   0.95667   0.79933   0.00000  Uiso   1.00
Zn1212 Zn    0.29333   0.50000   0.70067   0.00000  Uiso   1.00
C1213  C     0.50000   0.75000   0.02665   0.00000  Uiso   1.00
C1214  C     0.50000   0.75000   0.58990   0.00000  Uiso   1.00
C1215  C     0.96491   0.88144   0.08790   0.00000  Uiso   1.00
C1216  C     0.87918   0.56197   0.86113   0.00000  Uiso   1.00
C1217  C     0.87348   0.54367   0.92102   0.00000  Uiso   1.00
C1218  C     0.64988   0.92430   0.11657   0.00000  Uiso   1.00
C1219  C     0.66997   0.92873   0.05780   0.00000  Uiso   1.00
C1220  C     0.93233   0.85857   0.87530   0.00000  Uiso   1.00
C1221  C     0.93576   0.85737   0.94266   0.00000  Uiso   1.00
C1222  C     0.55148   0.62147   0.14980   0.00000  Uiso   1.00
C1223  C     0.53509   0.61856   0.08789   0.00000  Uiso   1.00
C1224  C     0.62080   0.93803   0.86112   0.00000  Uiso   1.00
C1225  C     0.75000   0.50000   0.41011   0.00000  Uiso   1.00
C1226  C     0.62652   0.95635   0.92099   0.00000  Uiso   1.00
C1227  C     0.85012   0.57570   0.11657   0.00000  Uiso   1.00
C1228  C     0.83003   0.57127   0.05780   0.00000  Uiso   1.00
C1229  C     0.81334   0.61500   0.62654   0.00000  Uiso   1.00
C1230  C     0.80458   0.60718   0.56157   0.00000  Uiso   1.00
C1231  C     0.61619   0.93561   0.37363   0.00000  Uiso   1.00
C1232  C     0.62903   0.95454   0.43012   0.00000  Uiso   1.00
C1233  C     0.60574   0.67562   0.61746   0.00000  Uiso   1.00
C1234  C     0.58745   0.68207   0.55760   0.00000  Uiso   1.00
C1235  C     0.87088   0.80201   0.35367   0.00000  Uiso   1.00
C1236  C     0.75000   0.50000   0.58989   0.00000  Uiso   1.00
C1237  C     0.87422   0.78399   0.41432   0.00000  Uiso   1.00
C1238  C     0.68667   0.88500   0.62655   0.00000  Uiso   1.00
C1239  C     0.69544   0.89282   0.56158   0.00000  Uiso   1.00
C1240  C     0.88381   0.56439   0.37363   0.00000  Uiso   1.00
C1241  C     0.87097   0.54546   0.43012   0.00000  Uiso   1.00
C1242  C     0.89424   0.82437   0.61748   0.00000  Uiso   1.00
C1243  C     0.91250   0.81792   0.55760   0.00000  Uiso   1.00
C1244  C     0.62911   0.69798   0.35368   0.00000  Uiso   1.00
C1245  C     0.62576   0.71601   0.41433   0.00000  Uiso   1.00
C1246  C     0.79947   0.87502   0.35038   0.00000  Uiso   1.00
C1247  C     0.75000   0.50000   0.91011   0.00000  Uiso   1.00
C1248  C     0.78463   0.86790   0.41241   0.00000  Uiso   1.00
C1249  C     0.68145   0.60948   0.62479   0.00000  Uiso   1.00
C1250  C     0.68457   0.60834   0.55740   0.00000  Uiso   1.00
C1251  C     0.61386   0.82879   0.38319   0.00000  Uiso   1.00
C1252  C     0.59739   0.81805   0.44279   0.00000  Uiso   1.00
C1253  C     0.88112   0.68193   0.62029   0.00000  Uiso   1.00
C1254  C     0.90667   0.71174   0.59858   0.00000  Uiso   1.00
C1255  C     0.70052   0.62498   0.35038   0.00000  Uiso   1.00
C1256  C     0.71537   0.63209   0.41242   0.00000  Uiso   1.00
C1257  C     0.81855   0.89053   0.62479   0.00000  Uiso   1.00
C1258  C     0.75000   0.50000   0.08990   0.00000  Uiso   1.00
C1259  C     0.81546   0.89160   0.55740   0.00000  Uiso   1.00
C1260  C     0.88614   0.67122   0.38319   0.00000  Uiso   1.00
C1261  C     0.90260   0.68196   0.44279   0.00000  Uiso   1.00
C1262  C     0.61889   0.81806   0.62030   0.00000  Uiso   1.00
C1263  C     0.59334   0.78824   0.59860   0.00000  Uiso   1.00
C1264  C     0.50000   0.75000   0.91011   0.00000  Uiso   1.00
C1265  C     0.50000   0.75000   0.08989   0.00000  Uiso   1.00
C1266  C     0.57009   0.68007   0.25021   0.00000  Uiso   1.00
C1267  C     0.93005   0.82008   0.75002   0.00000  Uiso   1.00
C1268  C     0.68001   0.92988   0.25031   0.00000  Uiso   1.00
C1269  C     0.50000   0.75000   0.97335   0.00000  Uiso   1.00
C1270  C     0.81996   0.57006   0.74974   0.00000  Uiso   1.00
C1271  C     0.92991   0.81993   0.25021   0.00000  Uiso   1.00
C1272  C     0.56995   0.67993   0.75002   0.00000  Uiso   1.00
C1273  C     0.81999   0.57012   0.25031   0.00000  Uiso   1.00
C1274  C     0.68003   0.92994   0.74974   0.00000  Uiso   1.00
C1275  C     0.57011   0.82000   0.74996   0.00000  Uiso   1.00
C1276  C     0.93004   0.67989   0.24979   0.00000  Uiso   1.00
C1277  C     0.67999   0.57001   0.75008   0.00000  Uiso   1.00
C1278  C     0.82007   0.93006   0.24973   0.00000  Uiso   1.00
C1279  C     0.92989   0.68000   0.74996   0.00000  Uiso   1.00
C1280  C     0.75000   0.50000   0.02666   0.00000  Uiso   1.00
C1281  C     0.56996   0.82011   0.24979   0.00000  Uiso   1.00
C1282  C     0.82001   0.93000   0.75008   0.00000  Uiso   1.00
C1283  C     0.67993   0.56994   0.24974   0.00000  Uiso   1.00
C1284  C     0.61484   0.85809   0.19545   0.00000  Uiso   1.00
C1285  C     0.88803   0.63865   0.80368   0.00000  Uiso   1.00
C1286  C     0.86688   0.89393   0.19747   0.00000  Uiso   1.00
C1287  C     0.64014   0.61316   0.80462   0.00000  Uiso   1.00
C1288  C     0.88516   0.64191   0.19545   0.00000  Uiso   1.00
C1289  C     0.61197   0.86135   0.80368   0.00000  Uiso   1.00
C1290  C     0.63312   0.60607   0.19747   0.00000  Uiso   1.00
C1291  C     0.75000   0.50000   0.97336   0.00000  Uiso   1.00
C1292  C     0.85986   0.88684   0.80462   0.00000  Uiso   1.00
C1293  C     0.61298   0.63993   0.80469   0.00000  Uiso   1.00
C1294  C     0.89470   0.86775   0.19780   0.00000  Uiso   1.00
C1295  C     0.86299   0.60988   0.80307   0.00000  Uiso   1.00
C1296  C     0.64161   0.88523   0.19512   0.00000  Uiso   1.00
C1297  C     0.88702   0.86007   0.80469   0.00000  Uiso   1.00
C1298  C     0.60530   0.63225   0.19780   0.00000  Uiso   1.00
C1299  C     0.63701   0.89013   0.80307   0.00000  Uiso   1.00
C1300  C     0.85839   0.61477   0.19512   0.00000  Uiso   1.00
C1301  C     0.85986   0.61320   0.69443   0.00000  Uiso   1.00
C1302  C     0.75000   0.50000   0.52665   0.00000  Uiso   1.00
C1303  C     0.63245   0.89434   0.30232   0.00000  Uiso   1.00
C1304  C     0.60898   0.63588   0.69589   0.00000  Uiso   1.00
C1305  C     0.88165   0.85465   0.30260   0.00000  Uiso   1.00
C1306  C     0.64015   0.88679   0.69443   0.00000  Uiso   1.00
C1307  C     0.86755   0.60566   0.30232   0.00000  Uiso   1.00
C1308  C     0.89102   0.86412   0.69589   0.00000  Uiso   1.00
C1309  C     0.61835   0.64535   0.30260   0.00000  Uiso   1.00
C1310  C     0.85448   0.88157   0.30265   0.00000  Uiso   1.00
C1311  C     0.63654   0.60959   0.69580   0.00000  Uiso   1.00
C1312  C     0.60710   0.86590   0.30281   0.00000  Uiso   1.00
C1313  C     0.75000   0.50000   0.47335   0.00000  Uiso   1.00
C1314  C     0.88745   0.63962   0.69486   0.00000  Uiso   1.00
C1315  C     0.64552   0.61843   0.30266   0.00000  Uiso   1.00
C1316  C     0.86346   0.89041   0.69580   0.00000  Uiso   1.00
C1317  C     0.89290   0.63410   0.30281   0.00000  Uiso   1.00
C1318  C     0.61255   0.86038   0.69486   0.00000  Uiso   1.00
C1319  C     0.65093   0.90281   0.24905   0.00000  Uiso   1.00
C1320  C     0.84769   0.59838   0.74888   0.00000  Uiso   1.00
C1321  C     0.90183   0.84797   0.25029   0.00000  Uiso   1.00
C1322  C     0.59767   0.65154   0.75023   0.00000  Uiso   1.00
C1323  C     0.84907   0.59719   0.24905   0.00000  Uiso   1.00
C1324  C     0.50000   0.75000   0.52666   0.00000  Uiso   1.00
C1325  C     0.65231   0.90161   0.74888   0.00000  Uiso   1.00
C1326  C     0.59817   0.65203   0.25029   0.00000  Uiso   1.00
C1327  C     0.90233   0.84846   0.75023   0.00000  Uiso   1.00
C1328  C     0.65198   0.59810   0.75016   0.00000  Uiso   1.00
C1329  C     0.84756   0.90146   0.25014   0.00000  Uiso   1.00
C1330  C     0.90134   0.65236   0.74946   0.00000  Uiso   1.00
C1331  C     0.59768   0.84849   0.24924   0.00000  Uiso   1.00
C1332  C     0.84802   0.90190   0.75016   0.00000  Uiso   1.00
C1333  C     0.65244   0.59854   0.25014   0.00000  Uiso   1.00
C1334  C     0.59866   0.84764   0.74946   0.00000  Uiso   1.00
C1335  C     0.50000   0.75000   0.47336   0.00000  Uiso   1.00
C1336  C     0.90232   0.65152   0.24924   0.00000  Uiso   1.00
C1337  C     0.58199   0.85889   0.10834   0.00000  Uiso   1.00
C1338  C     0.55310   0.83305   0.08433   0.00000  Uiso   1.00
C1339  C     0.87834   0.67198   0.88769   0.00000  Uiso   1.00
C1340  C     0.89579   0.68506   0.94518   0.00000  Uiso   1.00
C1341  C     0.87722   0.94391   0.13857   0.00000  Uiso   1.00
C1342  C     0.85320   0.97229   0.10840   0.00000  Uiso   1.00
C1343  C     0.64016   0.57106   0.87962   0.00000  Uiso   1.00
C1344  C     0.65585   0.56233   0.94066   0.00000  Uiso   1.00
C1345  C     0.91802   0.64111   0.10834   0.00000  Uiso   1.00
C1346  C     0.50000   0.75000   0.41011   0.00000  Uiso   1.00
C1347  C     0.94690   0.66695   0.08433   0.00000  Uiso   1.00
C1348  C     0.62165   0.82803   0.88769   0.00000  Uiso   1.00
C1349  C     0.60420   0.81494   0.94518   0.00000  Uiso   1.00
C1350  C     0.62278   0.55609   0.13859   0.00000  Uiso   1.00
C1351  C     0.64679   0.52771   0.10840   0.00000  Uiso   1.00
C1352  C     0.85984   0.92894   0.87962   0.00000  Uiso   1.00
C1353  C     0.84414   0.93767   0.94065   0.00000  Uiso   1.00
C1354  C     0.56767   0.64143   0.87529   0.00000  Uiso   1.00
C1355  C     0.56424   0.64263   0.94266   0.00000  Uiso   1.00
C1356  C     0.94852   0.87854   0.14980   0.00000  Uiso   1.00
H1357  H     0.59686   0.87065   0.06983   0.00000  Uiso   1.00
H1358  H     0.90332   0.66119   0.97298   0.00000  Uiso   1.00
H1359  H     0.90342   0.77899   0.42504   0.00000  Uiso   1.00
H1360  H     0.68714   0.85488   0.63320   0.00000  Uiso   1.00
H1361  H     0.70846   0.89737   0.65435   0.00000  Uiso   1.00
H1362  H     0.69686   0.92274   0.55404   0.00000  Uiso   1.00
H1363  H     0.72211   0.88041   0.54971   0.00000  Uiso   1.00
H1364  H     0.67399   0.88107   0.53240   0.00000  Uiso   1.00
H1365  H     0.91019   0.57807   0.38355   0.00000  Uiso   1.00
H1366  H     0.88835   0.54324   0.33875   0.00000  Uiso   1.00
H1367  H     0.84490   0.53098   0.42167   0.00000  Uiso   1.00
H1368  H     0.89180   0.52533   0.44486   0.00000  Uiso   1.00
H1369  H     0.90126   0.93883   0.10965   0.00000  Uiso   1.00
H1370  H     0.86674   0.56586   0.46607   0.00000  Uiso   1.00
H1371  H     0.86438   0.82695   0.60991   0.00000  Uiso   1.00
H1372  H     0.89943   0.80014   0.64610   0.00000  Uiso   1.00
H1373  H     0.94251   0.81570   0.56335   0.00000  Uiso   1.00
H1374  H     0.90227   0.79226   0.53766   0.00000  Uiso   1.00
H1375  H     0.90634   0.84090   0.52693   0.00000  Uiso   1.00
H1376  H     0.61683   0.71659   0.32007   0.00000  Uiso   1.00
H1377  H     0.65867   0.69467   0.34373   0.00000  Uiso   1.00
H1378  H     0.63804   0.69814   0.44892   0.00000  Uiso   1.00
H1379  H     0.64046   0.74245   0.41409   0.00000  Uiso   1.00
H1380  H     0.88695   0.95571   0.18162   0.00000  Uiso   1.00
H1381  H     0.59656   0.72101   0.42504   0.00000  Uiso   1.00
H1382  H     0.79770   0.84913   0.32447   0.00000  Uiso   1.00
H1383  H     0.78144   0.89560   0.32910   0.00000  Uiso   1.00
H1384  H     0.78349   0.89391   0.43768   0.00000  Uiso   1.00
H1385  H     0.75663   0.85650   0.40939   0.00000  Uiso   1.00
H1386  H     0.80245   0.84812   0.43616   0.00000  Uiso   1.00
H1387  H     0.70409   0.59288   0.64354   0.00000  Uiso   1.00
H1388  H     0.68527   0.63833   0.63938   0.00000  Uiso   1.00
H1389  H     0.66199   0.62420   0.53680   0.00000  Uiso   1.00
H1390  H     0.71098   0.62049   0.54376   0.00000  Uiso   1.00
H1391  H     0.83077   0.98068   0.13874   0.00000  Uiso   1.00
H1392  H     0.68339   0.57968   0.54146   0.00000  Uiso   1.00
H1393  H     0.64178   0.83965   0.39153   0.00000  Uiso   1.00
H1394  H     0.61584   0.80388   0.35492   0.00000  Uiso   1.00
H1395  H     0.57000   0.80581   0.43602   0.00000  Uiso   1.00
H1396  H     0.61527   0.79779   0.46524   0.00000  Uiso   1.00
H1397  H     0.59478   0.84245   0.47183   0.00000  Uiso   1.00
H1398  H     0.86227   0.69433   0.65387   0.00000  Uiso   1.00
H1399  H     0.86453   0.67255   0.58187   0.00000  Uiso   1.00
H1400  H     0.92676   0.70039   0.56650   0.00000  Uiso   1.00
H1401  H     0.89052   0.73337   0.57617   0.00000  Uiso   1.00
H1402  H     0.86988   0.99653   0.09699   0.00000  Uiso   1.00
H1403  H     0.92145   0.72400   0.63678   0.00000  Uiso   1.00
H1404  H     0.70229   0.65087   0.32449   0.00000  Uiso   1.00
H1405  H     0.71856   0.60441   0.32909   0.00000  Uiso   1.00
H1406  H     0.71651   0.60608   0.43767   0.00000  Uiso   1.00
H1407  H     0.74337   0.64349   0.40941   0.00000  Uiso   1.00
H1408  H     0.69755   0.65186   0.43618   0.00000  Uiso   1.00
H1409  H     0.79592   0.90717   0.64346   0.00000  Uiso   1.00
H1410  H     0.81469   0.86171   0.63945   0.00000  Uiso   1.00
H1411  H     0.83803   0.87571   0.53687   0.00000  Uiso   1.00
H1412  H     0.78905   0.87947   0.54376   0.00000  Uiso   1.00
H1413  H     0.84123   0.96100   0.06697   0.00000  Uiso   1.00
H1414  H     0.81667   0.92025   0.54138   0.00000  Uiso   1.00
H1415  H     0.85822   0.66035   0.39153   0.00000  Uiso   1.00
H1416  H     0.88416   0.69613   0.35491   0.00000  Uiso   1.00
H1417  H     0.93000   0.69419   0.43602   0.00000  Uiso   1.00
H1418  H     0.88472   0.70221   0.46523   0.00000  Uiso   1.00
H1419  H     0.90521   0.65756   0.47183   0.00000  Uiso   1.00
H1420  H     0.63774   0.80567   0.65388   0.00000  Uiso   1.00
H1421  H     0.63548   0.82744   0.58187   0.00000  Uiso   1.00
H1422  H     0.57325   0.79959   0.56650   0.00000  Uiso   1.00
H1423  H     0.60950   0.76662   0.57619   0.00000  Uiso   1.00
H1424  H     0.64595   0.54758   0.84968   0.00000  Uiso   1.00
H1425  H     0.57856   0.77599   0.63680   0.00000  Uiso   1.00
H1426  H     0.61012   0.57408   0.88440   0.00000  Uiso   1.00
H1427  H     0.64977   0.58492   0.97214   0.00000  Uiso   1.00
H1428  H     0.64351   0.53683   0.95795   0.00000  Uiso   1.00
H1429  H     0.56766   0.88153   0.13223   0.00000  Uiso   1.00
H1430  H     0.68588   0.55861   0.93758   0.00000  Uiso   1.00
H1431  H     0.90314   0.62935   0.06984   0.00000  Uiso   1.00
H1432  H     0.93234   0.61847   0.13224   0.00000  Uiso   1.00
H1433  H     0.96551   0.67534   0.12082   0.00000  Uiso   1.00
H1434  H     0.96311   0.65308   0.04920   0.00000  Uiso   1.00
H1435  H     0.93381   0.69152   0.06472   0.00000  Uiso   1.00
H1436  H     0.64681   0.84339   0.89944   0.00000  Uiso   1.00
H1437  H     0.62928   0.80368   0.86066   0.00000  Uiso   1.00
H1438  H     0.57926   0.79889   0.93529   0.00000  Uiso   1.00
H1439  H     0.62371   0.79753   0.97026   0.00000  Uiso   1.00
H1440  H     0.53449   0.82467   0.12082   0.00000  Uiso   1.00
H1441  H     0.59667   0.83881   0.97298   0.00000  Uiso   1.00
H1442  H     0.59873   0.56117   0.10968   0.00000  Uiso   1.00
H1443  H     0.61306   0.54429   0.18163   0.00000  Uiso   1.00
H1444  H     0.66923   0.51932   0.13873   0.00000  Uiso   1.00
H1445  H     0.63012   0.50346   0.09700   0.00000  Uiso   1.00
H1446  H     0.65876   0.53900   0.06697   0.00000  Uiso   1.00
H1447  H     0.85406   0.95242   0.84967   0.00000  Uiso   1.00
H1448  H     0.88988   0.92592   0.88442   0.00000  Uiso   1.00
H1449  H     0.85021   0.91509   0.97214   0.00000  Uiso   1.00
H1450  H     0.85648   0.96318   0.95794   0.00000  Uiso   1.00
H1451  H     0.53689   0.84692   0.04919   0.00000  Uiso   1.00
H1452  H     0.81411   0.94140   0.93755   0.00000  Uiso   1.00
H1453  H     0.56284   0.61280   0.86047   0.00000  Uiso   1.00
H1454  H     0.54574   0.65889   0.85646   0.00000  Uiso   1.00
H1455  H     0.56740   0.67109   0.95882   0.00000  Uiso   1.00
H1456  H     0.53691   0.63244   0.95597   0.00000  Uiso   1.00
H1457  H     0.58558   0.62518   0.96333   0.00000  Uiso   1.00
H1458  H     0.96758   0.86224   0.17764   0.00000  Uiso   1.00
H1459  H     0.94655   0.90662   0.16871   0.00000  Uiso   1.00
H1460  H     0.94689   0.89810   0.05887   0.00000  Uiso   1.00
H1461  H     0.99209   0.89470   0.09046   0.00000  Uiso   1.00
H1462  H     0.56619   0.80848   0.06473   0.00000  Uiso   1.00
H1463  H     0.96811   0.85378   0.06837   0.00000  Uiso   1.00
H1464  H     0.90821   0.57096   0.85869   0.00000  Uiso   1.00
H1465  H     0.87404   0.54137   0.82568   0.00000  Uiso   1.00
H1466  H     0.84457   0.53508   0.92581   0.00000  Uiso   1.00
H1467  H     0.89137   0.51926   0.92450   0.00000  Uiso   1.00
H1468  H     0.88073   0.56293   0.95722   0.00000  Uiso   1.00
H1469  H     0.65658   0.94813   0.14494   0.00000  Uiso   1.00
H1470  H     0.62002   0.92478   0.10782   0.00000  Uiso   1.00
H1471  H     0.66181   0.90675   0.02652   0.00000  Uiso   1.00
H1472  H     0.66345   0.95568   0.03794   0.00000  Uiso   1.00
H1473  H     0.85318   0.65661   0.89944   0.00000  Uiso   1.00
H1474  H     0.69988   0.92706   0.06517   0.00000  Uiso   1.00
H1475  H     0.93716   0.88720   0.86048   0.00000  Uiso   1.00
H1476  H     0.95426   0.84111   0.85646   0.00000  Uiso   1.00
H1477  H     0.93260   0.82890   0.95882   0.00000  Uiso   1.00
H1478  H     0.96309   0.86755   0.95597   0.00000  Uiso   1.00
H1479  H     0.91442   0.87482   0.96334   0.00000  Uiso   1.00
H1480  H     0.53242   0.63778   0.17763   0.00000  Uiso   1.00
H1481  H     0.55344   0.59339   0.16873   0.00000  Uiso   1.00
H1482  H     0.55311   0.60189   0.05889   0.00000  Uiso   1.00
H1483  H     0.50791   0.60531   0.09045   0.00000  Uiso   1.00
H1484  H     0.87071   0.69632   0.86065   0.00000  Uiso   1.00
H1485  H     0.53190   0.64622   0.06835   0.00000  Uiso   1.00
H1486  H     0.59178   0.92902   0.85874   0.00000  Uiso   1.00
H1487  H     0.62592   0.95862   0.82565   0.00000  Uiso   1.00
H1488  H     0.65544   0.96495   0.92575   0.00000  Uiso   1.00
H1489  H     0.60863   0.98076   0.92447   0.00000  Uiso   1.00
H1490  H     0.61930   0.93710   0.95722   0.00000  Uiso   1.00
H1491  H     0.84341   0.55187   0.14494   0.00000  Uiso   1.00
H1492  H     0.87998   0.57522   0.10782   0.00000  Uiso   1.00
H1493  H     0.83819   0.59325   0.02652   0.00000  Uiso   1.00
H1494  H     0.83656   0.54432   0.03794   0.00000  Uiso   1.00
H1495  H     0.92073   0.70111   0.93529   0.00000  Uiso   1.00
H1496  H     0.80012   0.57294   0.06516   0.00000  Uiso   1.00
H1497  H     0.81287   0.64512   0.63319   0.00000  Uiso   1.00
H1498  H     0.79154   0.60263   0.65434   0.00000  Uiso   1.00
H1499  H     0.80315   0.57726   0.55403   0.00000  Uiso   1.00
H1500  H     0.77791   0.61959   0.54969   0.00000  Uiso   1.00
H1501  H     0.82604   0.61892   0.53240   0.00000  Uiso   1.00
H1502  H     0.58981   0.92193   0.38355   0.00000  Uiso   1.00
H1503  H     0.61165   0.95676   0.33874   0.00000  Uiso   1.00
H1504  H     0.65510   0.96902   0.42167   0.00000  Uiso   1.00
H1505  H     0.60820   0.97467   0.44486   0.00000  Uiso   1.00
H1506  H     0.87628   0.70247   0.97025   0.00000  Uiso   1.00
H1507  H     0.63326   0.93414   0.46607   0.00000  Uiso   1.00
H1508  H     0.63559   0.67303   0.60985   0.00000  Uiso   1.00
H1509  H     0.60057   0.69984   0.64609   0.00000  Uiso   1.00
H1510  H     0.55744   0.68427   0.56338   0.00000  Uiso   1.00
H1511  H     0.59767   0.70773   0.53765   0.00000  Uiso   1.00
H1512  H     0.59361   0.65909   0.52691   0.00000  Uiso   1.00
H1513  H     0.88317   0.78340   0.32006   0.00000  Uiso   1.00
H1514  H     0.84133   0.80533   0.34370   0.00000  Uiso   1.00
H1515  H     0.86193   0.80186   0.44890   0.00000  Uiso   1.00
H1516  H     0.85952   0.75754   0.41406   0.00000  Uiso   1.00
O1517  O     0.50000   0.75000   0.25000   0.00000  Uiso   1.00
O1518  O     0.50000   0.78036   0.61781   0.00000  Uiso   1.00
O1519  O     0.71964   0.50000   0.38219   0.00000  Uiso   1.00
O1520  O     0.78035   0.50000   0.61781   0.00000  Uiso   1.00
O1521  O     0.75000   0.53036   0.88219   0.00000  Uiso   1.00
O1522  O     0.75000   0.96965   0.11781   0.00000  Uiso   1.00
O1523  O     0.53035   0.75000   0.88219   0.00000  Uiso   1.00
O1524  O     0.96964   0.75000   0.11781   0.00000  Uiso   1.00
O1525  O     0.75000   0.96965   0.88219   0.00000  Uiso   1.00
O1526  O     0.75000   0.53036   0.11781   0.00000  Uiso   1.00
O1527  O     0.96964   0.75000   0.88219   0.00000  Uiso   1.00
O1528  O     0.50000   0.75000   0.75000   0.00000  Uiso   1.00
O1529  O     0.53035   0.75000   0.11781   0.00000  Uiso   1.00
O1530  O     0.54267   0.67693   0.28474   0.00000  Uiso   1.00
O1531  O     0.95732   0.82308   0.71526   0.00000  Uiso   1.00
O1532  O     0.67692   0.95733   0.28474   0.00000  Uiso   1.00
O1533  O     0.82307   0.54268   0.71526   0.00000  Uiso   1.00
O1534  O     0.95732   0.82308   0.28474   0.00000  Uiso   1.00
O1535  O     0.54267   0.67693   0.71526   0.00000  Uiso   1.00
O1536  O     0.82307   0.54268   0.28474   0.00000  Uiso   1.00
O1537  O     0.67692   0.95733   0.71526   0.00000  Uiso   1.00
O1538  O     0.54267   0.82308   0.71526   0.00000  Uiso   1.00
O1539  O     0.75000   0.50000   0.25000   0.00000  Uiso   1.00
O1540  O     0.95732   0.67693   0.28474   0.00000  Uiso   1.00
O1541  O     0.67692   0.54268   0.71526   0.00000  Uiso   1.00
O1542  O     0.82307   0.95733   0.28474   0.00000  Uiso   1.00
O1543  O     0.95732   0.67693   0.71526   0.00000  Uiso   1.00
O1544  O     0.54267   0.82308   0.28474   0.00000  Uiso   1.00
O1545  O     0.82307   0.95733   0.71526   0.00000  Uiso   1.00
O1546  O     0.67692   0.54268   0.28474   0.00000  Uiso   1.00
O1547  O     0.79267   0.92693   0.78474   0.00000  Uiso   1.00
O1548  O     0.70732   0.57308   0.21526   0.00000  Uiso   1.00
O1549  O     0.92692   0.70733   0.78474   0.00000  Uiso   1.00
O1550  O     0.75000   0.50000   0.75000   0.00000  Uiso   1.00
O1551  O     0.57307   0.79268   0.21526   0.00000  Uiso   1.00
O1552  O     0.70732   0.57308   0.78474   0.00000  Uiso   1.00
O1553  O     0.79267   0.92693   0.21526   0.00000  Uiso   1.00
O1554  O     0.57307   0.79268   0.78474   0.00000  Uiso   1.00
O1555  O     0.92692   0.70733   0.21526   0.00000  Uiso   1.00
O1556  O     0.79267   0.57308   0.21526   0.00000  Uiso   1.00
O1557  O     0.70732   0.92693   0.78474   0.00000  Uiso   1.00
O1558  O     0.92692   0.79268   0.21526   0.00000  Uiso   1.00
O1559  O     0.57307   0.70733   0.78474   0.00000  Uiso   1.00
O1560  O     0.70732   0.92693   0.21526   0.00000  Uiso   1.00
O1561  O     0.50000   0.78036   0.38219   0.00000  Uiso   1.00
O1562  O     0.79267   0.57308   0.78474   0.00000  Uiso   1.00
O1563  O     0.57307   0.70733   0.21526   0.00000  Uiso   1.00
O1564  O     0.92692   0.79268   0.78474   0.00000  Uiso   1.00
O1565  O     0.60712   0.83905   0.14371   0.00000  Uiso   1.00
O1566  O     0.90355   0.64969   0.85687   0.00000  Uiso   1.00
O1567  O     0.85735   0.91109   0.14478   0.00000  Uiso   1.00
O1568  O     0.65636   0.60344   0.85807   0.00000  Uiso   1.00
O1569  O     0.89288   0.66095   0.14371   0.00000  Uiso   1.00
O1570  O     0.59645   0.85031   0.85687   0.00000  Uiso   1.00
O1571  O     0.64264   0.58891   0.14478   0.00000  Uiso   1.00
O1572  O     0.50000   0.71965   0.61781   0.00000  Uiso   1.00
O1573  O     0.84364   0.89656   0.85807   0.00000  Uiso   1.00
O1574  O     0.60240   0.65499   0.85866   0.00000  Uiso   1.00
O1575  O     0.91411   0.86120   0.14595   0.00000  Uiso   1.00
O1576  O     0.85492   0.59185   0.85557   0.00000  Uiso   1.00
O1577  O     0.66107   0.89114   0.14314   0.00000  Uiso   1.00
O1578  O     0.89760   0.84501   0.85866   0.00000  Uiso   1.00
O1579  O     0.58590   0.63880   0.14595   0.00000  Uiso   1.00
O1580  O     0.64508   0.90816   0.85557   0.00000  Uiso   1.00
O1581  O     0.83893   0.60886   0.14314   0.00000  Uiso   1.00
O1582  O     0.84776   0.59965   0.64036   0.00000  Uiso   1.00
O1583  O     0.78035   0.50000   0.38219   0.00000  Uiso   1.00
O1584  O     0.64305   0.91018   0.35558   0.00000  Uiso   1.00
O1585  O     0.59111   0.64363   0.64300   0.00000  Uiso   1.00
O1586  O     0.88920   0.83592   0.35474   0.00000  Uiso   1.00
O1587  O     0.65224   0.90034   0.64035   0.00000  Uiso   1.00
O1588  O     0.85695   0.58982   0.35558   0.00000  Uiso   1.00
O1589  O     0.90888   0.85636   0.64300   0.00000  Uiso   1.00
O1590  O     0.61080   0.66407   0.35475   0.00000  Uiso   1.00
O1591  O     0.83557   0.88853   0.35496   0.00000  Uiso   1.00
O1592  O     0.64734   0.59468   0.64188   0.00000  Uiso   1.00
O1593  O     0.59133   0.85532   0.35608   0.00000  Uiso   1.00
O1594  O     0.71964   0.50000   0.61781   0.00000  Uiso   1.00
O1595  O     0.90193   0.65209   0.64170   0.00000  Uiso   1.00
O1596  O     0.66442   0.61147   0.35496   0.00000  Uiso   1.00
O1597  O     0.85267   0.90533   0.64188   0.00000  Uiso   1.00
O1598  O     0.90867   0.64468   0.35609   0.00000  Uiso   1.00
O1599  O     0.59808   0.84790   0.64170   0.00000  Uiso   1.00
O1600  O     0.50000   0.71965   0.38219   0.00000  Uiso   1.00
Zn1601 Zn    0.54333   0.75000   0.20067   0.00000  Uiso   1.00
Zn1602 Zn    0.70667   0.50000   0.29933   0.00000  Uiso   1.00
Zn1603 Zn    0.50000   0.70667   0.70067   0.00000  Uiso   1.00
Zn1604 Zn    0.50000   0.79333   0.29933   0.00000  Uiso   1.00
Zn1605 Zn    0.70667   0.50000   0.70067   0.00000  Uiso   1.00
Zn1606 Zn    0.79333   0.50000   0.29933   0.00000  Uiso   1.00
Zn1607 Zn    0.50000   0.79333   0.70067   0.00000  Uiso   1.00
Zn1608 Zn    0.50000   0.70667   0.29933   0.00000  Uiso   1.00
Zn1609 Zn    0.95667   0.75000   0.79933   0.00000  Uiso   1.00
Zn1610 Zn    0.75000   0.95667   0.20067   0.00000  Uiso   1.00
Zn1611 Zn    0.75000   0.54333   0.79933   0.00000  Uiso   1.00
Zn1612 Zn    0.95667   0.75000   0.20067   0.00000  Uiso   1.00
Zn1613 Zn    0.54333   0.75000   0.79933   0.00000  Uiso   1.00
Zn1614 Zn    0.75000   0.54333   0.20067   0.00000  Uiso   1.00
Zn1615 Zn    0.75000   0.95667   0.79933   0.00000  Uiso   1.00
Zn1616 Zn    0.79333   0.50000   0.70067   0.00000  Uiso   1.00
loop_
_geom_bond_atom_site_label_1
_geom_bond_atom_site_label_2
_geom_bond_distance
_geom_bond_site_symmetry_2
_ccdc_geom_bond_type
C1     C53     1.420   .     S
C1     C57     1.197   1_554 S
C2     C112    1.420   .     S
C2     O306    1.277   .     A
C2     O360    1.277   .     S
C3     H251    1.111   .     S
C3     H249    1.110   .     S
C3     C144    1.518   .     S
C3     H248    1.110   .     S
C4     H252    1.115   .     S
C4     C5      1.518   .     S
C4     O364    1.414   .     S
C4     H253    1.114   .     S
C5     H256    1.110   .     S
C5     H255    1.110   .     S
C5     H254    1.111   .     S
C6     O365    1.414   .     S
C6     H258    1.111   .     S
C6     H257    1.109   .     S
C6     C7      1.520   .     S
C7     H259    1.111   .     S
C7     H262    1.110   .     S
C7     H260    1.109   .     S
C8     H264    1.110   .     S
C8     H263    1.115   .     S
C8     O366    1.417   .     S
C8     C9      1.519   .     S
C9     H265    1.111   .     S
C9     H267    1.111   .     S
C9     H266    1.110   .     S
C10    H268    1.111   .     S
C10    C11     1.518   .     S
C10    O367    1.416   .     S
C10    H269    1.116   .     S
C11    H273    1.111   .     S
C11    H270    1.110   .     S
C11    H271    1.110   .     S
C12    O368    1.414   .     S
C12    H275    1.114   .     S
C12    H274    1.115   .     S
C12    C14     1.518   .     S
C13    O371    1.277   .     A
C13    O307    1.277   .     A
C13    C101    1.420   .     S
C14    H276    1.111   .     S
C14    H277    1.110   .     S
C14    H278    1.110   .     S
C15    H280    1.111   .     S
C15    H279    1.109   .     S
C15    O369    1.414   .     S
C15    C16     1.520   .     S
C16    H284    1.110   .     S
C16    H281    1.111   .     S
C16    H282    1.109   .     S
C17    O370    1.414   .     S
C17    C18     1.522   .     S
C17    H286    1.111   .     S
C17    H285    1.114   .     S
C18    H288    1.109   .     S
C18    H287    1.111   .     S
C18    H289    1.111   .     S
C19    O372    1.413   .     S
C19    C20     1.521   .     S
C19    H290    1.112   .     S
C19    H291    1.115   .     S
C20    H293    1.110   .     S
C20    H295    1.111   .     S
C20    H292    1.110   .     S
C21    C22     1.520   .     S
C21    H296    1.111   .     S
C21    H297    1.112   .     S
C21    O373    1.412   .     S
C22    H299    1.108   .     S
C22    H300    1.111   .     S
C22    H298    1.110   .     S
C23    H301    1.112   .     S
C23    O374    1.414   .     S
C23    H302    1.112   .     S
C23    C25     1.519   .     S
C24    C90     1.420   .     S
C24    O382    1.277   .     A
C24    O308    1.277   .     A
C25    H147    1.111   .     S
C25    H304    1.110   .     S
C25    H303    1.111   .     S
C26    O375    1.414   .     S
C26    H148    1.114   .     S
C26    H149    1.111   .     S
C26    C27     1.522   .     S
C27    H151    1.110   .     S
C27    H152    1.111   .     S
C27    H150    1.111   .     S
C28    H153    1.112   .     S
C28    C29     1.521   .     S
C28    O376    1.413   .     S
C28    H154    1.115   .     S
C29    H155    1.110   .     S
C29    H158    1.111   .     S
C29    H156    1.110   .     S
C30    O377    1.412   .     S
C30    H159    1.111   .     S
C30    C31     1.520   .     S
C30    H160    1.112   .     S
C31    H161    1.110   .     S
C31    H162    1.108   .     S
C31    H163    1.111   .     S
C32    O378    1.414   .     S
C32    H164    1.112   .     S
C32    H165    1.112   .     S
C32    C33     1.519   .     S
C33    H166    1.110   .     S
C33    H169    1.111   .     S
C33    H167    1.110   .     S
C34    O379    1.417   .     S
C34    H171    1.110   .     S
C34    C36     1.518   .     S
C34    H170    1.115   .     S
C35    O309    1.277   .     A
C35    C79     1.421   .     S
C35    O1121   1.277   1_545 S
C36    H173    1.111   .     S
C36    H172    1.110   .     S
C36    H174    1.111   .     S
C37    H175    1.111   .     S
C37    O380    1.416   .     S
C37    H176    1.116   .     S
C37    C38     1.518   .     S
C38    H177    1.111   .     S
C38    H180    1.111   .     S
C38    H178    1.109   .     S
C39    C40     1.521   .     S
C39    H182    1.114   .     S
C39    O381    1.412   .     S
C39    H181    1.114   .     S
C40    H183    1.111   .     S
C40    H184    1.110   .     S
C40    H185    1.111   .     S
C41    H187    1.110   .     S
C41    H186    1.118   .     S
C41    C42     1.521   .     S
C41    O383    1.416   .     S
C42    H189    1.109   .     S
C42    H191    1.110   .     S
C42    H188    1.110   .     S
C43    O384    1.417   .     S
C43    C44     1.518   .     S
C43    H192    1.115   .     S
C43    H193    1.110   .     S
C44    H196    1.111   .     S
C44    H195    1.111   .     S
C44    H194    1.110   .     S
C45    C47     1.518   .     S
C45    H197    1.110   .     S
C45    H198    1.116   .     S
C45    O385    1.417   .     S
C46    O1118   1.277   1_545 A
C46    C68     1.420   .     S
C46    O314    1.277   .     S
C47    H199    1.111   .     S
C47    H202    1.111   .     S
C47    H200    1.109   .     S
C48    H203    1.114   .     S
C48    O386    1.412   .     S
C48    H204    1.114   .     S
C48    C49     1.521   .     S
C49    H206    1.110   .     S
C49    H205    1.111   .     S
C49    H207    1.111   .     S
C50    H209    1.110   .     S
C50    H208    1.118   .     S
C50    O387    1.416   .     S
C50    C51     1.521   .     S
C51    H210    1.110   .     S
C51    H213    1.110   .     S
C51    H211    1.109   .     S
C52    C57     1.420   .     S
C52    O719    1.277   1_455 A
C52    O311    1.277   .     S
C53    O317    1.277   .     A
C53    O716    1.277   1_455 S
C54    O351    1.275   .     A
C54    C114    1.452   .     S
C54    O318    1.274   .     A
C55    O352    1.277   .     A
C55    C115    1.452   .     S
C55    O319    1.273   .     A
C56    O348    1.278   .     A
C56    C107    1.458   .     S
C56    O320    1.274   .     A
C57    C1      1.197   1_556 S
C58    O350    1.276   .     A
C58    C108    1.454   .     S
C58    O321    1.273   .     A
C59    C109    1.452   .     S
C59    O346    1.275   .     A
C59    O322    1.274   .     A
C60    O347    1.277   .     A
C60    O323    1.273   .     A
C60    C110    1.452   .     S
C61    O324    1.274   .     A
C61    O344    1.278   .     A
C61    C111    1.458   .     S
C62    O345    1.276   .     A
C62    O325    1.273   .     A
C62    C113    1.454   .     S
C63    O342    1.275   .     A
C63    C122    1.458   .     S
C63    O326    1.277   .     A
C64    C124    1.455   .     S
C64    O328    1.275   .     A
C64    O343    1.275   .     A
C65    O329    1.276   .     A
C65    C116    1.452   .     S
C65    O340    1.274   .     A
C66    O330    1.277   .     A
C66    C117    1.452   .     S
C66    O341    1.273   .     A
C67    C118    1.458   .     S
C67    O337    1.275   .     A
C67    O331    1.277   .     A
C68    C79     1.197   1_554 S
C69    C119    1.455   .     S
C69    O339    1.275   .     A
C69    O332    1.275   .     A
C70    O333    1.276   .     A
C70    C120    1.452   .     S
C70    O335    1.274   .     A
C71    C121    1.452   .     S
C71    O336    1.273   .     A
C71    O334    1.277   .     A
C72    C84     1.398   .     A
C72    C119    1.407   .     A
C72    O353    1.385   .     S
C73    C83     1.400   .     A
C73    C118    1.405   .     A
C73    O354    1.384   .     S
C74    O355    1.384   .     S
C74    C82     1.398   .     A
C74    C117    1.406   .     A
C75    O356    1.386   .     S
C75    C116    1.410   .     A
C75    C81     1.396   .     A
C76    C124    1.407   .     A
C76    O357    1.385   .     S
C76    C88     1.398   .     A
C77    C122    1.405   .     A
C77    C87     1.400   .     A
C77    O358    1.384   .     S
C78    O359    1.384   .     S
C78    C121    1.406   .     A
C78    C86     1.398   .     A
C79    C68     1.197   1_556 S
C80    O361    1.386   .     S
C80    C85     1.396   .     A
C80    C120    1.410   .     A
C81    C110    1.411   .     A
C81    O362    1.387   .     S
C82    C109    1.408   .     A
C82    O363    1.385   .     S
C83    O364    1.384   .     S
C83    C108    1.405   .     A
C84    C107    1.414   .     A
C84    O365    1.385   .     S
C85    O366    1.387   .     S
C85    C115    1.411   .     A
C86    O367    1.385   .     S
C86    C114    1.408   .     A
C87    C113    1.405   .     A
C87    O368    1.384   .     S
C88    C111    1.414   .     A
C88    O369    1.385   .     S
C89    C108    1.411   .     A
C89    O370    1.385   .     S
C89    C102    1.401   .     A
C90    C101    1.197   .     T
C91    C107    1.410   .     A
C91    C100    1.398   .     A
C91    O372    1.386   .     S
C92    O373    1.385   .     S
C92    C99     1.394   .     A
C92    C110    1.411   .     A
C93    O374    1.385   .     S
C93    C109    1.409   .     A
C93    C98     1.400   .     A
C94    O375    1.385   .     S
C94    C113    1.411   .     A
C94    C106    1.401   .     A
C95    O376    1.386   .     S
C95    C105    1.398   .     A
C95    C111    1.410   .     A
C96    C104    1.394   .     A
C96    C115    1.411   .     A
C96    O377    1.385   .     S
C97    C103    1.400   .     A
C97    O378    1.385   .     S
C97    C114    1.409   .     A
C98    O379    1.387   .     S
C98    C117    1.409   .     A
C99    C116    1.409   .     A
C99    O380    1.386   .     S
C100   O381    1.385   .     S
C100   C119    1.405   .     A
C102   O383    1.385   .     S
C102   C118    1.408   .     A
C103   C121    1.409   .     A
C103   O384    1.387   .     S
C104   C120    1.409   .     A
C104   O385    1.386   .     S
C105   O386    1.385   .     S
C105   C124    1.405   .     A
C106   O387    1.385   .     S
C106   C122    1.408   .     A
C112   C123    1.197   .     T
C123   C134    1.421   .     S
C125   O353    1.416   .     S
C125   H145    1.110   .     S
C125   C126    1.521   .     S
C125   H217    1.118   .     S
C126   H239    1.110   .     S
C126   H250    1.110   .     S
C126   H228    1.110   .     S
C127   O354    1.412   .     S
C127   H261    1.113   .     S
C127   H272    1.114   .     S
C127   C128    1.519   .     S
C128   H294    1.110   .     S
C128   H146    1.109   .     S
C128   H283    1.110   .     S
C129   O355    1.414   .     S
C129   C130    1.520   .     S
C129   H168    1.118   .     S
C129   H157    1.110   .     S
C130   H190    1.109   .     S
C130   H201    1.109   .     S
C130   H179    1.111   .     S
C131   C132    1.520   .     S
C131   H214    1.111   .     S
C131   O356    1.414   .     S
C131   H212    1.112   .     S
C132   H216    1.110   .     S
C132   H218    1.110   .     S
C132   H215    1.111   .     S
C133   H219    1.110   .     S
C133   C135    1.521   .     S
C133   H220    1.118   .     S
C133   O357    1.416   .     S
C134   O349    1.277   .     A
C134   O388    1.277   .     A
C135   H223    1.110   .     S
C135   H221    1.110   .     S
C135   H222    1.110   .     S
C136   O358    1.412   .     S
C136   H224    1.113   .     S
C136   C137    1.519   .     S
C136   H225    1.114   .     S
C137   H227    1.110   .     S
C137   H229    1.109   .     S
C137   H226    1.110   .     S
C138   H230    1.110   .     S
C138   C139    1.520   .     S
C138   H231    1.118   .     S
C138   O359    1.414   .     S
C139   H233    1.109   .     S
C139   H232    1.111   .     S
C139   H234    1.109   .     S
C140   O361    1.414   .     S
C140   C141    1.520   .     S
C140   H235    1.112   .     S
C140   H236    1.111   .     S
C141   H238    1.110   .     S
C141   H240    1.110   .     S
C141   H237    1.111   .     S
C142   H242    1.110   .     S
C142   C143    1.519   .     S
C142   O362    1.417   .     S
C142   H241    1.115   .     S
C143   H243    1.111   .     S
C143   H245    1.111   .     S
C143   H244    1.110   .     S
C144   H247    1.116   .     S
C144   H246    1.111   .     S
C144   O363    1.416   .     S
O305   Zn392   1.936   .     S
O305   Zn389   1.936   .     S
O305   Zn396   1.936   .     S
O305   Zn804   1.936   1_455 S
O306   Zn395   1.921   .     S
O307   Zn390   1.921   .     S
O308   Zn404   1.921   .     S
O309   Zn399   1.921   .     S
O310   C854    1.277   .     A
O310   Zn398   1.921   .     S
O311   Zn401   1.921   .     S
O312   Zn400   1.921   .     S
O312   C457    1.277   .     S
O313   Zn403   1.921   .     S
O313   C843    1.277   .     S
O314   Zn402   1.921   .     S
O315   C456    1.277   .     A
O315   Zn397   1.921   .     S
O316   Zn801   1.936   1_455 S
O316   Zn391   1.936   .     S
O316   Zn395   1.936   .     S
O316   Zn401   1.936   .     S
O317   Zn389   1.921   .     S
O318   Zn396   1.932   .     S
O319   Zn799   1.932   .     S
O320   Zn1198  1.936   .     S
O321   Zn404   1.936   .     S
O322   Zn796   1.932   .     S
O323   Zn391   1.932   .     S
O324   Zn394   1.936   .     S
O325   Zn1201  1.936   .     S
O326   Zn395   1.936   .     S
O327   Zn394   1.936   .     S
O327   Zn402   1.936   .     S
O327   Zn390   1.936   .     S
O327   Zn1206  1.936   1_545 S
O328   Zn800   1.936   .     S
O329   Zn393   1.932   .     S
O330   Zn1202  1.932   .     S
O331   Zn795   1.936   .     S
O332   Zn392   1.936   .     S
O333   Zn1212  1.932   .     S
O334   Zn390   1.932   .     S
O335   Zn403   1.932   .     S
O336   Zn402   1.932   .     S
O337   Zn397   1.936   .     S
O338   Zn393   1.936   .     S
O338   Zn399   1.936   .     S
O338   Zn404   1.936   .     S
O338   Zn1211  1.936   1_545 S
O339   Zn389   1.936   .     S
O340   Zn399   1.932   .     S
O341   Zn398   1.932   .     S
O342   Zn401   1.936   .     S
O343   Zn400   1.936   .     S
O344   Zn402   1.936   .     S
O345   Zn403   1.936   .     S
O346   Zn400   1.932   .     S
O347   Zn401   1.932   .     S
O348   Zn398   1.936   .     S
O349   Zn392   1.921   .     S
O350   Zn399   1.936   .     S
O351   Zn389   1.932   .     S
O352   Zn397   1.932   .     S
O360   Zn391   1.921   .     S
O371   Zn394   1.921   .     S
O382   Zn393   1.921   .     S
O388   Zn396   1.921   .     S
Zn390  O1128   1.936   1_545 S
Zn391  O735    1.936   1_455 S
Zn392  O726    1.932   1_455 S
Zn393  O1133   1.936   1_545 S
Zn394  O1138   1.932   1_545 S
Zn395  O723    1.932   1_455 S
Zn396  O732    1.936   1_455 S
Zn397  O720    1.936   .     S
Zn398  O1135   1.936   .     S
Zn400  O709    1.936   .     S
Zn403  O1146   1.936   .     S
Zn404  O1141   1.932   1_545 S
C405   C457    1.420   .     S
C405   C461    1.197   1_554 S
C406   C516    1.420   .     S
C406   O710    1.277   .     A
C406   O764    1.277   .     S
C407   H655    1.111   .     S
C407   H653    1.110   .     S
C407   C548    1.518   .     S
C407   H652    1.110   .     S
C408   H656    1.115   .     S
C408   C409    1.518   .     S
C408   O768    1.414   .     S
C408   H657    1.114   .     S
C409   H660    1.110   .     S
C409   H659    1.110   .     S
C409   H658    1.111   .     S
C410   O769    1.414   .     S
C410   H662    1.111   .     S
C410   H661    1.109   .     S
C410   C411    1.520   .     S
C411   H663    1.111   .     S
C411   H666    1.110   .     S
C411   H664    1.109   .     S
C412   H668    1.110   .     S
C412   H667    1.115   .     S
C412   O770    1.417   .     S
C412   C413    1.519   .     S
C413   H669    1.111   .     S
C413   H671    1.111   .     S
C413   H670    1.110   .     S
C414   H672    1.111   .     S
C414   C415    1.518   .     S
C414   O771    1.416   .     S
C414   H673    1.116   .     S
C415   H677    1.111   .     S
C415   H674    1.110   .     S
C415   H675    1.110   .     S
C416   O772    1.414   .     S
C416   H679    1.114   .     S
C416   H678    1.115   .     S
C416   C418    1.518   .     S
C417   O775    1.277   .     A
C417   O711    1.277   .     A
C417   C505    1.420   .     S
C418   H680    1.111   .     S
C418   H681    1.110   .     S
C418   H682    1.110   .     S
C419   H684    1.111   .     S
C419   H683    1.109   .     S
C419   O773    1.414   .     S
C419   C420    1.520   .     S
C420   H688    1.110   .     S
C420   H685    1.111   .     S
C420   H686    1.109   .     S
C421   O774    1.414   .     S
C421   C422    1.522   .     S
C421   H690    1.111   .     S
C421   H689    1.114   .     S
C422   H692    1.109   .     S
C422   H691    1.111   .     S
C422   H693    1.111   .     S
C423   O776    1.413   .     S
C423   C424    1.521   .     S
C423   H694    1.112   .     S
C423   H695    1.115   .     S
C424   H697    1.110   .     S
C424   H699    1.111   .     S
C424   H696    1.110   .     S
C425   C426    1.520   .     S
C425   H700    1.111   .     S
C425   H701    1.112   .     S
C425   O777    1.412   .     S
C426   H703    1.108   .     S
C426   H704    1.111   .     S
C426   H702    1.110   .     S
C427   H705    1.112   .     S
C427   O778    1.414   .     S
C427   H706    1.112   .     S
C427   C429    1.519   .     S
C428   C494    1.420   .     S
C428   O786    1.277   .     A
C428   O712    1.277   .     A
C429   H551    1.111   .     S
C429   H708    1.110   .     S
C429   H707    1.111   .     S
C430   O779    1.414   .     S
C430   H552    1.114   .     S
C430   H553    1.111   .     S
C430   C431    1.522   .     S
C431   H555    1.110   .     S
C431   H556    1.111   .     S
C431   H554    1.111   .     S
C432   H557    1.112   .     S
C432   C433    1.521   .     S
C432   O780    1.413   .     S
C432   H558    1.115   .     S
C433   H559    1.110   .     S
C433   H562    1.111   .     S
C433   H560    1.110   .     S
C434   O781    1.412   .     S
C434   H563    1.111   .     S
C434   C435    1.520   .     S
C434   H564    1.112   .     S
C435   H565    1.110   .     S
C435   H566    1.108   .     S
C435   H567    1.111   .     S
C436   O782    1.414   .     S
C436   H568    1.112   .     S
C436   H569    1.112   .     S
C436   C437    1.519   .     S
C437   H570    1.110   .     S
C437   H573    1.111   .     S
C437   H571    1.110   .     S
C438   O783    1.417   .     S
C438   H575    1.110   .     S
C438   C440    1.518   .     S
C438   H574    1.115   .     S
C439   O713    1.277   .     A
C439   C483    1.421   .     S
C439   O1525   1.277   1_545 S
C440   H577    1.111   .     S
C440   H576    1.110   .     S
C440   H578    1.111   .     S
C441   H579    1.111   .     S
C441   O784    1.416   .     S
C441   H580    1.116   .     S
C441   C442    1.518   .     S
C442   H581    1.111   .     S
C442   H584    1.111   .     S
C442   H582    1.109   .     S
C443   C444    1.521   .     S
C443   H586    1.114   .     S
C443   O785    1.412   .     S
C443   H585    1.114   .     S
C444   H587    1.111   .     S
C444   H588    1.110   .     S
C444   H589    1.111   .     S
C445   H591    1.110   .     S
C445   H590    1.118   .     S
C445   C446    1.521   .     S
C445   O787    1.416   .     S
C446   H593    1.109   .     S
C446   H595    1.110   .     S
C446   H592    1.110   .     S
C447   O788    1.417   .     S
C447   C448    1.518   .     S
C447   H596    1.115   .     S
C447   H597    1.110   .     S
C448   H600    1.111   .     S
C448   H599    1.111   .     S
C448   H598    1.110   .     S
C449   C451    1.518   .     S
C449   H601    1.110   .     S
C449   H602    1.116   .     S
C449   O789    1.417   .     S
C450   O1522   1.277   1_545 A
C450   C472    1.420   .     S
C450   O718    1.277   .     S
C451   H603    1.111   .     S
C451   H606    1.111   .     S
C451   H604    1.109   .     S
C452   H607    1.114   .     S
C452   O790    1.412   .     S
C452   H608    1.114   .     S
C452   C453    1.521   .     S
C453   H610    1.110   .     S
C453   H609    1.111   .     S
C453   H611    1.111   .     S
C454   H613    1.110   .     S
C454   H612    1.118   .     S
C454   O791    1.416   .     S
C454   C455    1.521   .     S
C455   H614    1.110   .     S
C455   H617    1.110   .     S
C455   H615    1.109   .     S
C456   C461    1.420   .     S
C456   O715    1.277   .     S
C457   O721    1.277   .     A
C458   O755    1.275   .     A
C458   C518    1.452   .     S
C458   O722    1.274   .     A
C459   O756    1.277   .     A
C459   C519    1.452   .     S
C459   O723    1.273   .     A
C460   O752    1.278   .     A
C460   C511    1.458   .     S
C460   O724    1.274   .     A
C461   C405    1.197   1_556 S
C462   O754    1.276   .     A
C462   C512    1.454   .     S
C462   O725    1.273   .     A
C463   C513    1.452   .     S
C463   O750    1.275   .     A
C463   O726    1.274   .     A
C464   O751    1.277   .     A
C464   O727    1.273   .     A
C464   C514    1.452   .     S
C465   O728    1.274   .     A
C465   O748    1.278   .     A
C465   C515    1.458   .     S
C466   O749    1.276   .     A
C466   O729    1.273   .     A
C466   C517    1.454   .     S
C467   O746    1.275   .     A
C467   C526    1.458   .     S
C467   O730    1.277   .     A
C468   C528    1.455   .     S
C468   O732    1.275   .     A
C468   O747    1.275   .     A
C469   O733    1.276   .     A
C469   C520    1.452   .     S
C469   O744    1.274   .     A
C470   O734    1.277   .     A
C470   C521    1.452   .     S
C470   O745    1.273   .     A
C471   C522    1.458   .     S
C471   O741    1.275   .     A
C471   O735    1.277   .     A
C472   C483    1.197   1_554 S
C473   C523    1.455   .     S
C473   O743    1.275   .     A
C473   O736    1.275   .     A
C474   O737    1.276   .     A
C474   C524    1.452   .     S
C474   O739    1.274   .     A
C475   C525    1.452   .     S
C475   O740    1.273   .     A
C475   O738    1.277   .     A
C476   C488    1.398   .     A
C476   C523    1.407   .     A
C476   O757    1.385   .     S
C477   C487    1.400   .     A
C477   C522    1.405   .     A
C477   O758    1.384   .     S
C478   O759    1.384   .     S
C478   C486    1.398   .     A
C478   C521    1.406   .     A
C479   O760    1.386   .     S
C479   C520    1.410   .     A
C479   C485    1.396   .     A
C480   C528    1.407   .     A
C480   O761    1.385   .     S
C480   C492    1.398   .     A
C481   C526    1.405   .     A
C481   C491    1.400   .     A
C481   O762    1.384   .     S
C482   O763    1.384   .     S
C482   C525    1.406   .     A
C482   C490    1.398   .     A
C483   C472    1.197   1_556 S
C484   O765    1.386   .     S
C484   C489    1.396   .     A
C484   C524    1.410   .     A
C485   C514    1.411   .     A
C485   O766    1.387   .     S
C486   C513    1.408   .     A
C486   O767    1.385   .     S
C487   O768    1.384   .     S
C487   C512    1.405   .     A
C488   C511    1.414   .     A
C488   O769    1.385   .     S
C489   O770    1.387   .     S
C489   C519    1.411   .     A
C490   O771    1.385   .     S
C490   C518    1.408   .     A
C491   C517    1.405   .     A
C491   O772    1.384   .     S
C492   C515    1.414   .     A
C492   O773    1.385   .     S
C493   C512    1.411   .     A
C493   O774    1.385   .     S
C493   C506    1.401   .     A
C494   C505    1.197   .     T
C495   C511    1.410   .     A
C495   C504    1.398   .     A
C495   O776    1.386   .     S
C496   O777    1.385   .     S
C496   C503    1.394   .     A
C496   C514    1.411   .     A
C497   O778    1.385   .     S
C497   C513    1.409   .     A
C497   C502    1.400   .     A
C498   O779    1.385   .     S
C498   C517    1.411   .     A
C498   C510    1.401   .     A
C499   O780    1.386   .     S
C499   C509    1.398   .     A
C499   C515    1.410   .     A
C500   C508    1.394   .     A
C500   C519    1.411   .     A
C500   O781    1.385   .     S
C501   C507    1.400   .     A
C501   O782    1.385   .     S
C501   C518    1.409   .     A
C502   O783    1.387   .     S
C502   C521    1.409   .     A
C503   C520    1.409   .     A
C503   O784    1.386   .     S
C504   O785    1.385   .     S
C504   C523    1.405   .     A
C506   O787    1.385   .     S
C506   C522    1.408   .     A
C507   C525    1.409   .     A
C507   O788    1.387   .     S
C508   C524    1.409   .     A
C508   O789    1.386   .     S
C509   O790    1.385   .     S
C509   C528    1.405   .     A
C510   O791    1.385   .     S
C510   C526    1.408   .     A
C516   C527    1.197   .     T
C527   C538    1.421   .     S
C529   O757    1.416   .     S
C529   H549    1.110   .     S
C529   C530    1.521   .     S
C529   H621    1.118   .     S
C530   H643    1.110   .     S
C530   H654    1.110   .     S
C530   H632    1.110   .     S
C531   O758    1.412   .     S
C531   H665    1.113   .     S
C531   H676    1.114   .     S
C531   C532    1.519   .     S
C532   H698    1.110   .     S
C532   H550    1.109   .     S
C532   H687    1.110   .     S
C533   O759    1.414   .     S
C533   C534    1.520   .     S
C533   H572    1.118   .     S
C533   H561    1.110   .     S
C534   H594    1.109   .     S
C534   H605    1.109   .     S
C534   H583    1.111   .     S
C535   C536    1.520   .     S
C535   H618    1.111   .     S
C535   O760    1.414   .     S
C535   H616    1.112   .     S
C536   H620    1.110   .     S
C536   H622    1.110   .     S
C536   H619    1.111   .     S
C537   H623    1.110   .     S
C537   C539    1.521   .     S
C537   H624    1.118   .     S
C537   O761    1.416   .     S
C538   O753    1.277   .     A
C538   O792    1.277   .     A
C539   H627    1.110   .     S
C539   H625    1.110   .     S
C539   H626    1.110   .     S
C540   O762    1.412   .     S
C540   H628    1.113   .     S
C540   C541    1.519   .     S
C540   H629    1.114   .     S
C541   H631    1.110   .     S
C541   H633    1.109   .     S
C541   H630    1.110   .     S
C542   H634    1.110   .     S
C542   C543    1.520   .     S
C542   H635    1.118   .     S
C542   O763    1.414   .     S
C543   H637    1.109   .     S
C543   H636    1.111   .     S
C543   H638    1.109   .     S
C544   O765    1.414   .     S
C544   C545    1.520   .     S
C544   H639    1.112   .     S
C544   H640    1.111   .     S
C545   H642    1.110   .     S
C545   H644    1.110   .     S
C545   H641    1.111   .     S
C546   H646    1.110   .     S
C546   C547    1.519   .     S
C546   O766    1.417   .     S
C546   H645    1.115   .     S
C547   H647    1.111   .     S
C547   H649    1.111   .     S
C547   H648    1.110   .     S
C548   H651    1.116   .     S
C548   H650    1.111   .     S
C548   O767    1.416   .     S
O709   Zn796   1.936   .     S
O709   Zn793   1.936   .     S
O709   Zn800   1.936   .     S
O710   Zn799   1.921   .     S
O711   Zn794   1.921   .     S
O712   Zn808   1.921   .     S
O713   Zn803   1.921   .     S
O714   C1258   1.277   .     A
O714   Zn802   1.921   .     S
O715   Zn805   1.921   .     S
O716   Zn804   1.921   .     S
O716   C53     1.277   1_655 S
O717   Zn807   1.921   .     S
O717   C1247   1.277   .     S
O718   Zn806   1.921   .     S
O719   C52     1.277   1_655 A
O719   Zn801   1.921   .     S
O720   Zn795   1.936   .     S
O720   Zn799   1.936   .     S
O720   Zn805   1.936   .     S
O721   Zn793   1.921   .     S
O722   Zn800   1.932   .     S
O723   Zn395   1.932   1_655 S
O724   Zn1602  1.936   .     S
O725   Zn808   1.936   .     S
O726   Zn392   1.932   1_655 S
O727   Zn795   1.932   .     S
O728   Zn798   1.936   .     S
O729   Zn1605  1.936   .     S
O730   Zn799   1.936   .     S
O731   Zn798   1.936   .     S
O731   Zn806   1.936   .     S
O731   Zn794   1.936   .     S
O731   Zn1610  1.936   1_545 S
O732   Zn396   1.936   1_655 S
O733   Zn797   1.932   .     S
O734   Zn1606  1.932   .     S
O735   Zn391   1.936   1_655 S
O736   Zn796   1.936   .     S
O737   Zn1616  1.932   .     S
O738   Zn794   1.932   .     S
O739   Zn807   1.932   .     S
O740   Zn806   1.932   .     S
O741   Zn801   1.936   .     S
O742   Zn797   1.936   .     S
O742   Zn803   1.936   .     S
O742   Zn808   1.936   .     S
O742   Zn1615  1.936   1_545 S
O743   Zn793   1.936   .     S
O744   Zn803   1.932   .     S
O745   Zn802   1.932   .     S
O746   Zn805   1.936   .     S
O747   Zn804   1.936   .     S
O748   Zn806   1.936   .     S
O749   Zn807   1.936   .     S
O750   Zn804   1.932   .     S
O751   Zn805   1.932   .     S
O752   Zn802   1.936   .     S
O753   Zn796   1.921   .     S
O754   Zn803   1.936   .     S
O755   Zn793   1.932   .     S
O756   Zn801   1.932   .     S
O764   Zn795   1.921   .     S
O775   Zn798   1.921   .     S
O786   Zn797   1.921   .     S
O792   Zn800   1.921   .     S
Zn794  O1532   1.936   1_545 S
Zn797  O1537   1.936   1_545 S
Zn798  O1542   1.932   1_545 S
Zn801  O316    1.936   1_655 S
Zn802  O1539   1.936   .     S
Zn804  O305    1.936   1_655 S
Zn807  O1550   1.936   .     S
Zn808  O1545   1.932   1_545 S
C809   C861    1.420   .     S
C809   C865    1.197   1_554 S
C810   C920    1.420   .     S
C810   O1114   1.277   .     A
C810   O1168   1.277   .     S
C811   H1059   1.111   .     S
C811   H1057   1.110   .     S
C811   C952    1.518   .     S
C811   H1056   1.110   .     S
C812   H1060   1.115   .     S
C812   C813    1.518   .     S
C812   O1172   1.414   .     S
C812   H1061   1.114   .     S
C813   H1064   1.110   .     S
C813   H1063   1.110   .     S
C813   H1062   1.111   .     S
C814   O1173   1.414   .     S
C814   H1066   1.111   .     S
C814   H1065   1.109   .     S
C814   C815    1.520   .     S
C815   H1067   1.111   .     S
C815   H1070   1.110   .     S
C815   H1068   1.109   .     S
C816   H1072   1.110   .     S
C816   H1071   1.115   .     S
C816   O1174   1.417   .     S
C816   C817    1.519   .     S
C817   H1073   1.111   .     S
C817   H1075   1.111   .     S
C817   H1074   1.110   .     S
C818   H1076   1.111   .     S
C818   C819    1.518   .     S
C818   O1175   1.416   .     S
C818   H1077   1.116   .     S
C819   H1081   1.111   .     S
C819   H1078   1.110   .     S
C819   H1079   1.110   .     S
C820   O1176   1.414   .     S
C820   H1083   1.114   .     S
C820   H1082   1.115   .     S
C820   C822    1.518   .     S
C821   O1179   1.277   .     A
C821   O1115   1.277   .     A
C821   C909    1.420   .     S
C822   H1084   1.111   .     S
C822   H1085   1.110   .     S
C822   H1086   1.110   .     S
C823   H1088   1.111   .     S
C823   H1087   1.109   .     S
C823   O1177   1.414   .     S
C823   C824    1.520   .     S
C824   H1092   1.110   .     S
C824   H1089   1.111   .     S
C824   H1090   1.109   .     S
C825   O1178   1.414   .     S
C825   C826    1.522   .     S
C825   H1094   1.111   .     S
C825   H1093   1.114   .     S
C826   H1096   1.109   .     S
C826   H1095   1.111   .     S
C826   H1097   1.111   .     S
C827   O1180   1.413   .     S
C827   C828    1.521   .     S
C827   H1098   1.112   .     S
C827   H1099   1.115   .     S
C828   H1101   1.110   .     S
C828   H1103   1.111   .     S
C828   H1100   1.110   .     S
C829   C830    1.520   .     S
C829   H1104   1.111   .     S
C829   H1105   1.112   .     S
C829   O1181   1.412   .     S
C830   H1107   1.108   .     S
C830   H1108   1.111   .     S
C830   H1106   1.110   .     S
C831   H1109   1.112   .     S
C831   O1182   1.414   .     S
C831   H1110   1.112   .     S
C831   C833    1.519   .     S
C832   C898    1.420   .     S
C832   O1190   1.277   .     A
C832   O1116   1.277   .     A
C833   H955    1.111   .     S
C833   H1112   1.110   .     S
C833   H1111   1.111   .     S
C834   O1183   1.414   .     S
C834   H956    1.114   .     S
C834   H957    1.111   .     S
C834   C835    1.522   .     S
C835   H959    1.110   .     S
C835   H960    1.111   .     S
C835   H958    1.111   .     S
C836   H961    1.112   .     S
C836   C837    1.521   .     S
C836   O1184   1.413   .     S
C836   H962    1.115   .     S
C837   H963    1.110   .     S
C837   H966    1.111   .     S
C837   H964    1.110   .     S
C838   O1185   1.412   .     S
C838   H967    1.111   .     S
C838   C839    1.520   .     S
C838   H968    1.112   .     S
C839   H969    1.110   .     S
C839   H970    1.108   .     S
C839   H971    1.111   .     S
C840   O1186   1.414   .     S
C840   H972    1.112   .     S
C840   H973    1.112   .     S
C840   C841    1.519   .     S
C841   H974    1.110   .     S
C841   H977    1.111   .     S
C841   H975    1.110   .     S
C842   O1187   1.417   .     S
C842   H979    1.110   .     S
C842   C844    1.518   .     S
C842   H978    1.115   .     S
C843   O1117   1.277   .     A
C843   C887    1.421   .     S
C844   H981    1.111   .     S
C844   H980    1.110   .     S
C844   H982    1.111   .     S
C845   H983    1.111   .     S
C845   O1188   1.416   .     S
C845   H984    1.116   .     S
C845   C846    1.518   .     S
C846   H985    1.111   .     S
C846   H988    1.111   .     S
C846   H986    1.109   .     S
C847   C848    1.521   .     S
C847   H990    1.114   .     S
C847   O1189   1.412   .     S
C847   H989    1.114   .     S
C848   H991    1.111   .     S
C848   H992    1.110   .     S
C848   H993    1.111   .     S
C849   H995    1.110   .     S
C849   H994    1.118   .     S
C849   C850    1.521   .     S
C849   O1191   1.416   .     S
C850   H997    1.109   .     S
C850   H999    1.110   .     S
C850   H996    1.110   .     S
C851   O1192   1.417   .     S
C851   C852    1.518   .     S
C851   H1000   1.115   .     S
C851   H1001   1.110   .     S
C852   H1004   1.111   .     S
C852   H1003   1.111   .     S
C852   H1002   1.110   .     S
C853   C855    1.518   .     S
C853   H1005   1.110   .     S
C853   H1006   1.116   .     S
C853   O1193   1.417   .     S
C854   C876    1.420   .     S
C854   O1122   1.277   .     S
C855   H1007   1.111   .     S
C855   H1010   1.111   .     S
C855   H1008   1.109   .     S
C856   H1011   1.114   .     S
C856   O1194   1.412   .     S
C856   H1012   1.114   .     S
C856   C857    1.521   .     S
C857   H1014   1.110   .     S
C857   H1013   1.111   .     S
C857   H1015   1.111   .     S
C858   H1017   1.110   .     S
C858   H1016   1.118   .     S
C858   O1195   1.416   .     S
C858   C859    1.521   .     S
C859   H1018   1.110   .     S
C859   H1021   1.110   .     S
C859   H1019   1.109   .     S
C860   C865    1.420   .     S
C860   O1527   1.277   1_455 A
C860   O1119   1.277   .     S
C861   O1125   1.277   .     A
C861   O1524   1.277   1_455 S
C862   O1159   1.275   .     A
C862   C922    1.452   .     S
C862   O1126   1.274   .     A
C863   O1160   1.277   .     A
C863   C923    1.452   .     S
C863   O1127   1.273   .     A
C864   O1156   1.278   .     A
C864   C915    1.458   .     S
C864   O1128   1.274   .     A
C865   C809    1.197   1_556 S
C866   O1158   1.276   .     A
C866   C916    1.454   .     S
C866   O1129   1.273   .     A
C867   C917    1.452   .     S
C867   O1154   1.275   .     A
C867   O1130   1.274   .     A
C868   O1155   1.277   .     A
C868   O1131   1.273   .     A
C868   C918    1.452   .     S
C869   O1132   1.274   .     A
C869   O1152   1.278   .     A
C869   C919    1.458   .     S
C870   O1153   1.276   .     A
C870   O1133   1.273   .     A
C870   C921    1.454   .     S
C871   O1150   1.275   .     A
C871   C930    1.458   .     S
C871   O1134   1.277   .     A
C872   C932    1.455   .     S
C872   O1136   1.275   .     A
C872   O1151   1.275   .     A
C873   O1137   1.276   .     A
C873   C924    1.452   .     S
C873   O1148   1.274   .     A
C874   O1138   1.277   .     A
C874   C925    1.452   .     S
C874   O1149   1.273   .     A
C875   C926    1.458   .     S
C875   O1145   1.275   .     A
C875   O1139   1.277   .     A
C876   C887    1.197   1_554 S
C877   C927    1.455   .     S
C877   O1147   1.275   .     A
C877   O1140   1.275   .     A
C878   O1141   1.276   .     A
C878   C928    1.452   .     S
C878   O1143   1.274   .     A
C879   C929    1.452   .     S
C879   O1144   1.273   .     A
C879   O1142   1.277   .     A
C880   C892    1.398   .     A
C880   C927    1.407   .     A
C880   O1161   1.385   .     S
C881   C891    1.400   .     A
C881   C926    1.405   .     A
C881   O1162   1.384   .     S
C882   O1163   1.384   .     S
C882   C890    1.398   .     A
C882   C925    1.406   .     A
C883   O1164   1.386   .     S
C883   C924    1.410   .     A
C883   C889    1.396   .     A
C884   C932    1.407   .     A
C884   O1165   1.385   .     S
C884   C896    1.398   .     A
C885   C930    1.405   .     A
C885   C895    1.400   .     A
C885   O1166   1.384   .     S
C886   O1167   1.384   .     S
C886   C929    1.406   .     A
C886   C894    1.398   .     A
C887   C876    1.197   1_556 S
C888   O1169   1.386   .     S
C888   C893    1.396   .     A
C888   C928    1.410   .     A
C889   C918    1.411   .     A
C889   O1170   1.387   .     S
C890   C917    1.408   .     A
C890   O1171   1.385   .     S
C891   O1172   1.384   .     S
C891   C916    1.405   .     A
C892   C915    1.414   .     A
C892   O1173   1.385   .     S
C893   O1174   1.387   .     S
C893   C923    1.411   .     A
C894   O1175   1.385   .     S
C894   C922    1.408   .     A
C895   C921    1.405   .     A
C895   O1176   1.384   .     S
C896   C919    1.414   .     A
C896   O1177   1.385   .     S
C897   C916    1.411   .     A
C897   O1178   1.385   .     S
C897   C910    1.401   .     A
C898   C909    1.197   .     T
C899   C915    1.410   .     A
C899   C908    1.398   .     A
C899   O1180   1.386   .     S
C900   O1181   1.385   .     S
C900   C907    1.394   .     A
C900   C918    1.411   .     A
C901   O1182   1.385   .     S
C901   C917    1.409   .     A
C901   C906    1.400   .     A
C902   O1183   1.385   .     S
C902   C921    1.411   .     A
C902   C914    1.401   .     A
C903   O1184   1.386   .     S
C903   C913    1.398   .     A
C903   C919    1.410   .     A
C904   C912    1.394   .     A
C904   C923    1.411   .     A
C904   O1185   1.385   .     S
C905   C911    1.400   .     A
C905   O1186   1.385   .     S
C905   C922    1.409   .     A
C906   O1187   1.387   .     S
C906   C925    1.409   .     A
C907   C924    1.409   .     A
C907   O1188   1.386   .     S
C908   O1189   1.385   .     S
C908   C927    1.405   .     A
C910   O1191   1.385   .     S
C910   C926    1.408   .     A
C911   C929    1.409   .     A
C911   O1192   1.387   .     S
C912   C928    1.409   .     A
C912   O1193   1.386   .     S
C913   O1194   1.385   .     S
C913   C932    1.405   .     A
C914   O1195   1.385   .     S
C914   C930    1.408   .     A
C920   C931    1.197   .     T
C931   C942    1.421   .     S
C933   O1161   1.416   .     S
C933   H953    1.110   .     S
C933   C934    1.521   .     S
C933   H1025   1.118   .     S
C934   H1047   1.110   .     S
C934   H1058   1.110   .     S
C934   H1036   1.110   .     S
C935   O1162   1.412   .     S
C935   H1069   1.113   .     S
C935   H1080   1.114   .     S
C935   C936    1.519   .     S
C936   H1102   1.110   .     S
C936   H954    1.109   .     S
C936   H1091   1.110   .     S
C937   O1163   1.414   .     S
C937   C938    1.520   .     S
C937   H976    1.118   .     S
C937   H965    1.110   .     S
C938   H998    1.109   .     S
C938   H1009   1.109   .     S
C938   H987    1.111   .     S
C939   C940    1.520   .     S
C939   H1022   1.111   .     S
C939   O1164   1.414   .     S
C939   H1020   1.112   .     S
C940   H1024   1.110   .     S
C940   H1026   1.110   .     S
C940   H1023   1.111   .     S
C941   H1027   1.110   .     S
C941   C943    1.521   .     S
C941   H1028   1.118   .     S
C941   O1165   1.416   .     S
C942   O1157   1.277   .     A
C942   O1196   1.277   .     A
C943   H1031   1.110   .     S
C943   H1029   1.110   .     S
C943   H1030   1.110   .     S
C944   O1166   1.412   .     S
C944   H1032   1.113   .     S
C944   C945    1.519   .     S
C944   H1033   1.114   .     S
C945   H1035   1.110   .     S
C945   H1037   1.109   .     S
C945   H1034   1.110   .     S
C946   H1038   1.110   .     S
C946   C947    1.520   .     S
C946   H1039   1.118   .     S
C946   O1167   1.414   .     S
C947   H1041   1.109   .     S
C947   H1040   1.111   .     S
C947   H1042   1.109   .     S
C948   O1169   1.414   .     S
C948   C949    1.520   .     S
C948   H1043   1.112   .     S
C948   H1044   1.111   .     S
C949   H1046   1.110   .     S
C949   H1048   1.110   .     S
C949   H1045   1.111   .     S
C950   H1050   1.110   .     S
C950   C951    1.519   .     S
C950   O1170   1.417   .     S
C950   H1049   1.115   .     S
C951   H1051   1.111   .     S
C951   H1053   1.111   .     S
C951   H1052   1.110   .     S
C952   H1055   1.116   .     S
C952   H1054   1.111   .     S
C952   O1171   1.416   .     S
O1113  Zn1200  1.936   .     S
O1113  Zn1197  1.936   .     S
O1113  Zn1204  1.936   .     S
O1113  Zn1612  1.936   1_455 S
O1114  Zn1203  1.921   .     S
O1115  Zn1198  1.921   .     S
O1116  Zn1212  1.921   .     S
O1117  Zn1207  1.921   .     S
O1118  C46     1.277   1_565 A
O1118  Zn1206  1.921   .     S
O1119  Zn1209  1.921   .     S
O1120  Zn1208  1.921   .     S
O1120  C1265   1.277   .     S
O1121  Zn1211  1.921   .     S
O1121  C35     1.277   1_565 S
O1122  Zn1210  1.921   .     S
O1123  C1264   1.277   .     A
O1123  Zn1205  1.921   .     S
O1124  Zn1609  1.936   1_455 S
O1124  Zn1199  1.936   .     S
O1124  Zn1203  1.936   .     S
O1124  Zn1209  1.936   .     S
O1125  Zn1197  1.921   .     S
O1126  Zn1204  1.932   .     S
O1127  Zn1607  1.932   .     S
O1128  Zn390   1.936   1_565 S
O1129  Zn1212  1.936   .     S
O1130  Zn1604  1.932   .     S
O1131  Zn1199  1.932   .     S
O1132  Zn1202  1.936   .     S
O1133  Zn393   1.936   1_565 S
O1134  Zn1203  1.936   .     S
O1135  Zn1202  1.936   .     S
O1135  Zn1210  1.936   .     S
O1135  Zn1198  1.936   .     S
O1136  Zn1608  1.936   .     S
O1137  Zn1201  1.932   .     S
O1138  Zn394   1.932   1_565 S
O1139  Zn1603  1.936   .     S
O1140  Zn1200  1.936   .     S
O1141  Zn404   1.932   1_565 S
O1142  Zn1198  1.932   .     S
O1143  Zn1211  1.932   .     S
O1144  Zn1210  1.932   .     S
O1145  Zn1205  1.936   .     S
O1146  Zn1201  1.936   .     S
O1146  Zn1207  1.936   .     S
O1146  Zn1212  1.936   .     S
O1147  Zn1197  1.936   .     S
O1148  Zn1207  1.932   .     S
O1149  Zn1206  1.932   .     S
O1150  Zn1209  1.936   .     S
O1151  Zn1208  1.936   .     S
O1152  Zn1210  1.936   .     S
O1153  Zn1211  1.936   .     S
O1154  Zn1208  1.932   .     S
O1155  Zn1209  1.932   .     S
O1156  Zn1206  1.936   .     S
O1157  Zn1200  1.921   .     S
O1158  Zn1207  1.936   .     S
O1159  Zn1197  1.932   .     S
O1160  Zn1205  1.932   .     S
O1168  Zn1199  1.921   .     S
O1179  Zn1202  1.921   .     S
O1190  Zn1201  1.921   .     S
O1196  Zn1204  1.921   .     S
Zn1199 O1543   1.936   1_455 S
Zn1200 O1534   1.932   1_455 S
Zn1203 O1531   1.932   1_455 S
Zn1204 O1540   1.936   1_455 S
Zn1205 O1528   1.936   .     S
Zn1206 O327    1.936   1_565 S
Zn1208 O1517   1.936   .     S
Zn1211 O338    1.936   1_565 S
C1213  C1265   1.420   .     S
C1213  C1269   1.197   1_554 S
C1214  C1324   1.420   .     S
C1214  O1518   1.277   .     A
C1214  O1572   1.277   .     S
C1215  H1463   1.111   .     S
C1215  H1461   1.110   .     S
C1215  C1356   1.518   .     S
C1215  H1460   1.110   .     S
C1216  H1464   1.115   .     S
C1216  C1217   1.518   .     S
C1216  O1576   1.414   .     S
C1216  H1465   1.114   .     S
C1217  H1468   1.110   .     S
C1217  H1467   1.110   .     S
C1217  H1466   1.111   .     S
C1218  O1577   1.414   .     S
C1218  H1470   1.111   .     S
C1218  H1469   1.109   .     S
C1218  C1219   1.520   .     S
C1219  H1471   1.111   .     S
C1219  H1474   1.110   .     S
C1219  H1472   1.109   .     S
C1220  H1476   1.110   .     S
C1220  H1475   1.115   .     S
C1220  O1578   1.417   .     S
C1220  C1221   1.519   .     S
C1221  H1477   1.111   .     S
C1221  H1479   1.111   .     S
C1221  H1478   1.110   .     S
C1222  H1480   1.111   .     S
C1222  C1223   1.518   .     S
C1222  O1579   1.416   .     S
C1222  H1481   1.116   .     S
C1223  H1485   1.111   .     S
C1223  H1482   1.110   .     S
C1223  H1483   1.110   .     S
C1224  O1580   1.414   .     S
C1224  H1487   1.114   .     S
C1224  H1486   1.115   .     S
C1224  C1226   1.518   .     S
C1225  O1583   1.277   .     A
C1225  O1519   1.277   .     A
C1225  C1313   1.420   .     S
C1226  H1488   1.111   .     S
C1226  H1489   1.110   .     S
C1226  H1490   1.110   .     S
C1227  H1492   1.111   .     S
C1227  H1491   1.109   .     S
C1227  O1581   1.414   .     S
C1227  C1228   1.520   .     S
C1228  H1496   1.110   .     S
C1228  H1493   1.111   .     S
C1228  H1494   1.109   .     S
C1229  O1582   1.414   .     S
C1229  C1230   1.522   .     S
C1229  H1498   1.111   .     S
C1229  H1497   1.114   .     S
C1230  H1500   1.109   .     S
C1230  H1499   1.111   .     S
C1230  H1501   1.111   .     S
C1231  O1584   1.413   .     S
C1231  C1232   1.521   .     S
C1231  H1502   1.112   .     S
C1231  H1503   1.115   .     S
C1232  H1505   1.110   .     S
C1232  H1507   1.111   .     S
C1232  H1504   1.110   .     S
C1233  C1234   1.520   .     S
C1233  H1508   1.111   .     S
C1233  H1509   1.112   .     S
C1233  O1585   1.412   .     S
C1234  H1511   1.108   .     S
C1234  H1512   1.111   .     S
C1234  H1510   1.110   .     S
C1235  H1513   1.112   .     S
C1235  O1586   1.414   .     S
C1235  H1514   1.112   .     S
C1235  C1237   1.519   .     S
C1236  C1302   1.420   .     S
C1236  O1594   1.277   .     A
C1236  O1520   1.277   .     A
C1237  H1359   1.111   .     S
C1237  H1516   1.110   .     S
C1237  H1515   1.111   .     S
C1238  O1587   1.414   .     S
C1238  H1360   1.114   .     S
C1238  H1361   1.111   .     S
C1238  C1239   1.522   .     S
C1239  H1363   1.110   .     S
C1239  H1364   1.111   .     S
C1239  H1362   1.111   .     S
C1240  H1365   1.112   .     S
C1240  C1241   1.521   .     S
C1240  O1588   1.413   .     S
C1240  H1366   1.115   .     S
C1241  H1367   1.110   .     S
C1241  H1370   1.111   .     S
C1241  H1368   1.110   .     S
C1242  O1589   1.412   .     S
C1242  H1371   1.111   .     S
C1242  C1243   1.520   .     S
C1242  H1372   1.112   .     S
C1243  H1373   1.110   .     S
C1243  H1374   1.108   .     S
C1243  H1375   1.111   .     S
C1244  O1590   1.414   .     S
C1244  H1376   1.112   .     S
C1244  H1377   1.112   .     S
C1244  C1245   1.519   .     S
C1245  H1378   1.110   .     S
C1245  H1381   1.111   .     S
C1245  H1379   1.110   .     S
C1246  O1591   1.417   .     S
C1246  H1383   1.110   .     S
C1246  C1248   1.518   .     S
C1246  H1382   1.115   .     S
C1247  O1521   1.277   .     A
C1247  C1291   1.421   .     S
C1248  H1385   1.111   .     S
C1248  H1384   1.110   .     S
C1248  H1386   1.111   .     S
C1249  H1387   1.111   .     S
C1249  O1592   1.416   .     S
C1249  H1388   1.116   .     S
C1249  C1250   1.518   .     S
C1250  H1389   1.111   .     S
C1250  H1392   1.111   .     S
C1250  H1390   1.109   .     S
C1251  C1252   1.521   .     S
C1251  H1394   1.114   .     S
C1251  O1593   1.412   .     S
C1251  H1393   1.114   .     S
C1252  H1395   1.111   .     S
C1252  H1396   1.110   .     S
C1252  H1397   1.111   .     S
C1253  H1399   1.110   .     S
C1253  H1398   1.118   .     S
C1253  C1254   1.521   .     S
C1253  O1595   1.416   .     S
C1254  H1401   1.109   .     S
C1254  H1403   1.110   .     S
C1254  H1400   1.110   .     S
C1255  O1596   1.417   .     S
C1255  C1256   1.518   .     S
C1255  H1404   1.115   .     S
C1255  H1405   1.110   .     S
C1256  H1408   1.111   .     S
C1256  H1407   1.111   .     S
C1256  H1406   1.110   .     S
C1257  C1259   1.518   .     S
C1257  H1409   1.110   .     S
C1257  H1410   1.116   .     S
C1257  O1597   1.417   .     S
C1258  C1280   1.420   .     S
C1258  O1526   1.277   .     S
C1259  H1411   1.111   .     S
C1259  H1414   1.111   .     S
C1259  H1412   1.109   .     S
C1260  H1415   1.114   .     S
C1260  O1598   1.412   .     S
C1260  H1416   1.114   .     S
C1260  C1261   1.521   .     S
C1261  H1418   1.110   .     S
C1261  H1417   1.111   .     S
C1261  H1419   1.111   .     S
C1262  H1421   1.110   .     S
C1262  H1420   1.118   .     S
C1262  O1599   1.416   .     S
C1262  C1263   1.521   .     S
C1263  H1422   1.110   .     S
C1263  H1425   1.110   .     S
C1263  H1423   1.109   .     S
C1264  C1269   1.420   .     S
C1264  O1523   1.277   .     S
C1265  O1529   1.277   .     A
C1266  O1563   1.275   .     A
C1266  C1326   1.452   .     S
C1266  O1530   1.274   .     A
C1267  O1564   1.277   .     A
C1267  C1327   1.452   .     S
C1267  O1531   1.273   .     A
C1268  O1560   1.278   .     A
C1268  C1319   1.458   .     S
C1268  O1532   1.274   .     A
C1269  C1213   1.197   1_556 S
C1270  O1562   1.276   .     A
C1270  C1320   1.454   .     S
C1270  O1533   1.273   .     A
C1271  C1321   1.452   .     S
C1271  O1558   1.275   .     A
C1271  O1534   1.274   .     A
C1272  O1559   1.277   .     A
C1272  O1535   1.273   .     A
C1272  C1322   1.452   .     S
C1273  O1536   1.274   .     A
C1273  O1556   1.278   .     A
C1273  C1323   1.458   .     S
C1274  O1557   1.276   .     A
C1274  O1537   1.273   .     A
C1274  C1325   1.454   .     S
C1275  O1554   1.275   .     A
C1275  C1334   1.458   .     S
C1275  O1538   1.277   .     A
C1276  C1336   1.455   .     S
C1276  O1540   1.275   .     A
C1276  O1555   1.275   .     A
C1277  O1541   1.276   .     A
C1277  C1328   1.452   .     S
C1277  O1552   1.274   .     A
C1278  O1542   1.277   .     A
C1278  C1329   1.452   .     S
C1278  O1553   1.273   .     A
C1279  C1330   1.458   .     S
C1279  O1549   1.275   .     A
C1279  O1543   1.277   .     A
C1280  C1291   1.197   1_554 S
C1281  C1331   1.455   .     S
C1281  O1551   1.275   .     A
C1281  O1544   1.275   .     A
C1282  O1545   1.276   .     A
C1282  C1332   1.452   .     S
C1282  O1547   1.274   .     A
C1283  C1333   1.452   .     S
C1283  O1548   1.273   .     A
C1283  O1546   1.277   .     A
C1284  C1296   1.398   .     A
C1284  C1331   1.407   .     A
C1284  O1565   1.385   .     S
C1285  C1295   1.400   .     A
C1285  C1330   1.405   .     A
C1285  O1566   1.384   .     S
C1286  O1567   1.384   .     S
C1286  C1294   1.398   .     A
C1286  C1329   1.406   .     A
C1287  O1568   1.386   .     S
C1287  C1328   1.410   .     A
C1287  C1293   1.396   .     A
C1288  C1336   1.407   .     A
C1288  O1569   1.385   .     S
C1288  C1300   1.398   .     A
C1289  C1334   1.405   .     A
C1289  C1299   1.400   .     A
C1289  O1570   1.384   .     S
C1290  O1571   1.384   .     S
C1290  C1333   1.406   .     A
C1290  C1298   1.398   .     A
C1291  C1280   1.197   1_556 S
C1292  O1573   1.386   .     S
C1292  C1297   1.396   .     A
C1292  C1332   1.410   .     A
C1293  C1322   1.411   .     A
C1293  O1574   1.387   .     S
C1294  C1321   1.408   .     A
C1294  O1575   1.385   .     S
C1295  O1576   1.384   .     S
C1295  C1320   1.405   .     A
C1296  C1319   1.414   .     A
C1296  O1577   1.385   .     S
C1297  O1578   1.387   .     S
C1297  C1327   1.411   .     A
C1298  O1579   1.385   .     S
C1298  C1326   1.408   .     A
C1299  C1325   1.405   .     A
C1299  O1580   1.384   .     S
C1300  C1323   1.414   .     A
C1300  O1581   1.385   .     S
C1301  C1320   1.411   .     A
C1301  O1582   1.385   .     S
C1301  C1314   1.401   .     A
C1302  C1313   1.197   .     T
C1303  C1319   1.410   .     A
C1303  C1312   1.398   .     A
C1303  O1584   1.386   .     S
C1304  O1585   1.385   .     S
C1304  C1311   1.394   .     A
C1304  C1322   1.411   .     A
C1305  O1586   1.385   .     S
C1305  C1321   1.409   .     A
C1305  C1310   1.400   .     A
C1306  O1587   1.385   .     S
C1306  C1325   1.411   .     A
C1306  C1318   1.401   .     A
C1307  O1588   1.386   .     S
C1307  C1317   1.398   .     A
C1307  C1323   1.410   .     A
C1308  C1316   1.394   .     A
C1308  C1327   1.411   .     A
C1308  O1589   1.385   .     S
C1309  C1315   1.400   .     A
C1309  O1590   1.385   .     S
C1309  C1326   1.409   .     A
C1310  O1591   1.387   .     S
C1310  C1329   1.409   .     A
C1311  C1328   1.409   .     A
C1311  O1592   1.386   .     S
C1312  O1593   1.385   .     S
C1312  C1331   1.405   .     A
C1314  O1595   1.385   .     S
C1314  C1330   1.408   .     A
C1315  C1333   1.409   .     A
C1315  O1596   1.387   .     S
C1316  C1332   1.409   .     A
C1316  O1597   1.386   .     S
C1317  O1598   1.385   .     S
C1317  C1336   1.405   .     A
C1318  O1599   1.385   .     S
C1318  C1334   1.408   .     A
C1324  C1335   1.197   .     T
C1335  C1346   1.421   .     S
C1337  O1565   1.416   .     S
C1337  H1357   1.110   .     S
C1337  C1338   1.521   .     S
C1337  H1429   1.118   .     S
C1338  H1451   1.110   .     S
C1338  H1462   1.110   .     S
C1338  H1440   1.110   .     S
C1339  O1566   1.412   .     S
C1339  H1473   1.113   .     S
C1339  H1484   1.114   .     S
C1339  C1340   1.519   .     S
C1340  H1506   1.110   .     S
C1340  H1358   1.109   .     S
C1340  H1495   1.110   .     S
C1341  O1567   1.414   .     S
C1341  C1342   1.520   .     S
C1341  H1380   1.118   .     S
C1341  H1369   1.110   .     S
C1342  H1402   1.109   .     S
C1342  H1413   1.109   .     S
C1342  H1391   1.111   .     S
C1343  C1344   1.520   .     S
C1343  H1426   1.111   .     S
C1343  O1568   1.414   .     S
C1343  H1424   1.112   .     S
C1344  H1428   1.110   .     S
C1344  H1430   1.110   .     S
C1344  H1427   1.111   .     S
C1345  H1431   1.110   .     S
C1345  C1347   1.521   .     S
C1345  H1432   1.118   .     S
C1345  O1569   1.416   .     S
C1346  O1561   1.277   .     A
C1346  O1600   1.277   .     A
C1347  H1435   1.110   .     S
C1347  H1433   1.110   .     S
C1347  H1434   1.110   .     S
C1348  O1570   1.412   .     S
C1348  H1436   1.113   .     S
C1348  C1349   1.519   .     S
C1348  H1437   1.114   .     S
C1349  H1439   1.110   .     S
C1349  H1441   1.109   .     S
C1349  H1438   1.110   .     S
C1350  H1442   1.110   .     S
C1350  C1351   1.520   .     S
C1350  H1443   1.118   .     S
C1350  O1571   1.414   .     S
C1351  H1445   1.109   .     S
C1351  H1444   1.111   .     S
C1351  H1446   1.109   .     S
C1352  O1573   1.414   .     S
C1352  C1353   1.520   .     S
C1352  H1447   1.112   .     S
C1352  H1448   1.111   .     S
C1353  H1450   1.110   .     S
C1353  H1452   1.110   .     S
C1353  H1449   1.111   .     S
C1354  H1454   1.110   .     S
C1354  C1355   1.519   .     S
C1354  O1574   1.417   .     S
C1354  H1453   1.115   .     S
C1355  H1455   1.111   .     S
C1355  H1457   1.111   .     S
C1355  H1456   1.110   .     S
C1356  H1459   1.116   .     S
C1356  H1458   1.111   .     S
C1356  O1575   1.416   .     S
O1517  Zn1604  1.936   .     S
O1517  Zn1601  1.936   .     S
O1517  Zn1608  1.936   .     S
O1518  Zn1607  1.921   .     S
O1519  Zn1602  1.921   .     S
O1520  Zn1616  1.921   .     S
O1521  Zn1611  1.921   .     S
O1522  C450    1.277   1_565 A
O1522  Zn1610  1.921   .     S
O1523  Zn1613  1.921   .     S
O1524  Zn1612  1.921   .     S
O1524  C861    1.277   1_655 S
O1525  Zn1615  1.921   .     S
O1525  C439    1.277   1_565 S
O1526  Zn1614  1.921   .     S
O1527  C860    1.277   1_655 A
O1527  Zn1609  1.921   .     S
O1528  Zn1603  1.936   .     S
O1528  Zn1607  1.936   .     S
O1528  Zn1613  1.936   .     S
O1529  Zn1601  1.921   .     S
O1530  Zn1608  1.932   .     S
O1531  Zn1203  1.932   1_655 S
O1532  Zn794   1.936   1_565 S
O1533  Zn1616  1.936   .     S
O1534  Zn1200  1.932   1_655 S
O1535  Zn1603  1.932   .     S
O1536  Zn1606  1.936   .     S
O1537  Zn797   1.936   1_565 S
O1538  Zn1607  1.936   .     S
O1539  Zn1606  1.936   .     S
O1539  Zn1614  1.936   .     S
O1539  Zn1602  1.936   .     S
O1540  Zn1204  1.936   1_655 S
O1541  Zn1605  1.932   .     S
O1542  Zn798   1.932   1_565 S
O1543  Zn1199  1.936   1_655 S
O1544  Zn1604  1.936   .     S
O1545  Zn808   1.932   1_565 S
O1546  Zn1602  1.932   .     S
O1547  Zn1615  1.932   .     S
O1548  Zn1614  1.932   .     S
O1549  Zn1609  1.936   .     S
O1550  Zn1605  1.936   .     S
O1550  Zn1611  1.936   .     S
O1550  Zn1616  1.936   .     S
O1551  Zn1601  1.936   .     S
O1552  Zn1611  1.932   .     S
O1553  Zn1610  1.932   .     S
O1554  Zn1613  1.936   .     S
O1555  Zn1612  1.936   .     S
O1556  Zn1614  1.936   .     S
O1557  Zn1615  1.936   .     S
O1558  Zn1612  1.932   .     S
O1559  Zn1613  1.932   .     S
O1560  Zn1610  1.936   .     S
O1561  Zn1604  1.921   .     S
O1562  Zn1611  1.936   .     S
O1563  Zn1601  1.932   .     S
O1564  Zn1609  1.932   .     S
O1572  Zn1603  1.921   .     S
O1583  Zn1606  1.921   .     S
O1594  Zn1605  1.921   .     S
O1600  Zn1608  1.921   .     S
Zn1609 O1124   1.936   1_655 S
Zn1610 O731    1.936   1_565 S
Zn1612 O1113   1.936   1_655 S
Zn1615 O742    1.936   1_565 S
