data_str_m3_o1_o17_pcu_sym.110
_audit_creation_date              2020-01-03
_audit_creation_method            'Materials Studio'
_symmetry_space_group_name_H-M    'P1'
_symmetry_Int_Tables_number       1
_symmetry_cell_setting            triclinic
loop_
_symmetry_equiv_pos_as_xyz
  x,y,z
_cell_length_a                    32.1503
_cell_length_b                    29.4918
_cell_length_c                    29.9792
_cell_angle_alpha                 89.9820
_cell_angle_beta                  90.0929
_cell_angle_gamma                 90.0015
loop_
_atom_site_label
_atom_site_type_symbol
_atom_site_fract_x
_atom_site_fract_y
_atom_site_fract_z
_atom_site_U_iso_or_equiv
_atom_site_adp_type
_atom_site_occupancy
C1     C     0.08661   0.16666   0.24996   0.00000  Uiso   1.00
C2     C     0.24672   0.16667   0.25003   0.00000  Uiso   1.00
C3     C     0.14106   0.08808   0.02249   0.00000  Uiso   1.00
C4     C     0.20064   0.24207   0.47750   0.00000  Uiso   1.00
C5     C     0.02132   0.12626   0.25872   0.00000  Uiso   1.00
C6     C     0.31202   0.20707   0.24124   0.00000  Uiso   1.00
C7     C     0.31204   0.12627   0.25877   0.00000  Uiso   1.00
C8     C     0.02129   0.20706   0.24119   0.00000  Uiso   1.00
C9     C     0.29086   0.16667   0.25002   0.00000  Uiso   1.00
C10    C     0.04247   0.16666   0.24995   0.00000  Uiso   1.00
C11    C     0.19088   0.02399   0.27941   0.00000  Uiso   1.00
C12    C     0.14244   0.30935   0.22060   0.00000  Uiso   1.00
C13    C     0.14244   0.02401   0.22059   0.00000  Uiso   1.00
C14    C     0.19088   0.30933   0.27942   0.00000  Uiso   1.00
C15    C     0.16669   0.16665   0.16332   0.00000  Uiso   1.00
C16    C     0.16684   0.16665   0.33668   0.00000  Uiso   1.00
C17    C     0.18307   0.20437   0.40721   0.00000  Uiso   1.00
C18    C     0.15387   0.12789   0.09271   0.00000  Uiso   1.00
C19    C     0.16794   0.16648   0.38454   0.00000  Uiso   1.00
C20    C     0.16751   0.16638   0.11546   0.00000  Uiso   1.00
C21    C     0.15432   0.12814   0.40735   0.00000  Uiso   1.00
C22    C     0.18255   0.20415   0.09274   0.00000  Uiso   1.00
C23    C     0.15498   0.12759   0.45340   0.00000  Uiso   1.00
C24    C     0.18392   0.20386   0.04665   0.00000  Uiso   1.00
C25    C     0.17016   0.16569   0.47677   0.00000  Uiso   1.00
C26    C     0.16986   0.16526   0.02325   0.00000  Uiso   1.00
C27    C     0.18508   0.20433   0.45359   0.00000  Uiso   1.00
C28    C     0.15510   0.12652   0.04638   0.00000  Uiso   1.00
C29    C     0.14057   0.08941   0.47614   0.00000  Uiso   1.00
C30    C     0.19934   0.24158   0.02389   0.00000  Uiso   1.00
H31    H     0.19302   0.23362   0.38827   0.00000  Uiso   1.00
H32    H     0.14144   0.09971   0.11155   0.00000  Uiso   1.00
H33    H     0.14256   0.09896   0.38923   0.00000  Uiso   1.00
H34    H     0.19353   0.23361   0.11096   0.00000  Uiso   1.00
H35    H     0.12918   0.06023   0.45782   0.00000  Uiso   1.00
H36    H     0.21084   0.27074   0.04220   0.00000  Uiso   1.00
H37    H     0.03756   0.09487   0.26581   0.00000  Uiso   1.00
H38    H     0.29577   0.23846   0.23415   0.00000  Uiso   1.00
H39    H     0.29582   0.09489   0.26590   0.00000  Uiso   1.00
H40    H     0.03751   0.23844   0.23406   0.00000  Uiso   1.00
H41    H     0.21024   0.04219   0.30290   0.00000  Uiso   1.00
H42    H     0.12306   0.29115   0.19712   0.00000  Uiso   1.00
H43    H     0.12308   0.04222   0.19710   0.00000  Uiso   1.00
H44    H     0.21023   0.29111   0.30292   0.00000  Uiso   1.00
N45    N     0.16667   0.28573   0.25000   0.00000  Uiso   1.00
N46    N     0.16667   0.04760   0.25000   0.00000  Uiso   1.00
O47    O     0.10559   0.20487   0.25000   0.00000  Uiso   1.00
O48    O     0.22774   0.12846   0.25000   0.00000  Uiso   1.00
O49    O     0.22774   0.20487   0.25000   0.00000  Uiso   1.00
O50    O     0.10559   0.12846   0.24999   0.00000  Uiso   1.00
O51    O     0.16666   0.20489   0.18392   0.00000  Uiso   1.00
O52    O     0.16667   0.12844   0.31607   0.00000  Uiso   1.00
O53    O     0.16667   0.20489   0.31607   0.00000  Uiso   1.00
O54    O     0.16666   0.12844   0.18392   0.00000  Uiso   1.00
Zn55   Zn    0.16667   0.21771   0.25000   0.00000  Uiso   1.00
Zn56   Zn    0.16667   0.11563   0.25000   0.00000  Uiso   1.00
N57    N     0.12821   0.04738   0.04398   0.00000  Uiso   1.00
H58    H     0.14581   0.03769   0.07112   0.00000  Uiso   1.00
C59    C     0.08387   0.04370   0.05097   0.00000  Uiso   1.00
H60    H     0.07655   0.00999   0.06548   0.00000  Uiso   1.00
H61    H     0.06700   0.04698   0.01876   0.00000  Uiso   1.00
H62    H     0.07312   0.07046   0.07435   0.00000  Uiso   1.00
N63    N     0.21862   0.28038   0.45600   0.00000  Uiso   1.00
H64    H     0.23674   0.27342   0.42853   0.00000  Uiso   1.00
C65    C     0.19050   0.31808   0.44980   0.00000  Uiso   1.00
H66    H     0.20767   0.01398   0.43547   0.00000  Uiso   1.00
H67    H     0.17719   0.32862   0.48234   0.00000  Uiso   1.00
H68    H     0.16495   0.30852   0.42663   0.00000  Uiso   1.00
C69    C     0.41995   0.16666   0.24996   0.00000  Uiso   1.00
C70    C     0.58005   0.16667   0.25003   0.00000  Uiso   1.00
C71    C     0.47439   0.08808   0.02249   0.00000  Uiso   1.00
C72    C     0.53397   0.24207   0.47750   0.00000  Uiso   1.00
C73    C     0.35465   0.12626   0.25872   0.00000  Uiso   1.00
C74    C     0.64535   0.20707   0.24124   0.00000  Uiso   1.00
C75    C     0.64538   0.12627   0.25877   0.00000  Uiso   1.00
C76    C     0.35462   0.20706   0.24119   0.00000  Uiso   1.00
C77    C     0.62419   0.16667   0.25002   0.00000  Uiso   1.00
C78    C     0.37581   0.16666   0.24995   0.00000  Uiso   1.00
C79    C     0.52422   0.02399   0.27941   0.00000  Uiso   1.00
C80    C     0.47577   0.30935   0.22060   0.00000  Uiso   1.00
C81    C     0.47577   0.02401   0.22059   0.00000  Uiso   1.00
C82    C     0.52421   0.30933   0.27942   0.00000  Uiso   1.00
C83    C     0.50003   0.16665   0.16332   0.00000  Uiso   1.00
C84    C     0.50018   0.16665   0.33668   0.00000  Uiso   1.00
C85    C     0.51641   0.20437   0.40721   0.00000  Uiso   1.00
C86    C     0.48720   0.12789   0.09271   0.00000  Uiso   1.00
C87    C     0.50127   0.16648   0.38454   0.00000  Uiso   1.00
C88    C     0.50085   0.16638   0.11546   0.00000  Uiso   1.00
C89    C     0.48766   0.12814   0.40735   0.00000  Uiso   1.00
C90    C     0.51589   0.20415   0.09274   0.00000  Uiso   1.00
C91    C     0.48831   0.12759   0.45340   0.00000  Uiso   1.00
C92    C     0.51725   0.20386   0.04665   0.00000  Uiso   1.00
C93    C     0.50349   0.16569   0.47677   0.00000  Uiso   1.00
C94    C     0.50320   0.16526   0.02325   0.00000  Uiso   1.00
C95    C     0.51841   0.20433   0.45359   0.00000  Uiso   1.00
C96    C     0.48843   0.12652   0.04638   0.00000  Uiso   1.00
C97    C     0.47391   0.08941   0.47614   0.00000  Uiso   1.00
C98    C     0.53267   0.24158   0.02389   0.00000  Uiso   1.00
H99    H     0.52635   0.23362   0.38827   0.00000  Uiso   1.00
H100   H     0.47478   0.09971   0.11155   0.00000  Uiso   1.00
H101   H     0.47590   0.09896   0.38923   0.00000  Uiso   1.00
H102   H     0.52687   0.23361   0.11096   0.00000  Uiso   1.00
H103   H     0.46252   0.06023   0.45782   0.00000  Uiso   1.00
H104   H     0.54417   0.27074   0.04220   0.00000  Uiso   1.00
H105   H     0.37089   0.09487   0.26581   0.00000  Uiso   1.00
H106   H     0.62911   0.23846   0.23415   0.00000  Uiso   1.00
H107   H     0.62916   0.09489   0.26590   0.00000  Uiso   1.00
H108   H     0.37084   0.23844   0.23406   0.00000  Uiso   1.00
H109   H     0.54358   0.04219   0.30290   0.00000  Uiso   1.00
H110   H     0.45639   0.29115   0.19712   0.00000  Uiso   1.00
H111   H     0.45642   0.04222   0.19710   0.00000  Uiso   1.00
H112   H     0.54356   0.29111   0.30292   0.00000  Uiso   1.00
N113   N     0.50000   0.28573   0.25000   0.00000  Uiso   1.00
N114   N     0.50000   0.04760   0.25000   0.00000  Uiso   1.00
O115   O     0.43892   0.20487   0.25000   0.00000  Uiso   1.00
O116   O     0.56108   0.12846   0.25000   0.00000  Uiso   1.00
O117   O     0.56108   0.20487   0.25000   0.00000  Uiso   1.00
O118   O     0.43892   0.12846   0.24999   0.00000  Uiso   1.00
O119   O     0.49999   0.20489   0.18392   0.00000  Uiso   1.00
O120   O     0.50001   0.12844   0.31607   0.00000  Uiso   1.00
O121   O     0.50001   0.20489   0.31607   0.00000  Uiso   1.00
O122   O     0.49999   0.12844   0.18392   0.00000  Uiso   1.00
Zn123  Zn    0.50000   0.21771   0.25000   0.00000  Uiso   1.00
Zn124  Zn    0.50000   0.11563   0.25000   0.00000  Uiso   1.00
N125   N     0.46154   0.04738   0.04398   0.00000  Uiso   1.00
H126   H     0.47914   0.03769   0.07112   0.00000  Uiso   1.00
C127   C     0.41721   0.04370   0.05097   0.00000  Uiso   1.00
H128   H     0.40988   0.00999   0.06548   0.00000  Uiso   1.00
H129   H     0.40033   0.04698   0.01876   0.00000  Uiso   1.00
H130   H     0.40645   0.07046   0.07435   0.00000  Uiso   1.00
N131   N     0.55195   0.28038   0.45600   0.00000  Uiso   1.00
H132   H     0.57008   0.27342   0.42853   0.00000  Uiso   1.00
C133   C     0.52383   0.31808   0.44980   0.00000  Uiso   1.00
H134   H     0.54101   0.01398   0.43547   0.00000  Uiso   1.00
H135   H     0.51052   0.32862   0.48234   0.00000  Uiso   1.00
H136   H     0.49828   0.30852   0.42663   0.00000  Uiso   1.00
C137   C     0.75328   0.16666   0.24996   0.00000  Uiso   1.00
C138   C     0.91338   0.16667   0.25003   0.00000  Uiso   1.00
C139   C     0.80773   0.08808   0.02249   0.00000  Uiso   1.00
C140   C     0.86731   0.24207   0.47750   0.00000  Uiso   1.00
C141   C     0.68798   0.12626   0.25872   0.00000  Uiso   1.00
C142   C     0.97868   0.20707   0.24124   0.00000  Uiso   1.00
C143   C     0.97871   0.12627   0.25877   0.00000  Uiso   1.00
C144   C     0.68796   0.20706   0.24119   0.00000  Uiso   1.00
C145   C     0.95753   0.16667   0.25002   0.00000  Uiso   1.00
C146   C     0.70914   0.16666   0.24995   0.00000  Uiso   1.00
C147   C     0.85755   0.02399   0.27941   0.00000  Uiso   1.00
C148   C     0.80910   0.30935   0.22060   0.00000  Uiso   1.00
C149   C     0.80911   0.02401   0.22059   0.00000  Uiso   1.00
C150   C     0.85755   0.30933   0.27942   0.00000  Uiso   1.00
C151   C     0.83336   0.16665   0.16332   0.00000  Uiso   1.00
C152   C     0.83351   0.16665   0.33668   0.00000  Uiso   1.00
C153   C     0.84974   0.20437   0.40721   0.00000  Uiso   1.00
C154   C     0.82053   0.12789   0.09271   0.00000  Uiso   1.00
C155   C     0.83461   0.16648   0.38454   0.00000  Uiso   1.00
C156   C     0.83418   0.16638   0.11546   0.00000  Uiso   1.00
C157   C     0.82099   0.12814   0.40735   0.00000  Uiso   1.00
C158   C     0.84922   0.20415   0.09274   0.00000  Uiso   1.00
C159   C     0.82165   0.12759   0.45340   0.00000  Uiso   1.00
C160   C     0.85058   0.20386   0.04665   0.00000  Uiso   1.00
C161   C     0.83682   0.16569   0.47677   0.00000  Uiso   1.00
C162   C     0.83653   0.16526   0.02325   0.00000  Uiso   1.00
C163   C     0.85175   0.20433   0.45359   0.00000  Uiso   1.00
C164   C     0.82176   0.12652   0.04638   0.00000  Uiso   1.00
C165   C     0.80724   0.08941   0.47614   0.00000  Uiso   1.00
C166   C     0.86601   0.24158   0.02389   0.00000  Uiso   1.00
H167   H     0.85969   0.23362   0.38827   0.00000  Uiso   1.00
H168   H     0.80811   0.09971   0.11155   0.00000  Uiso   1.00
H169   H     0.80923   0.09896   0.38923   0.00000  Uiso   1.00
H170   H     0.86020   0.23361   0.11096   0.00000  Uiso   1.00
H171   H     0.79585   0.06023   0.45782   0.00000  Uiso   1.00
H172   H     0.87751   0.27074   0.04220   0.00000  Uiso   1.00
H173   H     0.70422   0.09487   0.26581   0.00000  Uiso   1.00
H174   H     0.96244   0.23846   0.23415   0.00000  Uiso   1.00
H175   H     0.96249   0.09489   0.26590   0.00000  Uiso   1.00
H176   H     0.70418   0.23844   0.23406   0.00000  Uiso   1.00
H177   H     0.87691   0.04219   0.30290   0.00000  Uiso   1.00
H178   H     0.78973   0.29115   0.19712   0.00000  Uiso   1.00
H179   H     0.78975   0.04222   0.19710   0.00000  Uiso   1.00
H180   H     0.87689   0.29111   0.30292   0.00000  Uiso   1.00
N181   N     0.83333   0.28573   0.25000   0.00000  Uiso   1.00
N182   N     0.83333   0.04760   0.25000   0.00000  Uiso   1.00
O183   O     0.77226   0.20487   0.25000   0.00000  Uiso   1.00
O184   O     0.89441   0.12846   0.25000   0.00000  Uiso   1.00
O185   O     0.89441   0.20487   0.25000   0.00000  Uiso   1.00
O186   O     0.77226   0.12846   0.24999   0.00000  Uiso   1.00
O187   O     0.83333   0.20489   0.18392   0.00000  Uiso   1.00
O188   O     0.83334   0.12844   0.31607   0.00000  Uiso   1.00
O189   O     0.83334   0.20489   0.31607   0.00000  Uiso   1.00
O190   O     0.83333   0.12844   0.18392   0.00000  Uiso   1.00
Zn191  Zn    0.83333   0.21771   0.25000   0.00000  Uiso   1.00
Zn192  Zn    0.83333   0.11563   0.25000   0.00000  Uiso   1.00
N193   N     0.79488   0.04738   0.04398   0.00000  Uiso   1.00
H194   H     0.81248   0.03769   0.07112   0.00000  Uiso   1.00
C195   C     0.75054   0.04370   0.05097   0.00000  Uiso   1.00
H196   H     0.74322   0.00999   0.06548   0.00000  Uiso   1.00
H197   H     0.73366   0.04698   0.01876   0.00000  Uiso   1.00
H198   H     0.73978   0.07046   0.07435   0.00000  Uiso   1.00
N199   N     0.88529   0.28038   0.45600   0.00000  Uiso   1.00
H200   H     0.90341   0.27342   0.42853   0.00000  Uiso   1.00
C201   C     0.85717   0.31808   0.44980   0.00000  Uiso   1.00
H202   H     0.87434   0.01398   0.43547   0.00000  Uiso   1.00
H203   H     0.84386   0.32862   0.48234   0.00000  Uiso   1.00
H204   H     0.83162   0.30852   0.42663   0.00000  Uiso   1.00
C205   C     0.08661   0.50000   0.24996   0.00000  Uiso   1.00
C206   C     0.24672   0.50000   0.25003   0.00000  Uiso   1.00
C207   C     0.14106   0.42141   0.02249   0.00000  Uiso   1.00
C208   C     0.20064   0.57540   0.47750   0.00000  Uiso   1.00
C209   C     0.02132   0.45959   0.25872   0.00000  Uiso   1.00
C210   C     0.31202   0.54040   0.24124   0.00000  Uiso   1.00
C211   C     0.31204   0.45960   0.25877   0.00000  Uiso   1.00
C212   C     0.02129   0.54039   0.24119   0.00000  Uiso   1.00
C213   C     0.29086   0.50000   0.25002   0.00000  Uiso   1.00
C214   C     0.04247   0.49999   0.24995   0.00000  Uiso   1.00
C215   C     0.19088   0.35732   0.27941   0.00000  Uiso   1.00
C216   C     0.14244   0.64268   0.22060   0.00000  Uiso   1.00
C217   C     0.14244   0.35734   0.22059   0.00000  Uiso   1.00
C218   C     0.19088   0.64266   0.27942   0.00000  Uiso   1.00
C219   C     0.16669   0.49998   0.16332   0.00000  Uiso   1.00
C220   C     0.16684   0.49998   0.33668   0.00000  Uiso   1.00
C221   C     0.18307   0.53770   0.40721   0.00000  Uiso   1.00
C222   C     0.15387   0.46123   0.09271   0.00000  Uiso   1.00
C223   C     0.16794   0.49981   0.38454   0.00000  Uiso   1.00
C224   C     0.16751   0.49972   0.11546   0.00000  Uiso   1.00
C225   C     0.15432   0.46147   0.40735   0.00000  Uiso   1.00
C226   C     0.18255   0.53749   0.09274   0.00000  Uiso   1.00
C227   C     0.15498   0.46092   0.45340   0.00000  Uiso   1.00
C228   C     0.18392   0.53719   0.04665   0.00000  Uiso   1.00
C229   C     0.17016   0.49902   0.47677   0.00000  Uiso   1.00
C230   C     0.16986   0.49860   0.02325   0.00000  Uiso   1.00
C231   C     0.18508   0.53766   0.45359   0.00000  Uiso   1.00
C232   C     0.15510   0.45985   0.04638   0.00000  Uiso   1.00
C233   C     0.14057   0.42275   0.47614   0.00000  Uiso   1.00
C234   C     0.19934   0.57492   0.02389   0.00000  Uiso   1.00
H235   H     0.19302   0.56696   0.38827   0.00000  Uiso   1.00
H236   H     0.14144   0.43304   0.11155   0.00000  Uiso   1.00
H237   H     0.14256   0.43230   0.38923   0.00000  Uiso   1.00
H238   H     0.19353   0.56695   0.11096   0.00000  Uiso   1.00
H239   H     0.12918   0.39357   0.45782   0.00000  Uiso   1.00
H240   H     0.21084   0.60407   0.04220   0.00000  Uiso   1.00
H241   H     0.03756   0.42820   0.26581   0.00000  Uiso   1.00
H242   H     0.29577   0.57179   0.23415   0.00000  Uiso   1.00
H243   H     0.29582   0.42822   0.26590   0.00000  Uiso   1.00
H244   H     0.03751   0.57178   0.23406   0.00000  Uiso   1.00
H245   H     0.21024   0.37552   0.30290   0.00000  Uiso   1.00
H246   H     0.12306   0.62448   0.19712   0.00000  Uiso   1.00
H247   H     0.12308   0.37556   0.19710   0.00000  Uiso   1.00
H248   H     0.21023   0.62445   0.30292   0.00000  Uiso   1.00
N249   N     0.16667   0.61907   0.25000   0.00000  Uiso   1.00
N250   N     0.16667   0.38093   0.25000   0.00000  Uiso   1.00
O251   O     0.10559   0.53821   0.25000   0.00000  Uiso   1.00
O252   O     0.22774   0.46179   0.25000   0.00000  Uiso   1.00
O253   O     0.22774   0.53821   0.25000   0.00000  Uiso   1.00
O254   O     0.10559   0.46179   0.24999   0.00000  Uiso   1.00
O255   O     0.16666   0.53823   0.18392   0.00000  Uiso   1.00
O256   O     0.16667   0.46177   0.31607   0.00000  Uiso   1.00
O257   O     0.16667   0.53823   0.31607   0.00000  Uiso   1.00
O258   O     0.16666   0.46177   0.18392   0.00000  Uiso   1.00
Zn259  Zn    0.16667   0.55104   0.25000   0.00000  Uiso   1.00
Zn260  Zn    0.16667   0.44896   0.25000   0.00000  Uiso   1.00
N261   N     0.12821   0.38071   0.04398   0.00000  Uiso   1.00
H262   H     0.14581   0.37102   0.07112   0.00000  Uiso   1.00
C263   C     0.08387   0.37703   0.05097   0.00000  Uiso   1.00
H264   H     0.07655   0.34332   0.06548   0.00000  Uiso   1.00
H265   H     0.06700   0.38032   0.01876   0.00000  Uiso   1.00
H266   H     0.07312   0.40380   0.07435   0.00000  Uiso   1.00
N267   N     0.21862   0.61372   0.45600   0.00000  Uiso   1.00
H268   H     0.23674   0.60675   0.42853   0.00000  Uiso   1.00
C269   C     0.19050   0.65141   0.44980   0.00000  Uiso   1.00
H270   H     0.20767   0.34731   0.43547   0.00000  Uiso   1.00
H271   H     0.17719   0.66195   0.48234   0.00000  Uiso   1.00
H272   H     0.16495   0.64185   0.42663   0.00000  Uiso   1.00
C273   C     0.41995   0.50000   0.24996   0.00000  Uiso   1.00
C274   C     0.58005   0.50000   0.25003   0.00000  Uiso   1.00
C275   C     0.47439   0.42141   0.02249   0.00000  Uiso   1.00
C276   C     0.53397   0.57540   0.47750   0.00000  Uiso   1.00
C277   C     0.35465   0.45959   0.25872   0.00000  Uiso   1.00
C278   C     0.64535   0.54040   0.24124   0.00000  Uiso   1.00
C279   C     0.64538   0.45960   0.25877   0.00000  Uiso   1.00
C280   C     0.35462   0.54039   0.24119   0.00000  Uiso   1.00
C281   C     0.62419   0.50000   0.25002   0.00000  Uiso   1.00
C282   C     0.37581   0.49999   0.24995   0.00000  Uiso   1.00
C283   C     0.52422   0.35732   0.27941   0.00000  Uiso   1.00
C284   C     0.47577   0.64268   0.22060   0.00000  Uiso   1.00
C285   C     0.47577   0.35734   0.22059   0.00000  Uiso   1.00
C286   C     0.52421   0.64266   0.27942   0.00000  Uiso   1.00
C287   C     0.50003   0.49998   0.16332   0.00000  Uiso   1.00
C288   C     0.50018   0.49998   0.33668   0.00000  Uiso   1.00
C289   C     0.51641   0.53770   0.40721   0.00000  Uiso   1.00
C290   C     0.48720   0.46123   0.09271   0.00000  Uiso   1.00
C291   C     0.50127   0.49981   0.38454   0.00000  Uiso   1.00
C292   C     0.50085   0.49972   0.11546   0.00000  Uiso   1.00
C293   C     0.48766   0.46147   0.40735   0.00000  Uiso   1.00
C294   C     0.51589   0.53749   0.09274   0.00000  Uiso   1.00
C295   C     0.48831   0.46092   0.45340   0.00000  Uiso   1.00
C296   C     0.51725   0.53719   0.04665   0.00000  Uiso   1.00
C297   C     0.50349   0.49902   0.47677   0.00000  Uiso   1.00
C298   C     0.50320   0.49860   0.02325   0.00000  Uiso   1.00
C299   C     0.51841   0.53766   0.45359   0.00000  Uiso   1.00
C300   C     0.48843   0.45985   0.04638   0.00000  Uiso   1.00
C301   C     0.47391   0.42275   0.47614   0.00000  Uiso   1.00
C302   C     0.53267   0.57492   0.02389   0.00000  Uiso   1.00
H303   H     0.52635   0.56696   0.38827   0.00000  Uiso   1.00
H304   H     0.47478   0.43304   0.11155   0.00000  Uiso   1.00
H305   H     0.47590   0.43230   0.38923   0.00000  Uiso   1.00
H306   H     0.52687   0.56695   0.11096   0.00000  Uiso   1.00
H307   H     0.46252   0.39357   0.45782   0.00000  Uiso   1.00
H308   H     0.54417   0.60407   0.04220   0.00000  Uiso   1.00
H309   H     0.37089   0.42820   0.26581   0.00000  Uiso   1.00
H310   H     0.62911   0.57179   0.23415   0.00000  Uiso   1.00
H311   H     0.62916   0.42822   0.26590   0.00000  Uiso   1.00
H312   H     0.37084   0.57178   0.23406   0.00000  Uiso   1.00
H313   H     0.54358   0.37552   0.30290   0.00000  Uiso   1.00
H314   H     0.45639   0.62448   0.19712   0.00000  Uiso   1.00
H315   H     0.45642   0.37556   0.19710   0.00000  Uiso   1.00
H316   H     0.54356   0.62445   0.30292   0.00000  Uiso   1.00
N317   N     0.50000   0.61907   0.25000   0.00000  Uiso   1.00
N318   N     0.50000   0.38093   0.25000   0.00000  Uiso   1.00
O319   O     0.43892   0.53821   0.25000   0.00000  Uiso   1.00
O320   O     0.56108   0.46179   0.25000   0.00000  Uiso   1.00
O321   O     0.56108   0.53821   0.25000   0.00000  Uiso   1.00
O322   O     0.43892   0.46179   0.24999   0.00000  Uiso   1.00
O323   O     0.49999   0.53823   0.18392   0.00000  Uiso   1.00
O324   O     0.50001   0.46177   0.31607   0.00000  Uiso   1.00
O325   O     0.50001   0.53823   0.31607   0.00000  Uiso   1.00
O326   O     0.49999   0.46177   0.18392   0.00000  Uiso   1.00
Zn327  Zn    0.50000   0.55104   0.25000   0.00000  Uiso   1.00
Zn328  Zn    0.50000   0.44896   0.25000   0.00000  Uiso   1.00
N329   N     0.46154   0.38071   0.04398   0.00000  Uiso   1.00
H330   H     0.47914   0.37102   0.07112   0.00000  Uiso   1.00
C331   C     0.41721   0.37703   0.05097   0.00000  Uiso   1.00
H332   H     0.40988   0.34332   0.06548   0.00000  Uiso   1.00
H333   H     0.40033   0.38032   0.01876   0.00000  Uiso   1.00
H334   H     0.40645   0.40380   0.07435   0.00000  Uiso   1.00
N335   N     0.55195   0.61372   0.45600   0.00000  Uiso   1.00
H336   H     0.57008   0.60675   0.42853   0.00000  Uiso   1.00
C337   C     0.52383   0.65141   0.44980   0.00000  Uiso   1.00
H338   H     0.54101   0.34731   0.43547   0.00000  Uiso   1.00
H339   H     0.51052   0.66195   0.48234   0.00000  Uiso   1.00
H340   H     0.49828   0.64185   0.42663   0.00000  Uiso   1.00
C341   C     0.75328   0.50000   0.24996   0.00000  Uiso   1.00
C342   C     0.91338   0.50000   0.25003   0.00000  Uiso   1.00
C343   C     0.80773   0.42141   0.02249   0.00000  Uiso   1.00
C344   C     0.86731   0.57540   0.47750   0.00000  Uiso   1.00
C345   C     0.68798   0.45959   0.25872   0.00000  Uiso   1.00
C346   C     0.97868   0.54040   0.24124   0.00000  Uiso   1.00
C347   C     0.97871   0.45960   0.25877   0.00000  Uiso   1.00
C348   C     0.68796   0.54039   0.24119   0.00000  Uiso   1.00
C349   C     0.95753   0.50000   0.25002   0.00000  Uiso   1.00
C350   C     0.70914   0.49999   0.24995   0.00000  Uiso   1.00
C351   C     0.85755   0.35732   0.27941   0.00000  Uiso   1.00
C352   C     0.80910   0.64268   0.22060   0.00000  Uiso   1.00
C353   C     0.80911   0.35734   0.22059   0.00000  Uiso   1.00
C354   C     0.85755   0.64266   0.27942   0.00000  Uiso   1.00
C355   C     0.83336   0.49998   0.16332   0.00000  Uiso   1.00
C356   C     0.83351   0.49998   0.33668   0.00000  Uiso   1.00
C357   C     0.84974   0.53770   0.40721   0.00000  Uiso   1.00
C358   C     0.82053   0.46123   0.09271   0.00000  Uiso   1.00
C359   C     0.83461   0.49981   0.38454   0.00000  Uiso   1.00
C360   C     0.83418   0.49972   0.11546   0.00000  Uiso   1.00
C361   C     0.82099   0.46147   0.40735   0.00000  Uiso   1.00
C362   C     0.84922   0.53749   0.09274   0.00000  Uiso   1.00
C363   C     0.82165   0.46092   0.45340   0.00000  Uiso   1.00
C364   C     0.85058   0.53719   0.04665   0.00000  Uiso   1.00
C365   C     0.83682   0.49902   0.47677   0.00000  Uiso   1.00
C366   C     0.83653   0.49860   0.02325   0.00000  Uiso   1.00
C367   C     0.85175   0.53766   0.45359   0.00000  Uiso   1.00
C368   C     0.82176   0.45985   0.04638   0.00000  Uiso   1.00
C369   C     0.80724   0.42275   0.47614   0.00000  Uiso   1.00
C370   C     0.86601   0.57492   0.02389   0.00000  Uiso   1.00
H371   H     0.85969   0.56696   0.38827   0.00000  Uiso   1.00
H372   H     0.80811   0.43304   0.11155   0.00000  Uiso   1.00
H373   H     0.80923   0.43230   0.38923   0.00000  Uiso   1.00
H374   H     0.86020   0.56695   0.11096   0.00000  Uiso   1.00
H375   H     0.79585   0.39357   0.45782   0.00000  Uiso   1.00
H376   H     0.87751   0.60407   0.04220   0.00000  Uiso   1.00
H377   H     0.70422   0.42820   0.26581   0.00000  Uiso   1.00
H378   H     0.96244   0.57179   0.23415   0.00000  Uiso   1.00
H379   H     0.96249   0.42822   0.26590   0.00000  Uiso   1.00
H380   H     0.70418   0.57178   0.23406   0.00000  Uiso   1.00
H381   H     0.87691   0.37552   0.30290   0.00000  Uiso   1.00
H382   H     0.78973   0.62448   0.19712   0.00000  Uiso   1.00
H383   H     0.78975   0.37556   0.19710   0.00000  Uiso   1.00
H384   H     0.87689   0.62445   0.30292   0.00000  Uiso   1.00
N385   N     0.83333   0.61907   0.25000   0.00000  Uiso   1.00
N386   N     0.83333   0.38093   0.25000   0.00000  Uiso   1.00
O387   O     0.77226   0.53821   0.25000   0.00000  Uiso   1.00
O388   O     0.89441   0.46179   0.25000   0.00000  Uiso   1.00
O389   O     0.89441   0.53821   0.25000   0.00000  Uiso   1.00
O390   O     0.77226   0.46179   0.24999   0.00000  Uiso   1.00
O391   O     0.83333   0.53823   0.18392   0.00000  Uiso   1.00
O392   O     0.83334   0.46177   0.31607   0.00000  Uiso   1.00
O393   O     0.83334   0.53823   0.31607   0.00000  Uiso   1.00
O394   O     0.83333   0.46177   0.18392   0.00000  Uiso   1.00
Zn395  Zn    0.83333   0.55104   0.25000   0.00000  Uiso   1.00
Zn396  Zn    0.83333   0.44896   0.25000   0.00000  Uiso   1.00
N397   N     0.79488   0.38071   0.04398   0.00000  Uiso   1.00
H398   H     0.81248   0.37102   0.07112   0.00000  Uiso   1.00
C399   C     0.75054   0.37703   0.05097   0.00000  Uiso   1.00
H400   H     0.74322   0.34332   0.06548   0.00000  Uiso   1.00
H401   H     0.73366   0.38032   0.01876   0.00000  Uiso   1.00
H402   H     0.73978   0.40380   0.07435   0.00000  Uiso   1.00
N403   N     0.88529   0.61372   0.45600   0.00000  Uiso   1.00
H404   H     0.90341   0.60675   0.42853   0.00000  Uiso   1.00
C405   C     0.85717   0.65141   0.44980   0.00000  Uiso   1.00
H406   H     0.87434   0.34731   0.43547   0.00000  Uiso   1.00
H407   H     0.84386   0.66195   0.48234   0.00000  Uiso   1.00
H408   H     0.83162   0.64185   0.42663   0.00000  Uiso   1.00
C409   C     0.08661   0.83333   0.24996   0.00000  Uiso   1.00
C410   C     0.24672   0.83333   0.25003   0.00000  Uiso   1.00
C411   C     0.14106   0.75475   0.02249   0.00000  Uiso   1.00
C412   C     0.20064   0.90873   0.47750   0.00000  Uiso   1.00
C413   C     0.02132   0.79293   0.25872   0.00000  Uiso   1.00
C414   C     0.31202   0.87373   0.24124   0.00000  Uiso   1.00
C415   C     0.31204   0.79293   0.25877   0.00000  Uiso   1.00
C416   C     0.02129   0.87373   0.24119   0.00000  Uiso   1.00
C417   C     0.29086   0.83334   0.25002   0.00000  Uiso   1.00
C418   C     0.04247   0.83333   0.24995   0.00000  Uiso   1.00
C419   C     0.19088   0.69065   0.27941   0.00000  Uiso   1.00
C420   C     0.14244   0.97602   0.22060   0.00000  Uiso   1.00
C421   C     0.14244   0.69067   0.22059   0.00000  Uiso   1.00
C422   C     0.19088   0.97599   0.27942   0.00000  Uiso   1.00
C423   C     0.16669   0.83332   0.16332   0.00000  Uiso   1.00
C424   C     0.16684   0.83332   0.33668   0.00000  Uiso   1.00
C425   C     0.18307   0.87103   0.40721   0.00000  Uiso   1.00
C426   C     0.15387   0.79456   0.09271   0.00000  Uiso   1.00
C427   C     0.16794   0.83315   0.38454   0.00000  Uiso   1.00
C428   C     0.16751   0.83305   0.11546   0.00000  Uiso   1.00
C429   C     0.15432   0.79481   0.40735   0.00000  Uiso   1.00
C430   C     0.18255   0.87082   0.09274   0.00000  Uiso   1.00
C431   C     0.15498   0.79426   0.45340   0.00000  Uiso   1.00
C432   C     0.18392   0.87053   0.04665   0.00000  Uiso   1.00
C433   C     0.17016   0.83235   0.47677   0.00000  Uiso   1.00
C434   C     0.16986   0.83193   0.02325   0.00000  Uiso   1.00
C435   C     0.18508   0.87099   0.45359   0.00000  Uiso   1.00
C436   C     0.15510   0.79319   0.04638   0.00000  Uiso   1.00
C437   C     0.14057   0.75608   0.47614   0.00000  Uiso   1.00
C438   C     0.19934   0.90825   0.02389   0.00000  Uiso   1.00
H439   H     0.19302   0.90029   0.38827   0.00000  Uiso   1.00
H440   H     0.14144   0.76637   0.11155   0.00000  Uiso   1.00
H441   H     0.14256   0.76563   0.38923   0.00000  Uiso   1.00
H442   H     0.19353   0.90028   0.11096   0.00000  Uiso   1.00
H443   H     0.12918   0.72690   0.45782   0.00000  Uiso   1.00
H444   H     0.21084   0.93740   0.04220   0.00000  Uiso   1.00
H445   H     0.03756   0.76154   0.26581   0.00000  Uiso   1.00
H446   H     0.29577   0.90512   0.23415   0.00000  Uiso   1.00
H447   H     0.29582   0.76155   0.26590   0.00000  Uiso   1.00
H448   H     0.03751   0.90511   0.23406   0.00000  Uiso   1.00
H449   H     0.21024   0.70885   0.30290   0.00000  Uiso   1.00
H450   H     0.12306   0.95781   0.19712   0.00000  Uiso   1.00
H451   H     0.12308   0.70889   0.19710   0.00000  Uiso   1.00
H452   H     0.21023   0.95778   0.30292   0.00000  Uiso   1.00
N453   N     0.16667   0.95240   0.25000   0.00000  Uiso   1.00
N454   N     0.16667   0.71427   0.25000   0.00000  Uiso   1.00
O455   O     0.10559   0.87154   0.25000   0.00000  Uiso   1.00
O456   O     0.22774   0.79513   0.25000   0.00000  Uiso   1.00
O457   O     0.22774   0.87154   0.25000   0.00000  Uiso   1.00
O458   O     0.10559   0.79513   0.24999   0.00000  Uiso   1.00
O459   O     0.16666   0.87156   0.18392   0.00000  Uiso   1.00
O460   O     0.16667   0.79511   0.31607   0.00000  Uiso   1.00
O461   O     0.16667   0.87156   0.31607   0.00000  Uiso   1.00
O462   O     0.16666   0.79511   0.18392   0.00000  Uiso   1.00
Zn463  Zn    0.16667   0.88437   0.25000   0.00000  Uiso   1.00
Zn464  Zn    0.16667   0.78229   0.25000   0.00000  Uiso   1.00
N465   N     0.12821   0.71404   0.04398   0.00000  Uiso   1.00
H466   H     0.14581   0.70435   0.07112   0.00000  Uiso   1.00
C467   C     0.08387   0.71037   0.05097   0.00000  Uiso   1.00
H468   H     0.07655   0.67666   0.06548   0.00000  Uiso   1.00
H469   H     0.06700   0.71365   0.01876   0.00000  Uiso   1.00
H470   H     0.07312   0.73713   0.07435   0.00000  Uiso   1.00
N471   N     0.21862   0.94705   0.45600   0.00000  Uiso   1.00
H472   H     0.23674   0.94009   0.42853   0.00000  Uiso   1.00
C473   C     0.19050   0.98475   0.44980   0.00000  Uiso   1.00
H474   H     0.20767   0.68065   0.43547   0.00000  Uiso   1.00
H475   H     0.17719   0.99529   0.48234   0.00000  Uiso   1.00
H476   H     0.16495   0.97518   0.42663   0.00000  Uiso   1.00
C477   C     0.41995   0.83333   0.24996   0.00000  Uiso   1.00
C478   C     0.58005   0.83333   0.25003   0.00000  Uiso   1.00
C479   C     0.47439   0.75475   0.02249   0.00000  Uiso   1.00
C480   C     0.53397   0.90873   0.47750   0.00000  Uiso   1.00
C481   C     0.35465   0.79293   0.25872   0.00000  Uiso   1.00
C482   C     0.64535   0.87373   0.24124   0.00000  Uiso   1.00
C483   C     0.64538   0.79293   0.25877   0.00000  Uiso   1.00
C484   C     0.35462   0.87373   0.24119   0.00000  Uiso   1.00
C485   C     0.62419   0.83334   0.25002   0.00000  Uiso   1.00
C486   C     0.37581   0.83333   0.24995   0.00000  Uiso   1.00
C487   C     0.52422   0.69065   0.27941   0.00000  Uiso   1.00
C488   C     0.47577   0.97602   0.22060   0.00000  Uiso   1.00
C489   C     0.47577   0.69067   0.22059   0.00000  Uiso   1.00
C490   C     0.52421   0.97599   0.27942   0.00000  Uiso   1.00
C491   C     0.50003   0.83332   0.16332   0.00000  Uiso   1.00
C492   C     0.50018   0.83332   0.33668   0.00000  Uiso   1.00
C493   C     0.51641   0.87103   0.40721   0.00000  Uiso   1.00
C494   C     0.48720   0.79456   0.09271   0.00000  Uiso   1.00
C495   C     0.50127   0.83315   0.38454   0.00000  Uiso   1.00
C496   C     0.50085   0.83305   0.11546   0.00000  Uiso   1.00
C497   C     0.48766   0.79481   0.40735   0.00000  Uiso   1.00
C498   C     0.51589   0.87082   0.09274   0.00000  Uiso   1.00
C499   C     0.48831   0.79426   0.45340   0.00000  Uiso   1.00
C500   C     0.51725   0.87053   0.04665   0.00000  Uiso   1.00
C501   C     0.50349   0.83235   0.47677   0.00000  Uiso   1.00
C502   C     0.50320   0.83193   0.02325   0.00000  Uiso   1.00
C503   C     0.51841   0.87099   0.45359   0.00000  Uiso   1.00
C504   C     0.48843   0.79319   0.04638   0.00000  Uiso   1.00
C505   C     0.47391   0.75608   0.47614   0.00000  Uiso   1.00
C506   C     0.53267   0.90825   0.02389   0.00000  Uiso   1.00
H507   H     0.52635   0.90029   0.38827   0.00000  Uiso   1.00
H508   H     0.47478   0.76637   0.11155   0.00000  Uiso   1.00
H509   H     0.47590   0.76563   0.38923   0.00000  Uiso   1.00
H510   H     0.52687   0.90028   0.11096   0.00000  Uiso   1.00
H511   H     0.46252   0.72690   0.45782   0.00000  Uiso   1.00
H512   H     0.54417   0.93740   0.04220   0.00000  Uiso   1.00
H513   H     0.37089   0.76154   0.26581   0.00000  Uiso   1.00
H514   H     0.62911   0.90512   0.23415   0.00000  Uiso   1.00
H515   H     0.62916   0.76155   0.26590   0.00000  Uiso   1.00
H516   H     0.37084   0.90511   0.23406   0.00000  Uiso   1.00
H517   H     0.54358   0.70885   0.30290   0.00000  Uiso   1.00
H518   H     0.45639   0.95781   0.19712   0.00000  Uiso   1.00
H519   H     0.45642   0.70889   0.19710   0.00000  Uiso   1.00
H520   H     0.54356   0.95778   0.30292   0.00000  Uiso   1.00
N521   N     0.50000   0.95240   0.25000   0.00000  Uiso   1.00
N522   N     0.50000   0.71427   0.25000   0.00000  Uiso   1.00
O523   O     0.43892   0.87154   0.25000   0.00000  Uiso   1.00
O524   O     0.56108   0.79513   0.25000   0.00000  Uiso   1.00
O525   O     0.56108   0.87154   0.25000   0.00000  Uiso   1.00
O526   O     0.43892   0.79513   0.24999   0.00000  Uiso   1.00
O527   O     0.49999   0.87156   0.18392   0.00000  Uiso   1.00
O528   O     0.50001   0.79511   0.31607   0.00000  Uiso   1.00
O529   O     0.50001   0.87156   0.31607   0.00000  Uiso   1.00
O530   O     0.49999   0.79511   0.18392   0.00000  Uiso   1.00
Zn531  Zn    0.50000   0.88437   0.25000   0.00000  Uiso   1.00
Zn532  Zn    0.50000   0.78229   0.25000   0.00000  Uiso   1.00
N533   N     0.46154   0.71404   0.04398   0.00000  Uiso   1.00
H534   H     0.47914   0.70435   0.07112   0.00000  Uiso   1.00
C535   C     0.41721   0.71037   0.05097   0.00000  Uiso   1.00
H536   H     0.40988   0.67666   0.06548   0.00000  Uiso   1.00
H537   H     0.40033   0.71365   0.01876   0.00000  Uiso   1.00
H538   H     0.40645   0.73713   0.07435   0.00000  Uiso   1.00
N539   N     0.55195   0.94705   0.45600   0.00000  Uiso   1.00
H540   H     0.57008   0.94009   0.42853   0.00000  Uiso   1.00
C541   C     0.52383   0.98475   0.44980   0.00000  Uiso   1.00
H542   H     0.54101   0.68065   0.43547   0.00000  Uiso   1.00
H543   H     0.51052   0.99529   0.48234   0.00000  Uiso   1.00
H544   H     0.49828   0.97518   0.42663   0.00000  Uiso   1.00
C545   C     0.75328   0.83333   0.24996   0.00000  Uiso   1.00
C546   C     0.91338   0.83333   0.25003   0.00000  Uiso   1.00
C547   C     0.80773   0.75475   0.02249   0.00000  Uiso   1.00
C548   C     0.86731   0.90873   0.47750   0.00000  Uiso   1.00
C549   C     0.68798   0.79293   0.25872   0.00000  Uiso   1.00
C550   C     0.97868   0.87373   0.24124   0.00000  Uiso   1.00
C551   C     0.97871   0.79293   0.25877   0.00000  Uiso   1.00
C552   C     0.68796   0.87373   0.24119   0.00000  Uiso   1.00
C553   C     0.95753   0.83334   0.25002   0.00000  Uiso   1.00
C554   C     0.70914   0.83333   0.24995   0.00000  Uiso   1.00
C555   C     0.85755   0.69065   0.27941   0.00000  Uiso   1.00
C556   C     0.80910   0.97602   0.22060   0.00000  Uiso   1.00
C557   C     0.80911   0.69067   0.22059   0.00000  Uiso   1.00
C558   C     0.85755   0.97599   0.27942   0.00000  Uiso   1.00
C559   C     0.83336   0.83332   0.16332   0.00000  Uiso   1.00
C560   C     0.83351   0.83332   0.33668   0.00000  Uiso   1.00
C561   C     0.84974   0.87103   0.40721   0.00000  Uiso   1.00
C562   C     0.82053   0.79456   0.09271   0.00000  Uiso   1.00
C563   C     0.83461   0.83315   0.38454   0.00000  Uiso   1.00
C564   C     0.83418   0.83305   0.11546   0.00000  Uiso   1.00
C565   C     0.82099   0.79481   0.40735   0.00000  Uiso   1.00
C566   C     0.84922   0.87082   0.09274   0.00000  Uiso   1.00
C567   C     0.82165   0.79426   0.45340   0.00000  Uiso   1.00
C568   C     0.85058   0.87053   0.04665   0.00000  Uiso   1.00
C569   C     0.83682   0.83235   0.47677   0.00000  Uiso   1.00
C570   C     0.83653   0.83193   0.02325   0.00000  Uiso   1.00
C571   C     0.85175   0.87099   0.45359   0.00000  Uiso   1.00
C572   C     0.82176   0.79319   0.04638   0.00000  Uiso   1.00
C573   C     0.80724   0.75608   0.47614   0.00000  Uiso   1.00
C574   C     0.86601   0.90825   0.02389   0.00000  Uiso   1.00
H575   H     0.85969   0.90029   0.38827   0.00000  Uiso   1.00
H576   H     0.80811   0.76637   0.11155   0.00000  Uiso   1.00
H577   H     0.80923   0.76563   0.38923   0.00000  Uiso   1.00
H578   H     0.86020   0.90028   0.11096   0.00000  Uiso   1.00
H579   H     0.79585   0.72690   0.45782   0.00000  Uiso   1.00
H580   H     0.87751   0.93740   0.04220   0.00000  Uiso   1.00
H581   H     0.70422   0.76154   0.26581   0.00000  Uiso   1.00
H582   H     0.96244   0.90512   0.23415   0.00000  Uiso   1.00
H583   H     0.96249   0.76155   0.26590   0.00000  Uiso   1.00
H584   H     0.70418   0.90511   0.23406   0.00000  Uiso   1.00
H585   H     0.87691   0.70885   0.30290   0.00000  Uiso   1.00
H586   H     0.78973   0.95781   0.19712   0.00000  Uiso   1.00
H587   H     0.78975   0.70889   0.19710   0.00000  Uiso   1.00
H588   H     0.87689   0.95778   0.30292   0.00000  Uiso   1.00
N589   N     0.83333   0.95240   0.25000   0.00000  Uiso   1.00
N590   N     0.83333   0.71427   0.25000   0.00000  Uiso   1.00
O591   O     0.77226   0.87154   0.25000   0.00000  Uiso   1.00
O592   O     0.89441   0.79513   0.25000   0.00000  Uiso   1.00
O593   O     0.89441   0.87154   0.25000   0.00000  Uiso   1.00
O594   O     0.77226   0.79513   0.24999   0.00000  Uiso   1.00
O595   O     0.83333   0.87156   0.18392   0.00000  Uiso   1.00
O596   O     0.83334   0.79511   0.31607   0.00000  Uiso   1.00
O597   O     0.83334   0.87156   0.31607   0.00000  Uiso   1.00
O598   O     0.83333   0.79511   0.18392   0.00000  Uiso   1.00
Zn599  Zn    0.83333   0.88437   0.25000   0.00000  Uiso   1.00
Zn600  Zn    0.83333   0.78229   0.25000   0.00000  Uiso   1.00
N601   N     0.79488   0.71404   0.04398   0.00000  Uiso   1.00
H602   H     0.81248   0.70435   0.07112   0.00000  Uiso   1.00
C603   C     0.75054   0.71037   0.05097   0.00000  Uiso   1.00
H604   H     0.74322   0.67666   0.06548   0.00000  Uiso   1.00
H605   H     0.73366   0.71365   0.01876   0.00000  Uiso   1.00
H606   H     0.73978   0.73713   0.07435   0.00000  Uiso   1.00
N607   N     0.88529   0.94705   0.45600   0.00000  Uiso   1.00
H608   H     0.90341   0.94009   0.42853   0.00000  Uiso   1.00
C609   C     0.85717   0.98475   0.44980   0.00000  Uiso   1.00
H610   H     0.87434   0.68065   0.43547   0.00000  Uiso   1.00
H611   H     0.84386   0.99529   0.48234   0.00000  Uiso   1.00
H612   H     0.83162   0.97518   0.42663   0.00000  Uiso   1.00
C613   C     0.08661   0.16666   0.74996   0.00000  Uiso   1.00
C614   C     0.24672   0.16667   0.75003   0.00000  Uiso   1.00
C615   C     0.14106   0.08808   0.52249   0.00000  Uiso   1.00
C616   C     0.20064   0.24207   0.97750   0.00000  Uiso   1.00
C617   C     0.02132   0.12626   0.75872   0.00000  Uiso   1.00
C618   C     0.31202   0.20707   0.74124   0.00000  Uiso   1.00
C619   C     0.31204   0.12627   0.75877   0.00000  Uiso   1.00
C620   C     0.02129   0.20706   0.74119   0.00000  Uiso   1.00
C621   C     0.29086   0.16667   0.75002   0.00000  Uiso   1.00
C622   C     0.04247   0.16666   0.74995   0.00000  Uiso   1.00
C623   C     0.19088   0.02399   0.77941   0.00000  Uiso   1.00
C624   C     0.14244   0.30935   0.72060   0.00000  Uiso   1.00
C625   C     0.14244   0.02401   0.72059   0.00000  Uiso   1.00
C626   C     0.19088   0.30933   0.77942   0.00000  Uiso   1.00
C627   C     0.16669   0.16665   0.66332   0.00000  Uiso   1.00
C628   C     0.16684   0.16665   0.83668   0.00000  Uiso   1.00
C629   C     0.18307   0.20437   0.90721   0.00000  Uiso   1.00
C630   C     0.15387   0.12789   0.59271   0.00000  Uiso   1.00
C631   C     0.16794   0.16648   0.88454   0.00000  Uiso   1.00
C632   C     0.16751   0.16638   0.61546   0.00000  Uiso   1.00
C633   C     0.15432   0.12814   0.90735   0.00000  Uiso   1.00
C634   C     0.18255   0.20415   0.59274   0.00000  Uiso   1.00
C635   C     0.15498   0.12759   0.95340   0.00000  Uiso   1.00
C636   C     0.18392   0.20386   0.54665   0.00000  Uiso   1.00
C637   C     0.17016   0.16569   0.97677   0.00000  Uiso   1.00
C638   C     0.16986   0.16526   0.52325   0.00000  Uiso   1.00
C639   C     0.18508   0.20433   0.95359   0.00000  Uiso   1.00
C640   C     0.15510   0.12652   0.54638   0.00000  Uiso   1.00
C641   C     0.14057   0.08941   0.97614   0.00000  Uiso   1.00
C642   C     0.19934   0.24158   0.52389   0.00000  Uiso   1.00
H643   H     0.19302   0.23362   0.88827   0.00000  Uiso   1.00
H644   H     0.14144   0.09971   0.61155   0.00000  Uiso   1.00
H645   H     0.14256   0.09896   0.88923   0.00000  Uiso   1.00
H646   H     0.19353   0.23361   0.61096   0.00000  Uiso   1.00
H647   H     0.12918   0.06023   0.95782   0.00000  Uiso   1.00
H648   H     0.21084   0.27074   0.54220   0.00000  Uiso   1.00
H649   H     0.03756   0.09487   0.76581   0.00000  Uiso   1.00
H650   H     0.29577   0.23846   0.73415   0.00000  Uiso   1.00
H651   H     0.29582   0.09489   0.76590   0.00000  Uiso   1.00
H652   H     0.03751   0.23844   0.73406   0.00000  Uiso   1.00
H653   H     0.21024   0.04219   0.80290   0.00000  Uiso   1.00
H654   H     0.12306   0.29115   0.69712   0.00000  Uiso   1.00
H655   H     0.12308   0.04222   0.69710   0.00000  Uiso   1.00
H656   H     0.21023   0.29111   0.80292   0.00000  Uiso   1.00
N657   N     0.16667   0.28573   0.75000   0.00000  Uiso   1.00
N658   N     0.16667   0.04760   0.75000   0.00000  Uiso   1.00
O659   O     0.10559   0.20487   0.75000   0.00000  Uiso   1.00
O660   O     0.22774   0.12846   0.75000   0.00000  Uiso   1.00
O661   O     0.22774   0.20487   0.75000   0.00000  Uiso   1.00
O662   O     0.10559   0.12846   0.74999   0.00000  Uiso   1.00
O663   O     0.16666   0.20489   0.68392   0.00000  Uiso   1.00
O664   O     0.16667   0.12844   0.81607   0.00000  Uiso   1.00
O665   O     0.16667   0.20489   0.81607   0.00000  Uiso   1.00
O666   O     0.16666   0.12844   0.68392   0.00000  Uiso   1.00
Zn667  Zn    0.16667   0.21771   0.75000   0.00000  Uiso   1.00
Zn668  Zn    0.16667   0.11563   0.75000   0.00000  Uiso   1.00
N669   N     0.12821   0.04738   0.54398   0.00000  Uiso   1.00
H670   H     0.14581   0.03769   0.57112   0.00000  Uiso   1.00
C671   C     0.08387   0.04370   0.55097   0.00000  Uiso   1.00
H672   H     0.07655   0.00999   0.56548   0.00000  Uiso   1.00
H673   H     0.06700   0.04698   0.51876   0.00000  Uiso   1.00
H674   H     0.07312   0.07046   0.57435   0.00000  Uiso   1.00
N675   N     0.21862   0.28038   0.95600   0.00000  Uiso   1.00
H676   H     0.23674   0.27342   0.92853   0.00000  Uiso   1.00
C677   C     0.19050   0.31808   0.94980   0.00000  Uiso   1.00
H678   H     0.20767   0.01398   0.93547   0.00000  Uiso   1.00
H679   H     0.17719   0.32862   0.98234   0.00000  Uiso   1.00
H680   H     0.16495   0.30852   0.92663   0.00000  Uiso   1.00
C681   C     0.41995   0.16666   0.74996   0.00000  Uiso   1.00
C682   C     0.58005   0.16667   0.75003   0.00000  Uiso   1.00
C683   C     0.47439   0.08808   0.52249   0.00000  Uiso   1.00
C684   C     0.53397   0.24207   0.97750   0.00000  Uiso   1.00
C685   C     0.35465   0.12626   0.75872   0.00000  Uiso   1.00
C686   C     0.64535   0.20707   0.74124   0.00000  Uiso   1.00
C687   C     0.64538   0.12627   0.75877   0.00000  Uiso   1.00
C688   C     0.35462   0.20706   0.74119   0.00000  Uiso   1.00
C689   C     0.62419   0.16667   0.75002   0.00000  Uiso   1.00
C690   C     0.37581   0.16666   0.74995   0.00000  Uiso   1.00
C691   C     0.52422   0.02399   0.77941   0.00000  Uiso   1.00
C692   C     0.47577   0.30935   0.72060   0.00000  Uiso   1.00
C693   C     0.47577   0.02401   0.72059   0.00000  Uiso   1.00
C694   C     0.52421   0.30933   0.77942   0.00000  Uiso   1.00
C695   C     0.50003   0.16665   0.66332   0.00000  Uiso   1.00
C696   C     0.50018   0.16665   0.83668   0.00000  Uiso   1.00
C697   C     0.51641   0.20437   0.90721   0.00000  Uiso   1.00
C698   C     0.48720   0.12789   0.59271   0.00000  Uiso   1.00
C699   C     0.50127   0.16648   0.88454   0.00000  Uiso   1.00
C700   C     0.50085   0.16638   0.61546   0.00000  Uiso   1.00
C701   C     0.48766   0.12814   0.90735   0.00000  Uiso   1.00
C702   C     0.51589   0.20415   0.59274   0.00000  Uiso   1.00
C703   C     0.48831   0.12759   0.95340   0.00000  Uiso   1.00
C704   C     0.51725   0.20386   0.54665   0.00000  Uiso   1.00
C705   C     0.50349   0.16569   0.97677   0.00000  Uiso   1.00
C706   C     0.50320   0.16526   0.52325   0.00000  Uiso   1.00
C707   C     0.51841   0.20433   0.95359   0.00000  Uiso   1.00
C708   C     0.48843   0.12652   0.54638   0.00000  Uiso   1.00
C709   C     0.47391   0.08941   0.97614   0.00000  Uiso   1.00
C710   C     0.53267   0.24158   0.52389   0.00000  Uiso   1.00
H711   H     0.52635   0.23362   0.88827   0.00000  Uiso   1.00
H712   H     0.47478   0.09971   0.61155   0.00000  Uiso   1.00
H713   H     0.47590   0.09896   0.88923   0.00000  Uiso   1.00
H714   H     0.52687   0.23361   0.61096   0.00000  Uiso   1.00
H715   H     0.46252   0.06023   0.95782   0.00000  Uiso   1.00
H716   H     0.54417   0.27074   0.54220   0.00000  Uiso   1.00
H717   H     0.37089   0.09487   0.76581   0.00000  Uiso   1.00
H718   H     0.62911   0.23846   0.73415   0.00000  Uiso   1.00
H719   H     0.62916   0.09489   0.76590   0.00000  Uiso   1.00
H720   H     0.37084   0.23844   0.73406   0.00000  Uiso   1.00
H721   H     0.54358   0.04219   0.80290   0.00000  Uiso   1.00
H722   H     0.45639   0.29115   0.69712   0.00000  Uiso   1.00
H723   H     0.45642   0.04222   0.69710   0.00000  Uiso   1.00
H724   H     0.54356   0.29111   0.80292   0.00000  Uiso   1.00
N725   N     0.50000   0.28573   0.75000   0.00000  Uiso   1.00
N726   N     0.50000   0.04760   0.75000   0.00000  Uiso   1.00
O727   O     0.43892   0.20487   0.75000   0.00000  Uiso   1.00
O728   O     0.56108   0.12846   0.75000   0.00000  Uiso   1.00
O729   O     0.56108   0.20487   0.75000   0.00000  Uiso   1.00
O730   O     0.43892   0.12846   0.74999   0.00000  Uiso   1.00
O731   O     0.49999   0.20489   0.68392   0.00000  Uiso   1.00
O732   O     0.50001   0.12844   0.81607   0.00000  Uiso   1.00
O733   O     0.50001   0.20489   0.81607   0.00000  Uiso   1.00
O734   O     0.49999   0.12844   0.68392   0.00000  Uiso   1.00
Zn735  Zn    0.50000   0.21771   0.75000   0.00000  Uiso   1.00
Zn736  Zn    0.50000   0.11563   0.75000   0.00000  Uiso   1.00
N737   N     0.46154   0.04738   0.54398   0.00000  Uiso   1.00
H738   H     0.47914   0.03769   0.57112   0.00000  Uiso   1.00
C739   C     0.41721   0.04370   0.55097   0.00000  Uiso   1.00
H740   H     0.40988   0.00999   0.56548   0.00000  Uiso   1.00
H741   H     0.40033   0.04698   0.51876   0.00000  Uiso   1.00
H742   H     0.40645   0.07046   0.57435   0.00000  Uiso   1.00
N743   N     0.55195   0.28038   0.95600   0.00000  Uiso   1.00
H744   H     0.57008   0.27342   0.92853   0.00000  Uiso   1.00
C745   C     0.52383   0.31808   0.94980   0.00000  Uiso   1.00
H746   H     0.54101   0.01398   0.93547   0.00000  Uiso   1.00
H747   H     0.51052   0.32862   0.98234   0.00000  Uiso   1.00
H748   H     0.49828   0.30852   0.92663   0.00000  Uiso   1.00
C749   C     0.75328   0.16666   0.74996   0.00000  Uiso   1.00
C750   C     0.91338   0.16667   0.75003   0.00000  Uiso   1.00
C751   C     0.80773   0.08808   0.52249   0.00000  Uiso   1.00
C752   C     0.86731   0.24207   0.97750   0.00000  Uiso   1.00
C753   C     0.68798   0.12626   0.75872   0.00000  Uiso   1.00
C754   C     0.97868   0.20707   0.74124   0.00000  Uiso   1.00
C755   C     0.97871   0.12627   0.75877   0.00000  Uiso   1.00
C756   C     0.68796   0.20706   0.74119   0.00000  Uiso   1.00
C757   C     0.95753   0.16667   0.75002   0.00000  Uiso   1.00
C758   C     0.70914   0.16666   0.74995   0.00000  Uiso   1.00
C759   C     0.85755   0.02399   0.77941   0.00000  Uiso   1.00
C760   C     0.80910   0.30935   0.72060   0.00000  Uiso   1.00
C761   C     0.80911   0.02401   0.72059   0.00000  Uiso   1.00
C762   C     0.85755   0.30933   0.77942   0.00000  Uiso   1.00
C763   C     0.83336   0.16665   0.66332   0.00000  Uiso   1.00
C764   C     0.83351   0.16665   0.83668   0.00000  Uiso   1.00
C765   C     0.84974   0.20437   0.90721   0.00000  Uiso   1.00
C766   C     0.82053   0.12789   0.59271   0.00000  Uiso   1.00
C767   C     0.83461   0.16648   0.88454   0.00000  Uiso   1.00
C768   C     0.83418   0.16638   0.61546   0.00000  Uiso   1.00
C769   C     0.82099   0.12814   0.90735   0.00000  Uiso   1.00
C770   C     0.84922   0.20415   0.59274   0.00000  Uiso   1.00
C771   C     0.82165   0.12759   0.95340   0.00000  Uiso   1.00
C772   C     0.85058   0.20386   0.54665   0.00000  Uiso   1.00
C773   C     0.83682   0.16569   0.97677   0.00000  Uiso   1.00
C774   C     0.83653   0.16526   0.52325   0.00000  Uiso   1.00
C775   C     0.85175   0.20433   0.95359   0.00000  Uiso   1.00
C776   C     0.82176   0.12652   0.54638   0.00000  Uiso   1.00
C777   C     0.80724   0.08941   0.97614   0.00000  Uiso   1.00
C778   C     0.86601   0.24158   0.52389   0.00000  Uiso   1.00
H779   H     0.85969   0.23362   0.88827   0.00000  Uiso   1.00
H780   H     0.80811   0.09971   0.61155   0.00000  Uiso   1.00
H781   H     0.80923   0.09896   0.88923   0.00000  Uiso   1.00
H782   H     0.86020   0.23361   0.61096   0.00000  Uiso   1.00
H783   H     0.79585   0.06023   0.95782   0.00000  Uiso   1.00
H784   H     0.87751   0.27074   0.54220   0.00000  Uiso   1.00
H785   H     0.70422   0.09487   0.76581   0.00000  Uiso   1.00
H786   H     0.96244   0.23846   0.73415   0.00000  Uiso   1.00
H787   H     0.96249   0.09489   0.76590   0.00000  Uiso   1.00
H788   H     0.70418   0.23844   0.73406   0.00000  Uiso   1.00
H789   H     0.87691   0.04219   0.80290   0.00000  Uiso   1.00
H790   H     0.78973   0.29115   0.69712   0.00000  Uiso   1.00
H791   H     0.78975   0.04222   0.69710   0.00000  Uiso   1.00
H792   H     0.87689   0.29111   0.80292   0.00000  Uiso   1.00
N793   N     0.83333   0.28573   0.75000   0.00000  Uiso   1.00
N794   N     0.83333   0.04760   0.75000   0.00000  Uiso   1.00
O795   O     0.77226   0.20487   0.75000   0.00000  Uiso   1.00
O796   O     0.89441   0.12846   0.75000   0.00000  Uiso   1.00
O797   O     0.89441   0.20487   0.75000   0.00000  Uiso   1.00
O798   O     0.77226   0.12846   0.74999   0.00000  Uiso   1.00
O799   O     0.83333   0.20489   0.68392   0.00000  Uiso   1.00
O800   O     0.83334   0.12844   0.81607   0.00000  Uiso   1.00
O801   O     0.83334   0.20489   0.81607   0.00000  Uiso   1.00
O802   O     0.83333   0.12844   0.68392   0.00000  Uiso   1.00
Zn803  Zn    0.83333   0.21771   0.75000   0.00000  Uiso   1.00
Zn804  Zn    0.83333   0.11563   0.75000   0.00000  Uiso   1.00
N805   N     0.79488   0.04738   0.54398   0.00000  Uiso   1.00
H806   H     0.81248   0.03769   0.57112   0.00000  Uiso   1.00
C807   C     0.75054   0.04370   0.55097   0.00000  Uiso   1.00
H808   H     0.74322   0.00999   0.56548   0.00000  Uiso   1.00
H809   H     0.73366   0.04698   0.51876   0.00000  Uiso   1.00
H810   H     0.73978   0.07046   0.57435   0.00000  Uiso   1.00
N811   N     0.88529   0.28038   0.95600   0.00000  Uiso   1.00
H812   H     0.90341   0.27342   0.92853   0.00000  Uiso   1.00
C813   C     0.85717   0.31808   0.94980   0.00000  Uiso   1.00
H814   H     0.87434   0.01398   0.93547   0.00000  Uiso   1.00
H815   H     0.84386   0.32862   0.98234   0.00000  Uiso   1.00
H816   H     0.83162   0.30852   0.92663   0.00000  Uiso   1.00
C817   C     0.08661   0.50000   0.74996   0.00000  Uiso   1.00
C818   C     0.24672   0.50000   0.75003   0.00000  Uiso   1.00
C819   C     0.14106   0.42141   0.52249   0.00000  Uiso   1.00
C820   C     0.20064   0.57540   0.97750   0.00000  Uiso   1.00
C821   C     0.02132   0.45959   0.75872   0.00000  Uiso   1.00
C822   C     0.31202   0.54040   0.74124   0.00000  Uiso   1.00
C823   C     0.31204   0.45960   0.75877   0.00000  Uiso   1.00
C824   C     0.02129   0.54039   0.74119   0.00000  Uiso   1.00
C825   C     0.29086   0.50000   0.75002   0.00000  Uiso   1.00
C826   C     0.04247   0.49999   0.74995   0.00000  Uiso   1.00
C827   C     0.19088   0.35732   0.77941   0.00000  Uiso   1.00
C828   C     0.14244   0.64268   0.72060   0.00000  Uiso   1.00
C829   C     0.14244   0.35734   0.72059   0.00000  Uiso   1.00
C830   C     0.19088   0.64266   0.77942   0.00000  Uiso   1.00
C831   C     0.16669   0.49998   0.66332   0.00000  Uiso   1.00
C832   C     0.16684   0.49998   0.83668   0.00000  Uiso   1.00
C833   C     0.18307   0.53770   0.90721   0.00000  Uiso   1.00
C834   C     0.15387   0.46123   0.59271   0.00000  Uiso   1.00
C835   C     0.16794   0.49981   0.88454   0.00000  Uiso   1.00
C836   C     0.16751   0.49972   0.61546   0.00000  Uiso   1.00
C837   C     0.15432   0.46147   0.90735   0.00000  Uiso   1.00
C838   C     0.18255   0.53749   0.59274   0.00000  Uiso   1.00
C839   C     0.15498   0.46092   0.95340   0.00000  Uiso   1.00
C840   C     0.18392   0.53719   0.54665   0.00000  Uiso   1.00
C841   C     0.17016   0.49902   0.97677   0.00000  Uiso   1.00
C842   C     0.16986   0.49860   0.52325   0.00000  Uiso   1.00
C843   C     0.18508   0.53766   0.95359   0.00000  Uiso   1.00
C844   C     0.15510   0.45985   0.54638   0.00000  Uiso   1.00
C845   C     0.14057   0.42275   0.97614   0.00000  Uiso   1.00
C846   C     0.19934   0.57492   0.52389   0.00000  Uiso   1.00
H847   H     0.19302   0.56696   0.88827   0.00000  Uiso   1.00
H848   H     0.14144   0.43304   0.61155   0.00000  Uiso   1.00
H849   H     0.14256   0.43230   0.88923   0.00000  Uiso   1.00
H850   H     0.19353   0.56695   0.61096   0.00000  Uiso   1.00
H851   H     0.12918   0.39357   0.95782   0.00000  Uiso   1.00
H852   H     0.21084   0.60407   0.54220   0.00000  Uiso   1.00
H853   H     0.03756   0.42820   0.76581   0.00000  Uiso   1.00
H854   H     0.29577   0.57179   0.73415   0.00000  Uiso   1.00
H855   H     0.29582   0.42822   0.76590   0.00000  Uiso   1.00
H856   H     0.03751   0.57178   0.73406   0.00000  Uiso   1.00
H857   H     0.21024   0.37552   0.80290   0.00000  Uiso   1.00
H858   H     0.12306   0.62448   0.69712   0.00000  Uiso   1.00
H859   H     0.12308   0.37556   0.69710   0.00000  Uiso   1.00
H860   H     0.21023   0.62445   0.80292   0.00000  Uiso   1.00
N861   N     0.16667   0.61907   0.75000   0.00000  Uiso   1.00
N862   N     0.16667   0.38093   0.75000   0.00000  Uiso   1.00
O863   O     0.10559   0.53821   0.75000   0.00000  Uiso   1.00
O864   O     0.22774   0.46179   0.75000   0.00000  Uiso   1.00
O865   O     0.22774   0.53821   0.75000   0.00000  Uiso   1.00
O866   O     0.10559   0.46179   0.74999   0.00000  Uiso   1.00
O867   O     0.16666   0.53823   0.68392   0.00000  Uiso   1.00
O868   O     0.16667   0.46177   0.81607   0.00000  Uiso   1.00
O869   O     0.16667   0.53823   0.81607   0.00000  Uiso   1.00
O870   O     0.16666   0.46177   0.68392   0.00000  Uiso   1.00
Zn871  Zn    0.16667   0.55104   0.75000   0.00000  Uiso   1.00
Zn872  Zn    0.16667   0.44896   0.75000   0.00000  Uiso   1.00
N873   N     0.12821   0.38071   0.54398   0.00000  Uiso   1.00
H874   H     0.14581   0.37102   0.57112   0.00000  Uiso   1.00
C875   C     0.08387   0.37703   0.55097   0.00000  Uiso   1.00
H876   H     0.07655   0.34332   0.56548   0.00000  Uiso   1.00
H877   H     0.06700   0.38032   0.51876   0.00000  Uiso   1.00
H878   H     0.07312   0.40380   0.57435   0.00000  Uiso   1.00
N879   N     0.21862   0.61372   0.95600   0.00000  Uiso   1.00
H880   H     0.23674   0.60675   0.92853   0.00000  Uiso   1.00
C881   C     0.19050   0.65141   0.94980   0.00000  Uiso   1.00
H882   H     0.20767   0.34731   0.93547   0.00000  Uiso   1.00
H883   H     0.17719   0.66195   0.98234   0.00000  Uiso   1.00
H884   H     0.16495   0.64185   0.92663   0.00000  Uiso   1.00
C885   C     0.41995   0.50000   0.74996   0.00000  Uiso   1.00
C886   C     0.58005   0.50000   0.75003   0.00000  Uiso   1.00
C887   C     0.47439   0.42141   0.52249   0.00000  Uiso   1.00
C888   C     0.53397   0.57540   0.97750   0.00000  Uiso   1.00
C889   C     0.35465   0.45959   0.75872   0.00000  Uiso   1.00
C890   C     0.64535   0.54040   0.74124   0.00000  Uiso   1.00
C891   C     0.64538   0.45960   0.75877   0.00000  Uiso   1.00
C892   C     0.35462   0.54039   0.74119   0.00000  Uiso   1.00
C893   C     0.62419   0.50000   0.75002   0.00000  Uiso   1.00
C894   C     0.37581   0.49999   0.74995   0.00000  Uiso   1.00
C895   C     0.52422   0.35732   0.77941   0.00000  Uiso   1.00
C896   C     0.47577   0.64268   0.72060   0.00000  Uiso   1.00
C897   C     0.47577   0.35734   0.72059   0.00000  Uiso   1.00
C898   C     0.52421   0.64266   0.77942   0.00000  Uiso   1.00
C899   C     0.50003   0.49998   0.66332   0.00000  Uiso   1.00
C900   C     0.50018   0.49998   0.83668   0.00000  Uiso   1.00
C901   C     0.51641   0.53770   0.90721   0.00000  Uiso   1.00
C902   C     0.48720   0.46123   0.59271   0.00000  Uiso   1.00
C903   C     0.50127   0.49981   0.88454   0.00000  Uiso   1.00
C904   C     0.50085   0.49972   0.61546   0.00000  Uiso   1.00
C905   C     0.48766   0.46147   0.90735   0.00000  Uiso   1.00
C906   C     0.51589   0.53749   0.59274   0.00000  Uiso   1.00
C907   C     0.48831   0.46092   0.95340   0.00000  Uiso   1.00
C908   C     0.51725   0.53719   0.54665   0.00000  Uiso   1.00
C909   C     0.50349   0.49902   0.97677   0.00000  Uiso   1.00
C910   C     0.50320   0.49860   0.52325   0.00000  Uiso   1.00
C911   C     0.51841   0.53766   0.95359   0.00000  Uiso   1.00
C912   C     0.48843   0.45985   0.54638   0.00000  Uiso   1.00
C913   C     0.47391   0.42275   0.97614   0.00000  Uiso   1.00
C914   C     0.53267   0.57492   0.52389   0.00000  Uiso   1.00
H915   H     0.52635   0.56696   0.88827   0.00000  Uiso   1.00
H916   H     0.47478   0.43304   0.61155   0.00000  Uiso   1.00
H917   H     0.47590   0.43230   0.88923   0.00000  Uiso   1.00
H918   H     0.52687   0.56695   0.61096   0.00000  Uiso   1.00
H919   H     0.46252   0.39357   0.95782   0.00000  Uiso   1.00
H920   H     0.54417   0.60407   0.54220   0.00000  Uiso   1.00
H921   H     0.37089   0.42820   0.76581   0.00000  Uiso   1.00
H922   H     0.62911   0.57179   0.73415   0.00000  Uiso   1.00
H923   H     0.62916   0.42822   0.76590   0.00000  Uiso   1.00
H924   H     0.37084   0.57178   0.73406   0.00000  Uiso   1.00
H925   H     0.54358   0.37552   0.80290   0.00000  Uiso   1.00
H926   H     0.45639   0.62448   0.69712   0.00000  Uiso   1.00
H927   H     0.45642   0.37556   0.69710   0.00000  Uiso   1.00
H928   H     0.54356   0.62445   0.80292   0.00000  Uiso   1.00
N929   N     0.50000   0.61907   0.75000   0.00000  Uiso   1.00
N930   N     0.50000   0.38093   0.75000   0.00000  Uiso   1.00
O931   O     0.43892   0.53821   0.75000   0.00000  Uiso   1.00
O932   O     0.56108   0.46179   0.75000   0.00000  Uiso   1.00
O933   O     0.56108   0.53821   0.75000   0.00000  Uiso   1.00
O934   O     0.43892   0.46179   0.74999   0.00000  Uiso   1.00
O935   O     0.49999   0.53823   0.68392   0.00000  Uiso   1.00
O936   O     0.50001   0.46177   0.81607   0.00000  Uiso   1.00
O937   O     0.50001   0.53823   0.81607   0.00000  Uiso   1.00
O938   O     0.49999   0.46177   0.68392   0.00000  Uiso   1.00
Zn939  Zn    0.50000   0.55104   0.75000   0.00000  Uiso   1.00
Zn940  Zn    0.50000   0.44896   0.75000   0.00000  Uiso   1.00
N941   N     0.46154   0.38071   0.54398   0.00000  Uiso   1.00
H942   H     0.47914   0.37102   0.57112   0.00000  Uiso   1.00
C943   C     0.41721   0.37703   0.55097   0.00000  Uiso   1.00
H944   H     0.40988   0.34332   0.56548   0.00000  Uiso   1.00
H945   H     0.40033   0.38032   0.51876   0.00000  Uiso   1.00
H946   H     0.40645   0.40380   0.57435   0.00000  Uiso   1.00
N947   N     0.55195   0.61372   0.95600   0.00000  Uiso   1.00
H948   H     0.57008   0.60675   0.92853   0.00000  Uiso   1.00
C949   C     0.52383   0.65141   0.94980   0.00000  Uiso   1.00
H950   H     0.54101   0.34731   0.93547   0.00000  Uiso   1.00
H951   H     0.51052   0.66195   0.98234   0.00000  Uiso   1.00
H952   H     0.49828   0.64185   0.92663   0.00000  Uiso   1.00
C953   C     0.75328   0.50000   0.74996   0.00000  Uiso   1.00
C954   C     0.91338   0.50000   0.75003   0.00000  Uiso   1.00
C955   C     0.80773   0.42141   0.52249   0.00000  Uiso   1.00
C956   C     0.86731   0.57540   0.97750   0.00000  Uiso   1.00
C957   C     0.68798   0.45959   0.75872   0.00000  Uiso   1.00
C958   C     0.97868   0.54040   0.74124   0.00000  Uiso   1.00
C959   C     0.97871   0.45960   0.75877   0.00000  Uiso   1.00
C960   C     0.68796   0.54039   0.74119   0.00000  Uiso   1.00
C961   C     0.95753   0.50000   0.75002   0.00000  Uiso   1.00
C962   C     0.70914   0.49999   0.74995   0.00000  Uiso   1.00
C963   C     0.85755   0.35732   0.77941   0.00000  Uiso   1.00
C964   C     0.80910   0.64268   0.72060   0.00000  Uiso   1.00
C965   C     0.80911   0.35734   0.72059   0.00000  Uiso   1.00
C966   C     0.85755   0.64266   0.77942   0.00000  Uiso   1.00
C967   C     0.83336   0.49998   0.66332   0.00000  Uiso   1.00
C968   C     0.83351   0.49998   0.83668   0.00000  Uiso   1.00
C969   C     0.84974   0.53770   0.90721   0.00000  Uiso   1.00
C970   C     0.82053   0.46123   0.59271   0.00000  Uiso   1.00
C971   C     0.83461   0.49981   0.88454   0.00000  Uiso   1.00
C972   C     0.83418   0.49972   0.61546   0.00000  Uiso   1.00
C973   C     0.82099   0.46147   0.90735   0.00000  Uiso   1.00
C974   C     0.84922   0.53749   0.59274   0.00000  Uiso   1.00
C975   C     0.82165   0.46092   0.95340   0.00000  Uiso   1.00
C976   C     0.85058   0.53719   0.54665   0.00000  Uiso   1.00
C977   C     0.83682   0.49902   0.97677   0.00000  Uiso   1.00
C978   C     0.83653   0.49860   0.52325   0.00000  Uiso   1.00
C979   C     0.85175   0.53766   0.95359   0.00000  Uiso   1.00
C980   C     0.82176   0.45985   0.54638   0.00000  Uiso   1.00
C981   C     0.80724   0.42275   0.97614   0.00000  Uiso   1.00
C982   C     0.86601   0.57492   0.52389   0.00000  Uiso   1.00
H983   H     0.85969   0.56696   0.88827   0.00000  Uiso   1.00
H984   H     0.80811   0.43304   0.61155   0.00000  Uiso   1.00
H985   H     0.80923   0.43230   0.88923   0.00000  Uiso   1.00
H986   H     0.86020   0.56695   0.61096   0.00000  Uiso   1.00
H987   H     0.79585   0.39357   0.95782   0.00000  Uiso   1.00
H988   H     0.87751   0.60407   0.54220   0.00000  Uiso   1.00
H989   H     0.70422   0.42820   0.76581   0.00000  Uiso   1.00
H990   H     0.96244   0.57179   0.73415   0.00000  Uiso   1.00
H991   H     0.96249   0.42822   0.76590   0.00000  Uiso   1.00
H992   H     0.70418   0.57178   0.73406   0.00000  Uiso   1.00
H993   H     0.87691   0.37552   0.80290   0.00000  Uiso   1.00
H994   H     0.78973   0.62448   0.69712   0.00000  Uiso   1.00
H995   H     0.78975   0.37556   0.69710   0.00000  Uiso   1.00
H996   H     0.87689   0.62445   0.80292   0.00000  Uiso   1.00
N997   N     0.83333   0.61907   0.75000   0.00000  Uiso   1.00
N998   N     0.83333   0.38093   0.75000   0.00000  Uiso   1.00
O999   O     0.77226   0.53821   0.75000   0.00000  Uiso   1.00
O1000  O     0.89441   0.46179   0.75000   0.00000  Uiso   1.00
O1001  O     0.89441   0.53821   0.75000   0.00000  Uiso   1.00
O1002  O     0.77226   0.46179   0.74999   0.00000  Uiso   1.00
O1003  O     0.83333   0.53823   0.68392   0.00000  Uiso   1.00
O1004  O     0.83334   0.46177   0.81607   0.00000  Uiso   1.00
O1005  O     0.83334   0.53823   0.81607   0.00000  Uiso   1.00
O1006  O     0.83333   0.46177   0.68392   0.00000  Uiso   1.00
Zn1007 Zn    0.83333   0.55104   0.75000   0.00000  Uiso   1.00
Zn1008 Zn    0.83333   0.44896   0.75000   0.00000  Uiso   1.00
N1009  N     0.79488   0.38071   0.54398   0.00000  Uiso   1.00
H1010  H     0.81248   0.37102   0.57112   0.00000  Uiso   1.00
C1011  C     0.75054   0.37703   0.55097   0.00000  Uiso   1.00
H1012  H     0.74322   0.34332   0.56548   0.00000  Uiso   1.00
H1013  H     0.73366   0.38032   0.51876   0.00000  Uiso   1.00
H1014  H     0.73978   0.40380   0.57435   0.00000  Uiso   1.00
N1015  N     0.88529   0.61372   0.95600   0.00000  Uiso   1.00
H1016  H     0.90341   0.60675   0.92853   0.00000  Uiso   1.00
C1017  C     0.85717   0.65141   0.94980   0.00000  Uiso   1.00
H1018  H     0.87434   0.34731   0.93547   0.00000  Uiso   1.00
H1019  H     0.84386   0.66195   0.98234   0.00000  Uiso   1.00
H1020  H     0.83162   0.64185   0.92663   0.00000  Uiso   1.00
C1021  C     0.08661   0.83333   0.74996   0.00000  Uiso   1.00
C1022  C     0.24672   0.83333   0.75003   0.00000  Uiso   1.00
C1023  C     0.14106   0.75475   0.52249   0.00000  Uiso   1.00
C1024  C     0.20064   0.90873   0.97750   0.00000  Uiso   1.00
C1025  C     0.02132   0.79293   0.75872   0.00000  Uiso   1.00
C1026  C     0.31202   0.87373   0.74124   0.00000  Uiso   1.00
C1027  C     0.31204   0.79293   0.75877   0.00000  Uiso   1.00
C1028  C     0.02129   0.87373   0.74119   0.00000  Uiso   1.00
C1029  C     0.29086   0.83334   0.75002   0.00000  Uiso   1.00
C1030  C     0.04247   0.83333   0.74995   0.00000  Uiso   1.00
C1031  C     0.19088   0.69065   0.77941   0.00000  Uiso   1.00
C1032  C     0.14244   0.97602   0.72060   0.00000  Uiso   1.00
C1033  C     0.14244   0.69067   0.72059   0.00000  Uiso   1.00
C1034  C     0.19088   0.97599   0.77942   0.00000  Uiso   1.00
C1035  C     0.16669   0.83332   0.66332   0.00000  Uiso   1.00
C1036  C     0.16684   0.83332   0.83668   0.00000  Uiso   1.00
C1037  C     0.18307   0.87103   0.90721   0.00000  Uiso   1.00
C1038  C     0.15387   0.79456   0.59271   0.00000  Uiso   1.00
C1039  C     0.16794   0.83315   0.88454   0.00000  Uiso   1.00
C1040  C     0.16751   0.83305   0.61546   0.00000  Uiso   1.00
C1041  C     0.15432   0.79481   0.90735   0.00000  Uiso   1.00
C1042  C     0.18255   0.87082   0.59274   0.00000  Uiso   1.00
C1043  C     0.15498   0.79426   0.95340   0.00000  Uiso   1.00
C1044  C     0.18392   0.87053   0.54665   0.00000  Uiso   1.00
C1045  C     0.17016   0.83235   0.97677   0.00000  Uiso   1.00
C1046  C     0.16986   0.83193   0.52325   0.00000  Uiso   1.00
C1047  C     0.18508   0.87099   0.95359   0.00000  Uiso   1.00
C1048  C     0.15510   0.79319   0.54638   0.00000  Uiso   1.00
C1049  C     0.14057   0.75608   0.97614   0.00000  Uiso   1.00
C1050  C     0.19934   0.90825   0.52389   0.00000  Uiso   1.00
H1051  H     0.19302   0.90029   0.88827   0.00000  Uiso   1.00
H1052  H     0.14144   0.76637   0.61155   0.00000  Uiso   1.00
H1053  H     0.14256   0.76563   0.88923   0.00000  Uiso   1.00
H1054  H     0.19353   0.90028   0.61096   0.00000  Uiso   1.00
H1055  H     0.12918   0.72690   0.95782   0.00000  Uiso   1.00
H1056  H     0.21084   0.93740   0.54220   0.00000  Uiso   1.00
H1057  H     0.03756   0.76154   0.76581   0.00000  Uiso   1.00
H1058  H     0.29577   0.90512   0.73415   0.00000  Uiso   1.00
H1059  H     0.29582   0.76155   0.76590   0.00000  Uiso   1.00
H1060  H     0.03751   0.90511   0.73406   0.00000  Uiso   1.00
H1061  H     0.21024   0.70885   0.80290   0.00000  Uiso   1.00
H1062  H     0.12306   0.95781   0.69712   0.00000  Uiso   1.00
H1063  H     0.12308   0.70889   0.69710   0.00000  Uiso   1.00
H1064  H     0.21023   0.95778   0.80292   0.00000  Uiso   1.00
N1065  N     0.16667   0.95240   0.75000   0.00000  Uiso   1.00
N1066  N     0.16667   0.71427   0.75000   0.00000  Uiso   1.00
O1067  O     0.10559   0.87154   0.75000   0.00000  Uiso   1.00
O1068  O     0.22774   0.79513   0.75000   0.00000  Uiso   1.00
O1069  O     0.22774   0.87154   0.75000   0.00000  Uiso   1.00
O1070  O     0.10559   0.79513   0.74999   0.00000  Uiso   1.00
O1071  O     0.16666   0.87156   0.68392   0.00000  Uiso   1.00
O1072  O     0.16667   0.79511   0.81607   0.00000  Uiso   1.00
O1073  O     0.16667   0.87156   0.81607   0.00000  Uiso   1.00
O1074  O     0.16666   0.79511   0.68392   0.00000  Uiso   1.00
Zn1075 Zn    0.16667   0.88437   0.75000   0.00000  Uiso   1.00
Zn1076 Zn    0.16667   0.78229   0.75000   0.00000  Uiso   1.00
N1077  N     0.12821   0.71404   0.54398   0.00000  Uiso   1.00
H1078  H     0.14581   0.70435   0.57112   0.00000  Uiso   1.00
C1079  C     0.08387   0.71037   0.55097   0.00000  Uiso   1.00
H1080  H     0.07655   0.67666   0.56548   0.00000  Uiso   1.00
H1081  H     0.06700   0.71365   0.51876   0.00000  Uiso   1.00
H1082  H     0.07312   0.73713   0.57435   0.00000  Uiso   1.00
N1083  N     0.21862   0.94705   0.95600   0.00000  Uiso   1.00
H1084  H     0.23674   0.94009   0.92853   0.00000  Uiso   1.00
C1085  C     0.19050   0.98475   0.94980   0.00000  Uiso   1.00
H1086  H     0.20767   0.68065   0.93547   0.00000  Uiso   1.00
H1087  H     0.17719   0.99529   0.98234   0.00000  Uiso   1.00
H1088  H     0.16495   0.97518   0.92663   0.00000  Uiso   1.00
C1089  C     0.41995   0.83333   0.74996   0.00000  Uiso   1.00
C1090  C     0.58005   0.83333   0.75003   0.00000  Uiso   1.00
C1091  C     0.47439   0.75475   0.52249   0.00000  Uiso   1.00
C1092  C     0.53397   0.90873   0.97750   0.00000  Uiso   1.00
C1093  C     0.35465   0.79293   0.75872   0.00000  Uiso   1.00
C1094  C     0.64535   0.87373   0.74124   0.00000  Uiso   1.00
C1095  C     0.64538   0.79293   0.75877   0.00000  Uiso   1.00
C1096  C     0.35462   0.87373   0.74119   0.00000  Uiso   1.00
C1097  C     0.62419   0.83334   0.75002   0.00000  Uiso   1.00
C1098  C     0.37581   0.83333   0.74995   0.00000  Uiso   1.00
C1099  C     0.52422   0.69065   0.77941   0.00000  Uiso   1.00
C1100  C     0.47577   0.97602   0.72060   0.00000  Uiso   1.00
C1101  C     0.47577   0.69067   0.72059   0.00000  Uiso   1.00
C1102  C     0.52421   0.97599   0.77942   0.00000  Uiso   1.00
C1103  C     0.50003   0.83332   0.66332   0.00000  Uiso   1.00
C1104  C     0.50018   0.83332   0.83668   0.00000  Uiso   1.00
C1105  C     0.51641   0.87103   0.90721   0.00000  Uiso   1.00
C1106  C     0.48720   0.79456   0.59271   0.00000  Uiso   1.00
C1107  C     0.50127   0.83315   0.88454   0.00000  Uiso   1.00
C1108  C     0.50085   0.83305   0.61546   0.00000  Uiso   1.00
C1109  C     0.48766   0.79481   0.90735   0.00000  Uiso   1.00
C1110  C     0.51589   0.87082   0.59274   0.00000  Uiso   1.00
C1111  C     0.48831   0.79426   0.95340   0.00000  Uiso   1.00
C1112  C     0.51725   0.87053   0.54665   0.00000  Uiso   1.00
C1113  C     0.50349   0.83235   0.97677   0.00000  Uiso   1.00
C1114  C     0.50320   0.83193   0.52325   0.00000  Uiso   1.00
C1115  C     0.51841   0.87099   0.95359   0.00000  Uiso   1.00
C1116  C     0.48843   0.79319   0.54638   0.00000  Uiso   1.00
C1117  C     0.47391   0.75608   0.97614   0.00000  Uiso   1.00
C1118  C     0.53267   0.90825   0.52389   0.00000  Uiso   1.00
H1119  H     0.52635   0.90029   0.88827   0.00000  Uiso   1.00
H1120  H     0.47478   0.76637   0.61155   0.00000  Uiso   1.00
H1121  H     0.47590   0.76563   0.88923   0.00000  Uiso   1.00
H1122  H     0.52687   0.90028   0.61096   0.00000  Uiso   1.00
H1123  H     0.46252   0.72690   0.95782   0.00000  Uiso   1.00
H1124  H     0.54417   0.93740   0.54220   0.00000  Uiso   1.00
H1125  H     0.37089   0.76154   0.76581   0.00000  Uiso   1.00
H1126  H     0.62911   0.90512   0.73415   0.00000  Uiso   1.00
H1127  H     0.62916   0.76155   0.76590   0.00000  Uiso   1.00
H1128  H     0.37084   0.90511   0.73406   0.00000  Uiso   1.00
H1129  H     0.54358   0.70885   0.80290   0.00000  Uiso   1.00
H1130  H     0.45639   0.95781   0.69712   0.00000  Uiso   1.00
H1131  H     0.45642   0.70889   0.69710   0.00000  Uiso   1.00
H1132  H     0.54356   0.95778   0.80292   0.00000  Uiso   1.00
N1133  N     0.50000   0.95240   0.75000   0.00000  Uiso   1.00
N1134  N     0.50000   0.71427   0.75000   0.00000  Uiso   1.00
O1135  O     0.43892   0.87154   0.75000   0.00000  Uiso   1.00
O1136  O     0.56108   0.79513   0.75000   0.00000  Uiso   1.00
O1137  O     0.56108   0.87154   0.75000   0.00000  Uiso   1.00
O1138  O     0.43892   0.79513   0.74999   0.00000  Uiso   1.00
O1139  O     0.49999   0.87156   0.68392   0.00000  Uiso   1.00
O1140  O     0.50001   0.79511   0.81607   0.00000  Uiso   1.00
O1141  O     0.50001   0.87156   0.81607   0.00000  Uiso   1.00
O1142  O     0.49999   0.79511   0.68392   0.00000  Uiso   1.00
Zn1143 Zn    0.50000   0.88437   0.75000   0.00000  Uiso   1.00
Zn1144 Zn    0.50000   0.78229   0.75000   0.00000  Uiso   1.00
N1145  N     0.46154   0.71404   0.54398   0.00000  Uiso   1.00
H1146  H     0.47914   0.70435   0.57112   0.00000  Uiso   1.00
C1147  C     0.41721   0.71037   0.55097   0.00000  Uiso   1.00
H1148  H     0.40988   0.67666   0.56548   0.00000  Uiso   1.00
H1149  H     0.40033   0.71365   0.51876   0.00000  Uiso   1.00
H1150  H     0.40645   0.73713   0.57435   0.00000  Uiso   1.00
N1151  N     0.55195   0.94705   0.95600   0.00000  Uiso   1.00
H1152  H     0.57008   0.94009   0.92853   0.00000  Uiso   1.00
C1153  C     0.52383   0.98475   0.94980   0.00000  Uiso   1.00
H1154  H     0.54101   0.68065   0.93547   0.00000  Uiso   1.00
H1155  H     0.51052   0.99529   0.98234   0.00000  Uiso   1.00
H1156  H     0.49828   0.97518   0.92663   0.00000  Uiso   1.00
C1157  C     0.75328   0.83333   0.74996   0.00000  Uiso   1.00
C1158  C     0.91338   0.83333   0.75003   0.00000  Uiso   1.00
C1159  C     0.80773   0.75475   0.52249   0.00000  Uiso   1.00
C1160  C     0.86731   0.90873   0.97750   0.00000  Uiso   1.00
C1161  C     0.68798   0.79293   0.75872   0.00000  Uiso   1.00
C1162  C     0.97868   0.87373   0.74124   0.00000  Uiso   1.00
C1163  C     0.97871   0.79293   0.75877   0.00000  Uiso   1.00
C1164  C     0.68796   0.87373   0.74119   0.00000  Uiso   1.00
C1165  C     0.95753   0.83334   0.75002   0.00000  Uiso   1.00
C1166  C     0.70914   0.83333   0.74995   0.00000  Uiso   1.00
C1167  C     0.85755   0.69065   0.77941   0.00000  Uiso   1.00
C1168  C     0.80910   0.97602   0.72060   0.00000  Uiso   1.00
C1169  C     0.80911   0.69067   0.72059   0.00000  Uiso   1.00
C1170  C     0.85755   0.97599   0.77942   0.00000  Uiso   1.00
C1171  C     0.83336   0.83332   0.66332   0.00000  Uiso   1.00
C1172  C     0.83351   0.83332   0.83668   0.00000  Uiso   1.00
C1173  C     0.84974   0.87103   0.90721   0.00000  Uiso   1.00
C1174  C     0.82053   0.79456   0.59271   0.00000  Uiso   1.00
C1175  C     0.83461   0.83315   0.88454   0.00000  Uiso   1.00
C1176  C     0.83418   0.83305   0.61546   0.00000  Uiso   1.00
C1177  C     0.82099   0.79481   0.90735   0.00000  Uiso   1.00
C1178  C     0.84922   0.87082   0.59274   0.00000  Uiso   1.00
C1179  C     0.82165   0.79426   0.95340   0.00000  Uiso   1.00
C1180  C     0.85058   0.87053   0.54665   0.00000  Uiso   1.00
C1181  C     0.83682   0.83235   0.97677   0.00000  Uiso   1.00
C1182  C     0.83653   0.83193   0.52325   0.00000  Uiso   1.00
C1183  C     0.85175   0.87099   0.95359   0.00000  Uiso   1.00
C1184  C     0.82176   0.79319   0.54638   0.00000  Uiso   1.00
C1185  C     0.80724   0.75608   0.97614   0.00000  Uiso   1.00
C1186  C     0.86601   0.90825   0.52389   0.00000  Uiso   1.00
H1187  H     0.85969   0.90029   0.88827   0.00000  Uiso   1.00
H1188  H     0.80811   0.76637   0.61155   0.00000  Uiso   1.00
H1189  H     0.80923   0.76563   0.88923   0.00000  Uiso   1.00
H1190  H     0.86020   0.90028   0.61096   0.00000  Uiso   1.00
H1191  H     0.79585   0.72690   0.95782   0.00000  Uiso   1.00
H1192  H     0.87751   0.93740   0.54220   0.00000  Uiso   1.00
H1193  H     0.70422   0.76154   0.76581   0.00000  Uiso   1.00
H1194  H     0.96244   0.90512   0.73415   0.00000  Uiso   1.00
H1195  H     0.96249   0.76155   0.76590   0.00000  Uiso   1.00
H1196  H     0.70418   0.90511   0.73406   0.00000  Uiso   1.00
H1197  H     0.87691   0.70885   0.80290   0.00000  Uiso   1.00
H1198  H     0.78973   0.95781   0.69712   0.00000  Uiso   1.00
H1199  H     0.78975   0.70889   0.69710   0.00000  Uiso   1.00
H1200  H     0.87689   0.95778   0.80292   0.00000  Uiso   1.00
N1201  N     0.83333   0.95240   0.75000   0.00000  Uiso   1.00
N1202  N     0.83333   0.71427   0.75000   0.00000  Uiso   1.00
O1203  O     0.77226   0.87154   0.75000   0.00000  Uiso   1.00
O1204  O     0.89441   0.79513   0.75000   0.00000  Uiso   1.00
O1205  O     0.89441   0.87154   0.75000   0.00000  Uiso   1.00
O1206  O     0.77226   0.79513   0.74999   0.00000  Uiso   1.00
O1207  O     0.83333   0.87156   0.68392   0.00000  Uiso   1.00
O1208  O     0.83334   0.79511   0.81607   0.00000  Uiso   1.00
O1209  O     0.83334   0.87156   0.81607   0.00000  Uiso   1.00
O1210  O     0.83333   0.79511   0.68392   0.00000  Uiso   1.00
Zn1211 Zn    0.83333   0.88437   0.75000   0.00000  Uiso   1.00
Zn1212 Zn    0.83333   0.78229   0.75000   0.00000  Uiso   1.00
N1213  N     0.79488   0.71404   0.54398   0.00000  Uiso   1.00
H1214  H     0.81248   0.70435   0.57112   0.00000  Uiso   1.00
C1215  C     0.75054   0.71037   0.55097   0.00000  Uiso   1.00
H1216  H     0.74322   0.67666   0.56548   0.00000  Uiso   1.00
H1217  H     0.73366   0.71365   0.51876   0.00000  Uiso   1.00
H1218  H     0.73978   0.73713   0.57435   0.00000  Uiso   1.00
N1219  N     0.88529   0.94705   0.95600   0.00000  Uiso   1.00
H1220  H     0.90341   0.94009   0.92853   0.00000  Uiso   1.00
C1221  C     0.85717   0.98475   0.94980   0.00000  Uiso   1.00
H1222  H     0.87434   0.68065   0.93547   0.00000  Uiso   1.00
H1223  H     0.84386   0.99529   0.98234   0.00000  Uiso   1.00
H1224  H     0.83162   0.97518   0.92663   0.00000  Uiso   1.00
loop_
_geom_bond_atom_site_label_1
_geom_bond_atom_site_label_2
_geom_bond_distance
_geom_bond_site_symmetry_2
_ccdc_geom_bond_type
C1     O50     1.281   .     A
C1     O47     1.281   .     A
C1     C10     1.419   .     S
C2     O49     1.281   .     A
C2     O48     1.281   .     A
C2     C9      1.419   .     S
C3     C28     1.415   .     A
C3     N57     1.424   .     S
C3     C641    1.390   1_554 S
C4     N63     1.424   .     S
C4     C27     1.415   .     A
C4     C642    1.392   .     S
C5     H37     1.084   .     S
C5     C10     1.397   .     A
C5     C143    1.370   1_455 S
C6     C9      1.397   .     A
C6     H38     1.084   .     S
C6     C76     1.370   .     S
C7     C9      1.397   .     A
C7     H39     1.084   .     S
C7     C73     1.370   .     S
C8     C10     1.397   .     A
C8     H40     1.084   .     S
C8     C142    1.370   1_455 S
C11    H41     1.082   .     S
C11    N46     1.366   .     A
C11    C422    1.415   1_545 S
C12    H42     1.082   .     S
C12    N45     1.366   .     A
C12    C217    1.415   .     S
C13    H43     1.082   .     S
C13    N46     1.366   .     A
C13    C420    1.415   1_545 S
C14    N45     1.366   .     A
C14    H44     1.082   .     S
C14    C215    1.415   .     S
C15    O51     1.286   .     A
C15    C20     1.435   .     S
C15    O54     1.285   .     A
C16    C19     1.435   .     S
C16    O52     1.285   .     A
C16    O53     1.286   .     A
C17    H31     1.081   .     S
C17    C19     1.395   .     A
C17    C27     1.392   .     A
C18    C20     1.395   .     A
C18    H32     1.082   .     S
C18    C28     1.390   .     A
C19    C21     1.392   .     A
C20    C22     1.392   .     A
C21    H33     1.085   .     S
C21    C23     1.381   .     A
C22    C24     1.382   .     A
C22    H34     1.085   .     S
C23    C29     1.396   .     A
C23    C25     1.411   .     A
C24    C26     1.411   .     A
C24    C30     1.396   .     A
C25    C27     1.419   .     A
C25    C638    1.394   .     S
C26    C28     1.419   .     A
C26    C637    1.394   1_554 S
C29    H35     1.084   .     S
C29    C615    1.390   .     S
C30    H36     1.085   .     S
C30    C616    1.392   1_554 S
N45    Zn55    2.006   .     S
N46    Zn56    2.006   .     S
O47    Zn55    2.000   .     S
O48    Zn56    2.000   .     S
O49    Zn55    2.000   .     S
O50    Zn56    2.000   .     S
O51    Zn55    2.017   .     S
O52    Zn56    2.017   .     S
O53    Zn55    2.016   .     S
O54    Zn56    2.016   .     S
N57    H58     1.031   .     S
N57    C59     1.445   .     S
C59    H60     1.110   .     S
C59    H61     1.111   .     S
C59    H62     1.111   .     S
N63    C65     1.445   .     S
N63    H64     1.030   .     S
C65    H67     1.110   .     S
C65    H68     1.111   .     S
C65    H270    1.110   .     S
H66    C473    1.110   1_545 S
C69    O118    1.281   .     A
C69    O115    1.281   .     A
C69    C78     1.419   .     S
C70    O117    1.281   .     A
C70    O116    1.281   .     A
C70    C77     1.419   .     S
C71    C96     1.415   .     A
C71    N125    1.424   .     S
C71    C709    1.390   1_554 S
C72    N131    1.424   .     S
C72    C95     1.415   .     A
C72    C710    1.392   .     S
C73    H105    1.084   .     S
C73    C78     1.397   .     A
C74    C77     1.397   .     A
C74    H106    1.084   .     S
C74    C144    1.370   .     S
C75    C77     1.397   .     A
C75    H107    1.084   .     S
C75    C141    1.370   .     S
C76    C78     1.397   .     A
C76    H108    1.084   .     S
C79    H109    1.082   .     S
C79    N114    1.366   .     A
C79    C490    1.415   1_545 S
C80    H110    1.082   .     S
C80    N113    1.366   .     A
C80    C285    1.415   .     S
C81    H111    1.082   .     S
C81    N114    1.366   .     A
C81    C488    1.415   1_545 S
C82    N113    1.366   .     A
C82    H112    1.082   .     S
C82    C283    1.415   .     S
C83    O119    1.286   .     A
C83    C88     1.435   .     S
C83    O122    1.285   .     A
C84    C87     1.435   .     S
C84    O120    1.285   .     A
C84    O121    1.286   .     A
C85    H99     1.081   .     S
C85    C87     1.395   .     A
C85    C95     1.392   .     A
C86    C88     1.395   .     A
C86    H100    1.082   .     S
C86    C96     1.390   .     A
C87    C89     1.392   .     A
C88    C90     1.392   .     A
C89    H101    1.085   .     S
C89    C91     1.381   .     A
C90    C92     1.382   .     A
C90    H102    1.085   .     S
C91    C97     1.396   .     A
C91    C93     1.411   .     A
C92    C94     1.411   .     A
C92    C98     1.396   .     A
C93    C95     1.419   .     A
C93    C706    1.394   .     S
C94    C96     1.419   .     A
C94    C705    1.394   1_554 S
C97    H103    1.084   .     S
C97    C683    1.390   .     S
C98    H104    1.085   .     S
C98    C684    1.392   1_554 S
N113   Zn123   2.006   .     S
N114   Zn124   2.006   .     S
O115   Zn123   2.000   .     S
O116   Zn124   2.000   .     S
O117   Zn123   2.000   .     S
O118   Zn124   2.000   .     S
O119   Zn123   2.017   .     S
O120   Zn124   2.017   .     S
O121   Zn123   2.016   .     S
O122   Zn124   2.016   .     S
N125   H126    1.031   .     S
N125   C127    1.445   .     S
C127   H128    1.110   .     S
C127   H129    1.111   .     S
C127   H130    1.111   .     S
N131   C133    1.445   .     S
N131   H132    1.030   .     S
C133   H135    1.110   .     S
C133   H136    1.111   .     S
C133   H338    1.110   .     S
H134   C541    1.110   1_545 S
C137   O186    1.281   .     A
C137   O183    1.281   .     A
C137   C146    1.419   .     S
C138   O185    1.281   .     A
C138   O184    1.281   .     A
C138   C145    1.419   .     S
C139   C164    1.415   .     A
C139   N193    1.424   .     S
C139   C777    1.390   1_554 S
C140   N199    1.424   .     S
C140   C163    1.415   .     A
C140   C778    1.392   .     S
C141   H173    1.084   .     S
C141   C146    1.397   .     A
C142   C145    1.397   .     A
C142   H174    1.084   .     S
C142   C8      1.370   1_655 S
C143   C145    1.397   .     A
C143   H175    1.084   .     S
C143   C5      1.370   1_655 S
C144   C146    1.397   .     A
C144   H176    1.084   .     S
C147   H177    1.082   .     S
C147   N182    1.366   .     A
C147   C558    1.415   1_545 S
C148   H178    1.082   .     S
C148   N181    1.366   .     A
C148   C353    1.415   .     S
C149   H179    1.082   .     S
C149   N182    1.366   .     A
C149   C556    1.415   1_545 S
C150   N181    1.366   .     A
C150   H180    1.082   .     S
C150   C351    1.415   .     S
C151   O187    1.286   .     A
C151   C156    1.435   .     S
C151   O190    1.285   .     A
C152   C155    1.435   .     S
C152   O188    1.285   .     A
C152   O189    1.286   .     A
C153   H167    1.081   .     S
C153   C155    1.395   .     A
C153   C163    1.392   .     A
C154   C156    1.395   .     A
C154   H168    1.082   .     S
C154   C164    1.390   .     A
C155   C157    1.392   .     A
C156   C158    1.392   .     A
C157   H169    1.085   .     S
C157   C159    1.381   .     A
C158   C160    1.382   .     A
C158   H170    1.085   .     S
C159   C165    1.396   .     A
C159   C161    1.411   .     A
C160   C162    1.411   .     A
C160   C166    1.396   .     A
C161   C163    1.419   .     A
C161   C774    1.394   .     S
C162   C164    1.419   .     A
C162   C773    1.394   1_554 S
C165   H171    1.084   .     S
C165   C751    1.390   .     S
C166   H172    1.085   .     S
C166   C752    1.392   1_554 S
N181   Zn191   2.006   .     S
N182   Zn192   2.006   .     S
O183   Zn191   2.000   .     S
O184   Zn192   2.000   .     S
O185   Zn191   2.000   .     S
O186   Zn192   2.000   .     S
O187   Zn191   2.017   .     S
O188   Zn192   2.017   .     S
O189   Zn191   2.016   .     S
O190   Zn192   2.016   .     S
N193   H194    1.031   .     S
N193   C195    1.445   .     S
C195   H196    1.110   .     S
C195   H197    1.111   .     S
C195   H198    1.111   .     S
N199   C201    1.445   .     S
N199   H200    1.030   .     S
C201   H203    1.110   .     S
C201   H204    1.111   .     S
C201   H406    1.110   .     S
H202   C609    1.110   1_545 S
C205   O254    1.281   .     A
C205   O251    1.281   .     A
C205   C214    1.419   .     S
C206   O253    1.281   .     A
C206   O252    1.281   .     A
C206   C213    1.419   .     S
C207   C232    1.415   .     A
C207   N261    1.424   .     S
C207   C845    1.390   1_554 S
C208   N267    1.424   .     S
C208   C231    1.415   .     A
C208   C846    1.392   .     S
C209   H241    1.084   .     S
C209   C214    1.397   .     A
C209   C347    1.370   1_455 S
C210   C213    1.397   .     A
C210   H242    1.084   .     S
C210   C280    1.370   .     S
C211   C213    1.397   .     A
C211   H243    1.084   .     S
C211   C277    1.370   .     S
C212   C214    1.397   .     A
C212   H244    1.084   .     S
C212   C346    1.370   1_455 S
C215   H245    1.082   .     S
C215   N250    1.366   .     A
C216   H246    1.082   .     S
C216   N249    1.366   .     A
C216   C421    1.415   .     S
C217   H247    1.082   .     S
C217   N250    1.366   .     A
C218   N249    1.366   .     A
C218   H248    1.082   .     S
C218   C419    1.415   .     S
C219   O255    1.286   .     A
C219   C224    1.435   .     S
C219   O258    1.285   .     A
C220   C223    1.435   .     S
C220   O256    1.285   .     A
C220   O257    1.286   .     A
C221   H235    1.081   .     S
C221   C223    1.395   .     A
C221   C231    1.392   .     A
C222   C224    1.395   .     A
C222   H236    1.082   .     S
C222   C232    1.390   .     A
C223   C225    1.392   .     A
C224   C226    1.392   .     A
C225   H237    1.085   .     S
C225   C227    1.381   .     A
C226   C228    1.382   .     A
C226   H238    1.085   .     S
C227   C233    1.396   .     A
C227   C229    1.411   .     A
C228   C230    1.411   .     A
C228   C234    1.396   .     A
C229   C231    1.419   .     A
C229   C842    1.394   .     S
C230   C232    1.419   .     A
C230   C841    1.394   1_554 S
C233   H239    1.084   .     S
C233   C819    1.390   .     S
C234   H240    1.085   .     S
C234   C820    1.392   1_554 S
N249   Zn259   2.006   .     S
N250   Zn260   2.006   .     S
O251   Zn259   2.000   .     S
O252   Zn260   2.000   .     S
O253   Zn259   2.000   .     S
O254   Zn260   2.000   .     S
O255   Zn259   2.017   .     S
O256   Zn260   2.017   .     S
O257   Zn259   2.016   .     S
O258   Zn260   2.016   .     S
N261   H262    1.031   .     S
N261   C263    1.445   .     S
C263   H264    1.110   .     S
C263   H265    1.111   .     S
C263   H266    1.111   .     S
N267   C269    1.445   .     S
N267   H268    1.030   .     S
C269   H271    1.110   .     S
C269   H272    1.111   .     S
C269   H474    1.110   .     S
C273   O322    1.281   .     A
C273   O319    1.281   .     A
C273   C282    1.419   .     S
C274   O321    1.281   .     A
C274   O320    1.281   .     A
C274   C281    1.419   .     S
C275   C300    1.415   .     A
C275   N329    1.424   .     S
C275   C913    1.390   1_554 S
C276   N335    1.424   .     S
C276   C299    1.415   .     A
C276   C914    1.392   .     S
C277   H309    1.084   .     S
C277   C282    1.397   .     A
C278   C281    1.397   .     A
C278   H310    1.084   .     S
C278   C348    1.370   .     S
C279   C281    1.397   .     A
C279   H311    1.084   .     S
C279   C345    1.370   .     S
C280   C282    1.397   .     A
C280   H312    1.084   .     S
C283   H313    1.082   .     S
C283   N318    1.366   .     A
C284   H314    1.082   .     S
C284   N317    1.366   .     A
C284   C489    1.415   .     S
C285   H315    1.082   .     S
C285   N318    1.366   .     A
C286   N317    1.366   .     A
C286   H316    1.082   .     S
C286   C487    1.415   .     S
C287   O323    1.286   .     A
C287   C292    1.435   .     S
C287   O326    1.285   .     A
C288   C291    1.435   .     S
C288   O324    1.285   .     A
C288   O325    1.286   .     A
C289   H303    1.081   .     S
C289   C291    1.395   .     A
C289   C299    1.392   .     A
C290   C292    1.395   .     A
C290   H304    1.082   .     S
C290   C300    1.390   .     A
C291   C293    1.392   .     A
C292   C294    1.392   .     A
C293   H305    1.085   .     S
C293   C295    1.381   .     A
C294   C296    1.382   .     A
C294   H306    1.085   .     S
C295   C301    1.396   .     A
C295   C297    1.411   .     A
C296   C298    1.411   .     A
C296   C302    1.396   .     A
C297   C299    1.419   .     A
C297   C910    1.394   .     S
C298   C300    1.419   .     A
C298   C909    1.394   1_554 S
C301   H307    1.084   .     S
C301   C887    1.390   .     S
C302   H308    1.085   .     S
C302   C888    1.392   1_554 S
N317   Zn327   2.006   .     S
N318   Zn328   2.006   .     S
O319   Zn327   2.000   .     S
O320   Zn328   2.000   .     S
O321   Zn327   2.000   .     S
O322   Zn328   2.000   .     S
O323   Zn327   2.017   .     S
O324   Zn328   2.017   .     S
O325   Zn327   2.016   .     S
O326   Zn328   2.016   .     S
N329   H330    1.031   .     S
N329   C331    1.445   .     S
C331   H332    1.110   .     S
C331   H333    1.111   .     S
C331   H334    1.111   .     S
N335   C337    1.445   .     S
N335   H336    1.030   .     S
C337   H339    1.110   .     S
C337   H340    1.111   .     S
C337   H542    1.110   .     S
C341   O390    1.281   .     A
C341   O387    1.281   .     A
C341   C350    1.419   .     S
C342   O389    1.281   .     A
C342   O388    1.281   .     A
C342   C349    1.419   .     S
C343   C368    1.415   .     A
C343   N397    1.424   .     S
C343   C981    1.390   1_554 S
C344   N403    1.424   .     S
C344   C367    1.415   .     A
C344   C982    1.392   .     S
C345   H377    1.084   .     S
C345   C350    1.397   .     A
C346   C349    1.397   .     A
C346   H378    1.084   .     S
C346   C212    1.370   1_655 S
C347   C349    1.397   .     A
C347   H379    1.084   .     S
C347   C209    1.370   1_655 S
C348   C350    1.397   .     A
C348   H380    1.084   .     S
C351   H381    1.082   .     S
C351   N386    1.366   .     A
C352   H382    1.082   .     S
C352   N385    1.366   .     A
C352   C557    1.415   .     S
C353   H383    1.082   .     S
C353   N386    1.366   .     A
C354   N385    1.366   .     A
C354   H384    1.082   .     S
C354   C555    1.415   .     S
C355   O391    1.286   .     A
C355   C360    1.435   .     S
C355   O394    1.285   .     A
C356   C359    1.435   .     S
C356   O392    1.285   .     A
C356   O393    1.286   .     A
C357   H371    1.081   .     S
C357   C359    1.395   .     A
C357   C367    1.392   .     A
C358   C360    1.395   .     A
C358   H372    1.082   .     S
C358   C368    1.390   .     A
C359   C361    1.392   .     A
C360   C362    1.392   .     A
C361   H373    1.085   .     S
C361   C363    1.381   .     A
C362   C364    1.382   .     A
C362   H374    1.085   .     S
C363   C369    1.396   .     A
C363   C365    1.411   .     A
C364   C366    1.411   .     A
C364   C370    1.396   .     A
C365   C367    1.419   .     A
C365   C978    1.394   .     S
C366   C368    1.419   .     A
C366   C977    1.394   1_554 S
C369   H375    1.084   .     S
C369   C955    1.390   .     S
C370   H376    1.085   .     S
C370   C956    1.392   1_554 S
N385   Zn395   2.006   .     S
N386   Zn396   2.006   .     S
O387   Zn395   2.000   .     S
O388   Zn396   2.000   .     S
O389   Zn395   2.000   .     S
O390   Zn396   2.000   .     S
O391   Zn395   2.017   .     S
O392   Zn396   2.017   .     S
O393   Zn395   2.016   .     S
O394   Zn396   2.016   .     S
N397   H398    1.031   .     S
N397   C399    1.445   .     S
C399   H400    1.110   .     S
C399   H401    1.111   .     S
C399   H402    1.111   .     S
N403   C405    1.445   .     S
N403   H404    1.030   .     S
C405   H407    1.110   .     S
C405   H408    1.111   .     S
C405   H610    1.110   .     S
C409   O458    1.281   .     A
C409   O455    1.281   .     A
C409   C418    1.419   .     S
C410   O457    1.281   .     A
C410   O456    1.281   .     A
C410   C417    1.419   .     S
C411   C436    1.415   .     A
C411   N465    1.424   .     S
C411   C1049   1.390   1_554 S
C412   N471    1.424   .     S
C412   C435    1.415   .     A
C412   C1050   1.392   .     S
C413   H445    1.084   .     S
C413   C418    1.397   .     A
C413   C551    1.370   1_455 S
C414   C417    1.397   .     A
C414   H446    1.084   .     S
C414   C484    1.370   .     S
C415   C417    1.397   .     A
C415   H447    1.084   .     S
C415   C481    1.370   .     S
C416   C418    1.397   .     A
C416   H448    1.084   .     S
C416   C550    1.370   1_455 S
C419   H449    1.082   .     S
C419   N454    1.366   .     A
C420   H450    1.082   .     S
C420   N453    1.366   .     A
C420   C13     1.415   1_565 S
C421   H451    1.082   .     S
C421   N454    1.366   .     A
C422   N453    1.366   .     A
C422   H452    1.082   .     S
C422   C11     1.415   1_565 S
C423   O459    1.286   .     A
C423   C428    1.435   .     S
C423   O462    1.285   .     A
C424   C427    1.435   .     S
C424   O460    1.285   .     A
C424   O461    1.286   .     A
C425   H439    1.081   .     S
C425   C427    1.395   .     A
C425   C435    1.392   .     A
C426   C428    1.395   .     A
C426   H440    1.082   .     S
C426   C436    1.390   .     A
C427   C429    1.392   .     A
C428   C430    1.392   .     A
C429   H441    1.085   .     S
C429   C431    1.381   .     A
C430   C432    1.382   .     A
C430   H442    1.085   .     S
C431   C437    1.396   .     A
C431   C433    1.411   .     A
C432   C434    1.411   .     A
C432   C438    1.396   .     A
C433   C435    1.419   .     A
C433   C1046   1.394   .     S
C434   C436    1.419   .     A
C434   C1045   1.394   1_554 S
C437   H443    1.084   .     S
C437   C1023   1.390   .     S
C438   H444    1.085   .     S
C438   C1024   1.392   1_554 S
N453   Zn463   2.006   .     S
N454   Zn464   2.006   .     S
O455   Zn463   2.000   .     S
O456   Zn464   2.000   .     S
O457   Zn463   2.000   .     S
O458   Zn464   2.000   .     S
O459   Zn463   2.017   .     S
O460   Zn464   2.017   .     S
O461   Zn463   2.016   .     S
O462   Zn464   2.016   .     S
N465   H466    1.031   .     S
N465   C467    1.445   .     S
C467   H468    1.110   .     S
C467   H469    1.111   .     S
C467   H470    1.111   .     S
N471   C473    1.445   .     S
N471   H472    1.030   .     S
C473   H475    1.110   .     S
C473   H476    1.111   .     S
C473   H66     1.110   1_565 S
C477   O526    1.281   .     A
C477   O523    1.281   .     A
C477   C486    1.419   .     S
C478   O525    1.281   .     A
C478   O524    1.281   .     A
C478   C485    1.419   .     S
C479   C504    1.415   .     A
C479   N533    1.424   .     S
C479   C1117   1.390   1_554 S
C480   N539    1.424   .     S
C480   C503    1.415   .     A
C480   C1118   1.392   .     S
C481   H513    1.084   .     S
C481   C486    1.397   .     A
C482   C485    1.397   .     A
C482   H514    1.084   .     S
C482   C552    1.370   .     S
C483   C485    1.397   .     A
C483   H515    1.084   .     S
C483   C549    1.370   .     S
C484   C486    1.397   .     A
C484   H516    1.084   .     S
C487   H517    1.082   .     S
C487   N522    1.366   .     A
C488   H518    1.082   .     S
C488   N521    1.366   .     A
C488   C81     1.415   1_565 S
C489   H519    1.082   .     S
C489   N522    1.366   .     A
C490   N521    1.366   .     A
C490   H520    1.082   .     S
C490   C79     1.415   1_565 S
C491   O527    1.286   .     A
C491   C496    1.435   .     S
C491   O530    1.285   .     A
C492   C495    1.435   .     S
C492   O528    1.285   .     A
C492   O529    1.286   .     A
C493   H507    1.081   .     S
C493   C495    1.395   .     A
C493   C503    1.392   .     A
C494   C496    1.395   .     A
C494   H508    1.082   .     S
C494   C504    1.390   .     A
C495   C497    1.392   .     A
C496   C498    1.392   .     A
C497   H509    1.085   .     S
C497   C499    1.381   .     A
C498   C500    1.382   .     A
C498   H510    1.085   .     S
C499   C505    1.396   .     A
C499   C501    1.411   .     A
C500   C502    1.411   .     A
C500   C506    1.396   .     A
C501   C503    1.419   .     A
C501   C1114   1.394   .     S
C502   C504    1.419   .     A
C502   C1113   1.394   1_554 S
C505   H511    1.084   .     S
C505   C1091   1.390   .     S
C506   H512    1.085   .     S
C506   C1092   1.392   1_554 S
N521   Zn531   2.006   .     S
N522   Zn532   2.006   .     S
O523   Zn531   2.000   .     S
O524   Zn532   2.000   .     S
O525   Zn531   2.000   .     S
O526   Zn532   2.000   .     S
O527   Zn531   2.017   .     S
O528   Zn532   2.017   .     S
O529   Zn531   2.016   .     S
O530   Zn532   2.016   .     S
N533   H534    1.031   .     S
N533   C535    1.445   .     S
C535   H536    1.110   .     S
C535   H537    1.111   .     S
C535   H538    1.111   .     S
N539   C541    1.445   .     S
N539   H540    1.030   .     S
C541   H543    1.110   .     S
C541   H544    1.111   .     S
C541   H134    1.110   1_565 S
C545   O594    1.281   .     A
C545   O591    1.281   .     A
C545   C554    1.419   .     S
C546   O593    1.281   .     A
C546   O592    1.281   .     A
C546   C553    1.419   .     S
C547   C572    1.415   .     A
C547   N601    1.424   .     S
C547   C1185   1.390   1_554 S
C548   N607    1.424   .     S
C548   C571    1.415   .     A
C548   C1186   1.392   .     S
C549   H581    1.084   .     S
C549   C554    1.397   .     A
C550   C553    1.397   .     A
C550   H582    1.084   .     S
C550   C416    1.370   1_655 S
C551   C553    1.397   .     A
C551   H583    1.084   .     S
C551   C413    1.370   1_655 S
C552   C554    1.397   .     A
C552   H584    1.084   .     S
C555   H585    1.082   .     S
C555   N590    1.366   .     A
C556   H586    1.082   .     S
C556   N589    1.366   .     A
C556   C149    1.415   1_565 S
C557   H587    1.082   .     S
C557   N590    1.366   .     A
C558   N589    1.366   .     A
C558   H588    1.082   .     S
C558   C147    1.415   1_565 S
C559   O595    1.286   .     A
C559   C564    1.435   .     S
C559   O598    1.285   .     A
C560   C563    1.435   .     S
C560   O596    1.285   .     A
C560   O597    1.286   .     A
C561   H575    1.081   .     S
C561   C563    1.395   .     A
C561   C571    1.392   .     A
C562   C564    1.395   .     A
C562   H576    1.082   .     S
C562   C572    1.390   .     A
C563   C565    1.392   .     A
C564   C566    1.392   .     A
C565   H577    1.085   .     S
C565   C567    1.381   .     A
C566   C568    1.382   .     A
C566   H578    1.085   .     S
C567   C573    1.396   .     A
C567   C569    1.411   .     A
C568   C570    1.411   .     A
C568   C574    1.396   .     A
C569   C571    1.419   .     A
C569   C1182   1.394   .     S
C570   C572    1.419   .     A
C570   C1181   1.394   1_554 S
C573   H579    1.084   .     S
C573   C1159   1.390   .     S
C574   H580    1.085   .     S
C574   C1160   1.392   1_554 S
N589   Zn599   2.006   .     S
N590   Zn600   2.006   .     S
O591   Zn599   2.000   .     S
O592   Zn600   2.000   .     S
O593   Zn599   2.000   .     S
O594   Zn600   2.000   .     S
O595   Zn599   2.017   .     S
O596   Zn600   2.017   .     S
O597   Zn599   2.016   .     S
O598   Zn600   2.016   .     S
N601   H602    1.031   .     S
N601   C603    1.445   .     S
C603   H604    1.110   .     S
C603   H605    1.111   .     S
C603   H606    1.111   .     S
N607   C609    1.445   .     S
N607   H608    1.030   .     S
C609   H611    1.110   .     S
C609   H612    1.111   .     S
C609   H202    1.110   1_565 S
C613   O662    1.281   .     A
C613   O659    1.281   .     A
C613   C622    1.419   .     S
C614   O661    1.281   .     A
C614   O660    1.281   .     A
C614   C621    1.419   .     S
C615   C640    1.415   .     A
C615   N669    1.424   .     S
C616   N675    1.424   .     S
C616   C639    1.415   .     A
C616   C30     1.392   1_556 S
C617   H649    1.084   .     S
C617   C622    1.397   .     A
C617   C755    1.370   1_455 S
C618   C621    1.397   .     A
C618   H650    1.084   .     S
C618   C688    1.370   .     S
C619   C621    1.397   .     A
C619   H651    1.084   .     S
C619   C685    1.370   .     S
C620   C622    1.397   .     A
C620   H652    1.084   .     S
C620   C754    1.370   1_455 S
C623   H653    1.082   .     S
C623   N658    1.366   .     A
C623   C1034   1.415   1_545 S
C624   H654    1.082   .     S
C624   N657    1.366   .     A
C624   C829    1.415   .     S
C625   H655    1.082   .     S
C625   N658    1.366   .     A
C625   C1032   1.415   1_545 S
C626   N657    1.366   .     A
C626   H656    1.082   .     S
C626   C827    1.415   .     S
C627   O663    1.286   .     A
C627   C632    1.435   .     S
C627   O666    1.285   .     A
C628   C631    1.435   .     S
C628   O664    1.285   .     A
C628   O665    1.286   .     A
C629   H643    1.081   .     S
C629   C631    1.395   .     A
C629   C639    1.392   .     A
C630   C632    1.395   .     A
C630   H644    1.082   .     S
C630   C640    1.390   .     A
C631   C633    1.392   .     A
C632   C634    1.392   .     A
C633   H645    1.085   .     S
C633   C635    1.381   .     A
C634   C636    1.382   .     A
C634   H646    1.085   .     S
C635   C641    1.396   .     A
C635   C637    1.411   .     A
C636   C638    1.411   .     A
C636   C642    1.396   .     A
C637   C639    1.419   .     A
C637   C26     1.394   1_556 S
C638   C640    1.419   .     A
C641   H647    1.084   .     S
C641   C3      1.390   1_556 S
C642   H648    1.085   .     S
N657   Zn667   2.006   .     S
N658   Zn668   2.006   .     S
O659   Zn667   2.000   .     S
O660   Zn668   2.000   .     S
O661   Zn667   2.000   .     S
O662   Zn668   2.000   .     S
O663   Zn667   2.017   .     S
O664   Zn668   2.017   .     S
O665   Zn667   2.016   .     S
O666   Zn668   2.016   .     S
N669   H670    1.031   .     S
N669   C671    1.445   .     S
C671   H672    1.110   .     S
C671   H673    1.111   .     S
C671   H674    1.111   .     S
N675   C677    1.445   .     S
N675   H676    1.030   .     S
C677   H679    1.110   .     S
C677   H680    1.111   .     S
C677   H882    1.110   .     S
H678   C1085   1.110   1_545 S
C681   O730    1.281   .     A
C681   O727    1.281   .     A
C681   C690    1.419   .     S
C682   O729    1.281   .     A
C682   O728    1.281   .     A
C682   C689    1.419   .     S
C683   C708    1.415   .     A
C683   N737    1.424   .     S
C684   N743    1.424   .     S
C684   C707    1.415   .     A
C684   C98     1.392   1_556 S
C685   H717    1.084   .     S
C685   C690    1.397   .     A
C686   C689    1.397   .     A
C686   H718    1.084   .     S
C686   C756    1.370   .     S
C687   C689    1.397   .     A
C687   H719    1.084   .     S
C687   C753    1.370   .     S
C688   C690    1.397   .     A
C688   H720    1.084   .     S
C691   H721    1.082   .     S
C691   N726    1.366   .     A
C691   C1102   1.415   1_545 S
C692   H722    1.082   .     S
C692   N725    1.366   .     A
C692   C897    1.415   .     S
C693   H723    1.082   .     S
C693   N726    1.366   .     A
C693   C1100   1.415   1_545 S
C694   N725    1.366   .     A
C694   H724    1.082   .     S
C694   C895    1.415   .     S
C695   O731    1.286   .     A
C695   C700    1.435   .     S
C695   O734    1.285   .     A
C696   C699    1.435   .     S
C696   O732    1.285   .     A
C696   O733    1.286   .     A
C697   H711    1.081   .     S
C697   C699    1.395   .     A
C697   C707    1.392   .     A
C698   C700    1.395   .     A
C698   H712    1.082   .     S
C698   C708    1.390   .     A
C699   C701    1.392   .     A
C700   C702    1.392   .     A
C701   H713    1.085   .     S
C701   C703    1.381   .     A
C702   C704    1.382   .     A
C702   H714    1.085   .     S
C703   C709    1.396   .     A
C703   C705    1.411   .     A
C704   C706    1.411   .     A
C704   C710    1.396   .     A
C705   C707    1.419   .     A
C705   C94     1.394   1_556 S
C706   C708    1.419   .     A
C709   H715    1.084   .     S
C709   C71     1.390   1_556 S
C710   H716    1.085   .     S
N725   Zn735   2.006   .     S
N726   Zn736   2.006   .     S
O727   Zn735   2.000   .     S
O728   Zn736   2.000   .     S
O729   Zn735   2.000   .     S
O730   Zn736   2.000   .     S
O731   Zn735   2.017   .     S
O732   Zn736   2.017   .     S
O733   Zn735   2.016   .     S
O734   Zn736   2.016   .     S
N737   H738    1.031   .     S
N737   C739    1.445   .     S
C739   H740    1.110   .     S
C739   H741    1.111   .     S
C739   H742    1.111   .     S
N743   C745    1.445   .     S
N743   H744    1.030   .     S
C745   H747    1.110   .     S
C745   H748    1.111   .     S
C745   H950    1.110   .     S
H746   C1153   1.110   1_545 S
C749   O798    1.281   .     A
C749   O795    1.281   .     A
C749   C758    1.419   .     S
C750   O797    1.281   .     A
C750   O796    1.281   .     A
C750   C757    1.419   .     S
C751   C776    1.415   .     A
C751   N805    1.424   .     S
C752   N811    1.424   .     S
C752   C775    1.415   .     A
C752   C166    1.392   1_556 S
C753   H785    1.084   .     S
C753   C758    1.397   .     A
C754   C757    1.397   .     A
C754   H786    1.084   .     S
C754   C620    1.370   1_655 S
C755   C757    1.397   .     A
C755   H787    1.084   .     S
C755   C617    1.370   1_655 S
C756   C758    1.397   .     A
C756   H788    1.084   .     S
C759   H789    1.082   .     S
C759   N794    1.366   .     A
C759   C1170   1.415   1_545 S
C760   H790    1.082   .     S
C760   N793    1.366   .     A
C760   C965    1.415   .     S
C761   H791    1.082   .     S
C761   N794    1.366   .     A
C761   C1168   1.415   1_545 S
C762   N793    1.366   .     A
C762   H792    1.082   .     S
C762   C963    1.415   .     S
C763   O799    1.286   .     A
C763   C768    1.435   .     S
C763   O802    1.285   .     A
C764   C767    1.435   .     S
C764   O800    1.285   .     A
C764   O801    1.286   .     A
C765   H779    1.081   .     S
C765   C767    1.395   .     A
C765   C775    1.392   .     A
C766   C768    1.395   .     A
C766   H780    1.082   .     S
C766   C776    1.390   .     A
C767   C769    1.392   .     A
C768   C770    1.392   .     A
C769   H781    1.085   .     S
C769   C771    1.381   .     A
C770   C772    1.382   .     A
C770   H782    1.085   .     S
C771   C777    1.396   .     A
C771   C773    1.411   .     A
C772   C774    1.411   .     A
C772   C778    1.396   .     A
C773   C775    1.419   .     A
C773   C162    1.394   1_556 S
C774   C776    1.419   .     A
C777   H783    1.084   .     S
C777   C139    1.390   1_556 S
C778   H784    1.085   .     S
N793   Zn803   2.006   .     S
N794   Zn804   2.006   .     S
O795   Zn803   2.000   .     S
O796   Zn804   2.000   .     S
O797   Zn803   2.000   .     S
O798   Zn804   2.000   .     S
O799   Zn803   2.017   .     S
O800   Zn804   2.017   .     S
O801   Zn803   2.016   .     S
O802   Zn804   2.016   .     S
N805   H806    1.031   .     S
N805   C807    1.445   .     S
C807   H808    1.110   .     S
C807   H809    1.111   .     S
C807   H810    1.111   .     S
N811   C813    1.445   .     S
N811   H812    1.030   .     S
C813   H815    1.110   .     S
C813   H816    1.111   .     S
C813   H1018   1.110   .     S
H814   C1221   1.110   1_545 S
C817   O866    1.281   .     A
C817   O863    1.281   .     A
C817   C826    1.419   .     S
C818   O865    1.281   .     A
C818   O864    1.281   .     A
C818   C825    1.419   .     S
C819   C844    1.415   .     A
C819   N873    1.424   .     S
C820   N879    1.424   .     S
C820   C843    1.415   .     A
C820   C234    1.392   1_556 S
C821   H853    1.084   .     S
C821   C826    1.397   .     A
C821   C959    1.370   1_455 S
C822   C825    1.397   .     A
C822   H854    1.084   .     S
C822   C892    1.370   .     S
C823   C825    1.397   .     A
C823   H855    1.084   .     S
C823   C889    1.370   .     S
C824   C826    1.397   .     A
C824   H856    1.084   .     S
C824   C958    1.370   1_455 S
C827   H857    1.082   .     S
C827   N862    1.366   .     A
C828   H858    1.082   .     S
C828   N861    1.366   .     A
C828   C1033   1.415   .     S
C829   H859    1.082   .     S
C829   N862    1.366   .     A
C830   N861    1.366   .     A
C830   H860    1.082   .     S
C830   C1031   1.415   .     S
C831   O867    1.286   .     A
C831   C836    1.435   .     S
C831   O870    1.285   .     A
C832   C835    1.435   .     S
C832   O868    1.285   .     A
C832   O869    1.286   .     A
C833   H847    1.081   .     S
C833   C835    1.395   .     A
C833   C843    1.392   .     A
C834   C836    1.395   .     A
C834   H848    1.082   .     S
C834   C844    1.390   .     A
C835   C837    1.392   .     A
C836   C838    1.392   .     A
C837   H849    1.085   .     S
C837   C839    1.381   .     A
C838   C840    1.382   .     A
C838   H850    1.085   .     S
C839   C845    1.396   .     A
C839   C841    1.411   .     A
C840   C842    1.411   .     A
C840   C846    1.396   .     A
C841   C843    1.419   .     A
C841   C230    1.394   1_556 S
C842   C844    1.419   .     A
C845   H851    1.084   .     S
C845   C207    1.390   1_556 S
C846   H852    1.085   .     S
N861   Zn871   2.006   .     S
N862   Zn872   2.006   .     S
O863   Zn871   2.000   .     S
O864   Zn872   2.000   .     S
O865   Zn871   2.000   .     S
O866   Zn872   2.000   .     S
O867   Zn871   2.017   .     S
O868   Zn872   2.017   .     S
O869   Zn871   2.016   .     S
O870   Zn872   2.016   .     S
N873   H874    1.031   .     S
N873   C875    1.445   .     S
C875   H876    1.110   .     S
C875   H877    1.111   .     S
C875   H878    1.111   .     S
N879   C881    1.445   .     S
N879   H880    1.030   .     S
C881   H883    1.110   .     S
C881   H884    1.111   .     S
C881   H1086   1.110   .     S
C885   O934    1.281   .     A
C885   O931    1.281   .     A
C885   C894    1.419   .     S
C886   O933    1.281   .     A
C886   O932    1.281   .     A
C886   C893    1.419   .     S
C887   C912    1.415   .     A
C887   N941    1.424   .     S
C888   N947    1.424   .     S
C888   C911    1.415   .     A
C888   C302    1.392   1_556 S
C889   H921    1.084   .     S
C889   C894    1.397   .     A
C890   C893    1.397   .     A
C890   H922    1.084   .     S
C890   C960    1.370   .     S
C891   C893    1.397   .     A
C891   H923    1.084   .     S
C891   C957    1.370   .     S
C892   C894    1.397   .     A
C892   H924    1.084   .     S
C895   H925    1.082   .     S
C895   N930    1.366   .     A
C896   H926    1.082   .     S
C896   N929    1.366   .     A
C896   C1101   1.415   .     S
C897   H927    1.082   .     S
C897   N930    1.366   .     A
C898   N929    1.366   .     A
C898   H928    1.082   .     S
C898   C1099   1.415   .     S
C899   O935    1.286   .     A
C899   C904    1.435   .     S
C899   O938    1.285   .     A
C900   C903    1.435   .     S
C900   O936    1.285   .     A
C900   O937    1.286   .     A
C901   H915    1.081   .     S
C901   C903    1.395   .     A
C901   C911    1.392   .     A
C902   C904    1.395   .     A
C902   H916    1.082   .     S
C902   C912    1.390   .     A
C903   C905    1.392   .     A
C904   C906    1.392   .     A
C905   H917    1.085   .     S
C905   C907    1.381   .     A
C906   C908    1.382   .     A
C906   H918    1.085   .     S
C907   C913    1.396   .     A
C907   C909    1.411   .     A
C908   C910    1.411   .     A
C908   C914    1.396   .     A
C909   C911    1.419   .     A
C909   C298    1.394   1_556 S
C910   C912    1.419   .     A
C913   H919    1.084   .     S
C913   C275    1.390   1_556 S
C914   H920    1.085   .     S
N929   Zn939   2.006   .     S
N930   Zn940   2.006   .     S
O931   Zn939   2.000   .     S
O932   Zn940   2.000   .     S
O933   Zn939   2.000   .     S
O934   Zn940   2.000   .     S
O935   Zn939   2.017   .     S
O936   Zn940   2.017   .     S
O937   Zn939   2.016   .     S
O938   Zn940   2.016   .     S
N941   H942    1.031   .     S
N941   C943    1.445   .     S
C943   H944    1.110   .     S
C943   H945    1.111   .     S
C943   H946    1.111   .     S
N947   C949    1.445   .     S
N947   H948    1.030   .     S
C949   H951    1.110   .     S
C949   H952    1.111   .     S
C949   H1154   1.110   .     S
C953   O1002   1.281   .     A
C953   O999    1.281   .     A
C953   C962    1.419   .     S
C954   O1001   1.281   .     A
C954   O1000   1.281   .     A
C954   C961    1.419   .     S
C955   C980    1.415   .     A
C955   N1009   1.424   .     S
C956   N1015   1.424   .     S
C956   C979    1.415   .     A
C956   C370    1.392   1_556 S
C957   H989    1.084   .     S
C957   C962    1.397   .     A
C958   C961    1.397   .     A
C958   H990    1.084   .     S
C958   C824    1.370   1_655 S
C959   C961    1.397   .     A
C959   H991    1.084   .     S
C959   C821    1.370   1_655 S
C960   C962    1.397   .     A
C960   H992    1.084   .     S
C963   H993    1.082   .     S
C963   N998    1.366   .     A
C964   H994    1.082   .     S
C964   N997    1.366   .     A
C964   C1169   1.415   .     S
C965   H995    1.082   .     S
C965   N998    1.366   .     A
C966   N997    1.366   .     A
C966   H996    1.082   .     S
C966   C1167   1.415   .     S
C967   O1003   1.286   .     A
C967   C972    1.435   .     S
C967   O1006   1.285   .     A
C968   C971    1.435   .     S
C968   O1004   1.285   .     A
C968   O1005   1.286   .     A
C969   H983    1.081   .     S
C969   C971    1.395   .     A
C969   C979    1.392   .     A
C970   C972    1.395   .     A
C970   H984    1.082   .     S
C970   C980    1.390   .     A
C971   C973    1.392   .     A
C972   C974    1.392   .     A
C973   H985    1.085   .     S
C973   C975    1.381   .     A
C974   C976    1.382   .     A
C974   H986    1.085   .     S
C975   C981    1.396   .     A
C975   C977    1.411   .     A
C976   C978    1.411   .     A
C976   C982    1.396   .     A
C977   C979    1.419   .     A
C977   C366    1.394   1_556 S
C978   C980    1.419   .     A
C981   H987    1.084   .     S
C981   C343    1.390   1_556 S
C982   H988    1.085   .     S
N997   Zn1007  2.006   .     S
N998   Zn1008  2.006   .     S
O999   Zn1007  2.000   .     S
O1000  Zn1008  2.000   .     S
O1001  Zn1007  2.000   .     S
O1002  Zn1008  2.000   .     S
O1003  Zn1007  2.017   .     S
O1004  Zn1008  2.017   .     S
O1005  Zn1007  2.016   .     S
O1006  Zn1008  2.016   .     S
N1009  H1010   1.031   .     S
N1009  C1011   1.445   .     S
C1011  H1012   1.110   .     S
C1011  H1013   1.111   .     S
C1011  H1014   1.111   .     S
N1015  C1017   1.445   .     S
N1015  H1016   1.030   .     S
C1017  H1019   1.110   .     S
C1017  H1020   1.111   .     S
C1017  H1222   1.110   .     S
C1021  O1070   1.281   .     A
C1021  O1067   1.281   .     A
C1021  C1030   1.419   .     S
C1022  O1069   1.281   .     A
C1022  O1068   1.281   .     A
C1022  C1029   1.419   .     S
C1023  C1048   1.415   .     A
C1023  N1077   1.424   .     S
C1024  N1083   1.424   .     S
C1024  C1047   1.415   .     A
C1024  C438    1.392   1_556 S
C1025  H1057   1.084   .     S
C1025  C1030   1.397   .     A
C1025  C1163   1.370   1_455 S
C1026  C1029   1.397   .     A
C1026  H1058   1.084   .     S
C1026  C1096   1.370   .     S
C1027  C1029   1.397   .     A
C1027  H1059   1.084   .     S
C1027  C1093   1.370   .     S
C1028  C1030   1.397   .     A
C1028  H1060   1.084   .     S
C1028  C1162   1.370   1_455 S
C1031  H1061   1.082   .     S
C1031  N1066   1.366   .     A
C1032  H1062   1.082   .     S
C1032  N1065   1.366   .     A
C1032  C625    1.415   1_565 S
C1033  H1063   1.082   .     S
C1033  N1066   1.366   .     A
C1034  N1065   1.366   .     A
C1034  H1064   1.082   .     S
C1034  C623    1.415   1_565 S
C1035  O1071   1.286   .     A
C1035  C1040   1.435   .     S
C1035  O1074   1.285   .     A
C1036  C1039   1.435   .     S
C1036  O1072   1.285   .     A
C1036  O1073   1.286   .     A
C1037  H1051   1.081   .     S
C1037  C1039   1.395   .     A
C1037  C1047   1.392   .     A
C1038  C1040   1.395   .     A
C1038  H1052   1.082   .     S
C1038  C1048   1.390   .     A
C1039  C1041   1.392   .     A
C1040  C1042   1.392   .     A
C1041  H1053   1.085   .     S
C1041  C1043   1.381   .     A
C1042  C1044   1.382   .     A
C1042  H1054   1.085   .     S
C1043  C1049   1.396   .     A
C1043  C1045   1.411   .     A
C1044  C1046   1.411   .     A
C1044  C1050   1.396   .     A
C1045  C1047   1.419   .     A
C1045  C434    1.394   1_556 S
C1046  C1048   1.419   .     A
C1049  H1055   1.084   .     S
C1049  C411    1.390   1_556 S
C1050  H1056   1.085   .     S
N1065  Zn1075  2.006   .     S
N1066  Zn1076  2.006   .     S
O1067  Zn1075  2.000   .     S
O1068  Zn1076  2.000   .     S
O1069  Zn1075  2.000   .     S
O1070  Zn1076  2.000   .     S
O1071  Zn1075  2.017   .     S
O1072  Zn1076  2.017   .     S
O1073  Zn1075  2.016   .     S
O1074  Zn1076  2.016   .     S
N1077  H1078   1.031   .     S
N1077  C1079   1.445   .     S
C1079  H1080   1.110   .     S
C1079  H1081   1.111   .     S
C1079  H1082   1.111   .     S
N1083  C1085   1.445   .     S
N1083  H1084   1.030   .     S
C1085  H1087   1.110   .     S
C1085  H1088   1.111   .     S
C1085  H678    1.110   1_565 S
C1089  O1138   1.281   .     A
C1089  O1135   1.281   .     A
C1089  C1098   1.419   .     S
C1090  O1137   1.281   .     A
C1090  O1136   1.281   .     A
C1090  C1097   1.419   .     S
C1091  C1116   1.415   .     A
C1091  N1145   1.424   .     S
C1092  N1151   1.424   .     S
C1092  C1115   1.415   .     A
C1092  C506    1.392   1_556 S
C1093  H1125   1.084   .     S
C1093  C1098   1.397   .     A
C1094  C1097   1.397   .     A
C1094  H1126   1.084   .     S
C1094  C1164   1.370   .     S
C1095  C1097   1.397   .     A
C1095  H1127   1.084   .     S
C1095  C1161   1.370   .     S
C1096  C1098   1.397   .     A
C1096  H1128   1.084   .     S
C1099  H1129   1.082   .     S
C1099  N1134   1.366   .     A
C1100  H1130   1.082   .     S
C1100  N1133   1.366   .     A
C1100  C693    1.415   1_565 S
C1101  H1131   1.082   .     S
C1101  N1134   1.366   .     A
C1102  N1133   1.366   .     A
C1102  H1132   1.082   .     S
C1102  C691    1.415   1_565 S
C1103  O1139   1.286   .     A
C1103  C1108   1.435   .     S
C1103  O1142   1.285   .     A
C1104  C1107   1.435   .     S
C1104  O1140   1.285   .     A
C1104  O1141   1.286   .     A
C1105  H1119   1.081   .     S
C1105  C1107   1.395   .     A
C1105  C1115   1.392   .     A
C1106  C1108   1.395   .     A
C1106  H1120   1.082   .     S
C1106  C1116   1.390   .     A
C1107  C1109   1.392   .     A
C1108  C1110   1.392   .     A
C1109  H1121   1.085   .     S
C1109  C1111   1.381   .     A
C1110  C1112   1.382   .     A
C1110  H1122   1.085   .     S
C1111  C1117   1.396   .     A
C1111  C1113   1.411   .     A
C1112  C1114   1.411   .     A
C1112  C1118   1.396   .     A
C1113  C1115   1.419   .     A
C1113  C502    1.394   1_556 S
C1114  C1116   1.419   .     A
C1117  H1123   1.084   .     S
C1117  C479    1.390   1_556 S
C1118  H1124   1.085   .     S
N1133  Zn1143  2.006   .     S
N1134  Zn1144  2.006   .     S
O1135  Zn1143  2.000   .     S
O1136  Zn1144  2.000   .     S
O1137  Zn1143  2.000   .     S
O1138  Zn1144  2.000   .     S
O1139  Zn1143  2.017   .     S
O1140  Zn1144  2.017   .     S
O1141  Zn1143  2.016   .     S
O1142  Zn1144  2.016   .     S
N1145  H1146   1.031   .     S
N1145  C1147   1.445   .     S
C1147  H1148   1.110   .     S
C1147  H1149   1.111   .     S
C1147  H1150   1.111   .     S
N1151  C1153   1.445   .     S
N1151  H1152   1.030   .     S
C1153  H1155   1.110   .     S
C1153  H1156   1.111   .     S
C1153  H746    1.110   1_565 S
C1157  O1206   1.281   .     A
C1157  O1203   1.281   .     A
C1157  C1166   1.419   .     S
C1158  O1205   1.281   .     A
C1158  O1204   1.281   .     A
C1158  C1165   1.419   .     S
C1159  C1184   1.415   .     A
C1159  N1213   1.424   .     S
C1160  N1219   1.424   .     S
C1160  C1183   1.415   .     A
C1160  C574    1.392   1_556 S
C1161  H1193   1.084   .     S
C1161  C1166   1.397   .     A
C1162  C1165   1.397   .     A
C1162  H1194   1.084   .     S
C1162  C1028   1.370   1_655 S
C1163  C1165   1.397   .     A
C1163  H1195   1.084   .     S
C1163  C1025   1.370   1_655 S
C1164  C1166   1.397   .     A
C1164  H1196   1.084   .     S
C1167  H1197   1.082   .     S
C1167  N1202   1.366   .     A
C1168  H1198   1.082   .     S
C1168  N1201   1.366   .     A
C1168  C761    1.415   1_565 S
C1169  H1199   1.082   .     S
C1169  N1202   1.366   .     A
C1170  N1201   1.366   .     A
C1170  H1200   1.082   .     S
C1170  C759    1.415   1_565 S
C1171  O1207   1.286   .     A
C1171  C1176   1.435   .     S
C1171  O1210   1.285   .     A
C1172  C1175   1.435   .     S
C1172  O1208   1.285   .     A
C1172  O1209   1.286   .     A
C1173  H1187   1.081   .     S
C1173  C1175   1.395   .     A
C1173  C1183   1.392   .     A
C1174  C1176   1.395   .     A
C1174  H1188   1.082   .     S
C1174  C1184   1.390   .     A
C1175  C1177   1.392   .     A
C1176  C1178   1.392   .     A
C1177  H1189   1.085   .     S
C1177  C1179   1.381   .     A
C1178  C1180   1.382   .     A
C1178  H1190   1.085   .     S
C1179  C1185   1.396   .     A
C1179  C1181   1.411   .     A
C1180  C1182   1.411   .     A
C1180  C1186   1.396   .     A
C1181  C1183   1.419   .     A
C1181  C570    1.394   1_556 S
C1182  C1184   1.419   .     A
C1185  H1191   1.084   .     S
C1185  C547    1.390   1_556 S
C1186  H1192   1.085   .     S
N1201  Zn1211  2.006   .     S
N1202  Zn1212  2.006   .     S
O1203  Zn1211  2.000   .     S
O1204  Zn1212  2.000   .     S
O1205  Zn1211  2.000   .     S
O1206  Zn1212  2.000   .     S
O1207  Zn1211  2.017   .     S
O1208  Zn1212  2.017   .     S
O1209  Zn1211  2.016   .     S
O1210  Zn1212  2.016   .     S
N1213  H1214   1.031   .     S
N1213  C1215   1.445   .     S
C1215  H1216   1.110   .     S
C1215  H1217   1.111   .     S
C1215  H1218   1.111   .     S
N1219  C1221   1.445   .     S
N1219  H1220   1.030   .     S
C1221  H1223   1.110   .     S
C1221  H1224   1.111   .     S
C1221  H814    1.110   1_565 S
