data_str_m2_o2_o10_pcu_sym.178
_audit_creation_date              2020-01-03
_audit_creation_method            'Materials Studio'
_symmetry_space_group_name_H-M    'P1'
_symmetry_Int_Tables_number       1
_symmetry_cell_setting            triclinic
loop_
_symmetry_equiv_pos_as_xyz
  x,y,z
_cell_length_a                    26.1378
_cell_length_b                    30.2677
_cell_length_c                    27.7025
_cell_angle_alpha                 90.0920
_cell_angle_beta                  98.0254
_cell_angle_gamma                 89.8711
loop_
_atom_site_label
_atom_site_type_symbol
_atom_site_fract_x
_atom_site_fract_y
_atom_site_fract_z
_atom_site_U_iso_or_equiv
_atom_site_adp_type
_atom_site_occupancy
C1     C     0.16677   0.16515   0.24994   0.00000  Uiso   1.00
C2     C     0.16632   0.33507   0.24999   0.00000  Uiso   1.00
C3     C     0.20679   0.23139   0.05872   0.00000  Uiso   1.00
C4     C     0.12440   0.23539   0.44102   0.00000  Uiso   1.00
C5     C     0.20627   0.23112   0.10941   0.00000  Uiso   1.00
C6     C     0.12493   0.23508   0.39033   0.00000  Uiso   1.00
C7     C     0.12681   0.26954   0.09988   0.00000  Uiso   1.00
C8     C     0.20866   0.26573   0.40058   0.00000  Uiso   1.00
C9     C     0.12546   0.27071   0.04867   0.00000  Uiso   1.00
C10    C     0.21011   0.26680   0.45183   0.00000  Uiso   1.00
C11    C     0.16630   0.25124   0.02729   0.00000  Uiso   1.00
C12    C     0.16711   0.25125   0.47284   0.00000  Uiso   1.00
C13    C     0.06787   0.24990   0.23752   0.00000  Uiso   1.00
C14    C     0.26546   0.25005   0.26247   0.00000  Uiso   1.00
C15    C     0.01258   0.24970   0.23064   0.00000  Uiso   1.00
C16    C     0.32076   0.25022   0.26936   0.00000  Uiso   1.00
C17    C     0.12395   0.04815   0.26189   0.00000  Uiso   1.00
C18    C     0.19033   0.45267   0.21576   0.00000  Uiso   1.00
C19    C     0.12400   0.09465   0.26376   0.00000  Uiso   1.00
C20    C     0.19120   0.40667   0.21606   0.00000  Uiso   1.00
C21    C     0.16657   0.11716   0.24974   0.00000  Uiso   1.00
C22    C     0.16595   0.38345   0.25005   0.00000  Uiso   1.00
C23    C     0.20924   0.09402   0.23652   0.00000  Uiso   1.00
C24    C     0.14139   0.40697   0.28454   0.00000  Uiso   1.00
C25    C     0.21000   0.04804   0.23870   0.00000  Uiso   1.00
C26    C     0.14371   0.45301   0.28544   0.00000  Uiso   1.00
C27    C     0.16721   0.02483   0.25062   0.00000  Uiso   1.00
C28    C     0.16732   0.47615   0.25073   0.00000  Uiso   1.00
Cu29   Cu    0.16667   0.25000   0.29821   0.00000  Uiso   1.00
Cu30   Cu    0.16667   0.25001   0.20178   0.00000  Uiso   1.00
H31    H     0.32585   0.24908   0.19352   0.00000  Uiso   1.00
H32    H     0.00749   0.25078   0.30648   0.00000  Uiso   1.00
H33    H     0.09006   0.02993   0.26830   0.00000  Uiso   1.00
H34    H     0.20767   0.46987   0.18789   0.00000  Uiso   1.00
H35    H     0.24404   0.03059   0.23064   0.00000  Uiso   1.00
H36    H     0.12621   0.47069   0.31299   0.00000  Uiso   1.00
H37    H     0.23861   0.21572   0.04409   0.00000  Uiso   1.00
H38    H     0.09078   0.22286   0.45533   0.00000  Uiso   1.00
H39    H     0.23782   0.21568   0.13277   0.00000  Uiso   1.00
H40    H     0.09157   0.22295   0.36679   0.00000  Uiso   1.00
H41    H     0.09595   0.28494   0.11614   0.00000  Uiso   1.00
H42    H     0.24127   0.27826   0.38479   0.00000  Uiso   1.00
N43    N     0.16667   0.25001   0.12934   0.00000  Uiso   1.00
N44    N     0.16667   0.24999   0.37065   0.00000  Uiso   1.00
O45    O     0.16667   0.18573   0.29071   0.00000  Uiso   1.00
O46    O     0.16666   0.31427   0.20928   0.00000  Uiso   1.00
O47    O     0.16667   0.18573   0.20928   0.00000  Uiso   1.00
O48    O     0.16666   0.31427   0.29072   0.00000  Uiso   1.00
O49    O     0.09161   0.24999   0.28132   0.00000  Uiso   1.00
O50    O     0.24172   0.25001   0.21868   0.00000  Uiso   1.00
O51    O     0.09161   0.25000   0.19988   0.00000  Uiso   1.00
O52    O     0.24172   0.25000   0.30011   0.00000  Uiso   1.00
O53    O     0.08203   0.11958   0.27462   0.00000  Uiso   1.00
C54    C     0.05495   0.09889   0.30914   0.00000  Uiso   1.00
H55    H     0.08168   0.08311   0.33913   0.00000  Uiso   1.00
H56    H     0.02793   0.07380   0.29078   0.00000  Uiso   1.00
C57    C     0.02308   0.13329   0.33185   0.00000  Uiso   1.00
H58    H     0.33082   0.11676   0.35504   0.00000  Uiso   1.00
H59    H     0.04904   0.15615   0.35491   0.00000  Uiso   1.00
H60    H     0.33226   0.15254   0.30307   0.00000  Uiso   1.00
O61    O     0.21476   0.38463   0.18130   0.00000  Uiso   1.00
C62    C     0.26723   0.37764   0.20000   0.00000  Uiso   1.00
H63    H     0.27124   0.35880   0.23489   0.00000  Uiso   1.00
H64    H     0.28797   0.40972   0.20612   0.00000  Uiso   1.00
C65    C     0.29270   0.35084   0.16337   0.00000  Uiso   1.00
H66    H     0.29077   0.36921   0.12848   0.00000  Uiso   1.00
H67    H     0.00052   0.34457   0.17794   0.00000  Uiso   1.00
H68    H     0.27262   0.31868   0.15638   0.00000  Uiso   1.00
N69    N     0.25228   0.11703   0.22266   0.00000  Uiso   1.00
H70    H     0.28713   0.10480   0.23931   0.00000  Uiso   1.00
C71    C     0.25160   0.12044   0.17051   0.00000  Uiso   1.00
H72    H     0.25632   0.08723   0.15449   0.00000  Uiso   1.00
H73    H     0.28393   0.14183   0.16276   0.00000  Uiso   1.00
H74    H     0.21473   0.13527   0.15303   0.00000  Uiso   1.00
N75    N     0.11346   0.38468   0.31784   0.00000  Uiso   1.00
H76    H     0.11354   0.40089   0.35063   0.00000  Uiso   1.00
C77    C     0.06204   0.37096   0.29705   0.00000  Uiso   1.00
H78    H     0.03744   0.40033   0.28647   0.00000  Uiso   1.00
H79    H     0.04433   0.35155   0.32437   0.00000  Uiso   1.00
H80    H     0.06339   0.34975   0.26451   0.00000  Uiso   1.00
N81    N     0.08297   0.29135   0.01940   0.00000  Uiso   1.00
H82    H     0.04900   0.29023   0.03438   0.00000  Uiso   1.00
C83    C     0.09350   0.33523   0.00273   0.00000  Uiso   1.00
H84    H     0.05862   0.34828   0.47963   0.00000  Uiso   1.00
H85    H     0.12562   0.33454   0.48044   0.00000  Uiso   1.00
H86    H     0.10356   0.35774   0.03436   0.00000  Uiso   1.00
N87    N     0.25493   0.28327   0.48151   0.00000  Uiso   1.00
H88    H     0.28853   0.27923   0.46637   0.00000  Uiso   1.00
C89    C     0.24983   0.32769   0.49963   0.00000  Uiso   1.00
H90    H     0.28618   0.33729   0.02295   0.00000  Uiso   1.00
H91    H     0.21796   0.32969   0.02213   0.00000  Uiso   1.00
H92    H     0.24240   0.35131   0.46875   0.00000  Uiso   1.00
C93    C     0.50010   0.16515   0.24994   0.00000  Uiso   1.00
C94    C     0.49965   0.33507   0.24999   0.00000  Uiso   1.00
C95    C     0.54013   0.23139   0.05872   0.00000  Uiso   1.00
C96    C     0.45774   0.23539   0.44102   0.00000  Uiso   1.00
C97    C     0.53960   0.23112   0.10941   0.00000  Uiso   1.00
C98    C     0.45826   0.23508   0.39033   0.00000  Uiso   1.00
C99    C     0.46014   0.26954   0.09988   0.00000  Uiso   1.00
C100   C     0.54199   0.26573   0.40058   0.00000  Uiso   1.00
C101   C     0.45879   0.27071   0.04867   0.00000  Uiso   1.00
C102   C     0.54344   0.26680   0.45183   0.00000  Uiso   1.00
C103   C     0.49963   0.25124   0.02729   0.00000  Uiso   1.00
C104   C     0.50044   0.25125   0.47284   0.00000  Uiso   1.00
C105   C     0.40120   0.24990   0.23752   0.00000  Uiso   1.00
C106   C     0.59880   0.25005   0.26247   0.00000  Uiso   1.00
C107   C     0.34591   0.24970   0.23064   0.00000  Uiso   1.00
C108   C     0.65409   0.25022   0.26936   0.00000  Uiso   1.00
C109   C     0.45729   0.04815   0.26189   0.00000  Uiso   1.00
C110   C     0.52366   0.45267   0.21576   0.00000  Uiso   1.00
C111   C     0.45733   0.09465   0.26376   0.00000  Uiso   1.00
C112   C     0.52453   0.40667   0.21606   0.00000  Uiso   1.00
C113   C     0.49990   0.11716   0.24974   0.00000  Uiso   1.00
C114   C     0.49929   0.38345   0.25005   0.00000  Uiso   1.00
C115   C     0.54257   0.09402   0.23652   0.00000  Uiso   1.00
C116   C     0.47472   0.40697   0.28454   0.00000  Uiso   1.00
C117   C     0.54333   0.04804   0.23870   0.00000  Uiso   1.00
C118   C     0.47704   0.45301   0.28544   0.00000  Uiso   1.00
C119   C     0.50054   0.02483   0.25062   0.00000  Uiso   1.00
C120   C     0.50065   0.47615   0.25073   0.00000  Uiso   1.00
Cu121  Cu    0.50000   0.25000   0.29821   0.00000  Uiso   1.00
Cu122  Cu    0.50000   0.25001   0.20178   0.00000  Uiso   1.00
H123   H     0.65918   0.24908   0.19352   0.00000  Uiso   1.00
H124   H     0.34082   0.25078   0.30648   0.00000  Uiso   1.00
H125   H     0.42339   0.02993   0.26830   0.00000  Uiso   1.00
H126   H     0.54101   0.46987   0.18789   0.00000  Uiso   1.00
H127   H     0.57737   0.03059   0.23064   0.00000  Uiso   1.00
H128   H     0.45954   0.47069   0.31299   0.00000  Uiso   1.00
H129   H     0.57194   0.21572   0.04409   0.00000  Uiso   1.00
H130   H     0.42412   0.22286   0.45533   0.00000  Uiso   1.00
H131   H     0.57115   0.21568   0.13277   0.00000  Uiso   1.00
H132   H     0.42491   0.22295   0.36679   0.00000  Uiso   1.00
H133   H     0.42928   0.28494   0.11614   0.00000  Uiso   1.00
H134   H     0.57460   0.27826   0.38479   0.00000  Uiso   1.00
N135   N     0.50000   0.25001   0.12934   0.00000  Uiso   1.00
N136   N     0.50000   0.24999   0.37065   0.00000  Uiso   1.00
O137   O     0.50000   0.18573   0.29071   0.00000  Uiso   1.00
O138   O     0.50000   0.31427   0.20928   0.00000  Uiso   1.00
O139   O     0.50000   0.18573   0.20928   0.00000  Uiso   1.00
O140   O     0.50000   0.31427   0.29072   0.00000  Uiso   1.00
O141   O     0.42495   0.24999   0.28132   0.00000  Uiso   1.00
O142   O     0.57505   0.25001   0.21868   0.00000  Uiso   1.00
O143   O     0.42495   0.25000   0.19988   0.00000  Uiso   1.00
O144   O     0.57505   0.25000   0.30011   0.00000  Uiso   1.00
O145   O     0.41536   0.11958   0.27462   0.00000  Uiso   1.00
C146   C     0.38828   0.09889   0.30914   0.00000  Uiso   1.00
H147   H     0.41501   0.08311   0.33913   0.00000  Uiso   1.00
H148   H     0.36126   0.07380   0.29078   0.00000  Uiso   1.00
C149   C     0.35641   0.13329   0.33185   0.00000  Uiso   1.00
H150   H     0.66415   0.11676   0.35504   0.00000  Uiso   1.00
H151   H     0.38237   0.15615   0.35491   0.00000  Uiso   1.00
H152   H     0.66559   0.15254   0.30307   0.00000  Uiso   1.00
O153   O     0.54809   0.38463   0.18130   0.00000  Uiso   1.00
C154   C     0.60056   0.37764   0.20000   0.00000  Uiso   1.00
H155   H     0.60457   0.35880   0.23489   0.00000  Uiso   1.00
H156   H     0.62130   0.40972   0.20612   0.00000  Uiso   1.00
C157   C     0.62604   0.35084   0.16337   0.00000  Uiso   1.00
H158   H     0.62411   0.36921   0.12848   0.00000  Uiso   1.00
H159   H     0.33385   0.34457   0.17794   0.00000  Uiso   1.00
H160   H     0.60595   0.31868   0.15638   0.00000  Uiso   1.00
N161   N     0.58562   0.11703   0.22266   0.00000  Uiso   1.00
H162   H     0.62047   0.10480   0.23931   0.00000  Uiso   1.00
C163   C     0.58493   0.12044   0.17051   0.00000  Uiso   1.00
H164   H     0.58966   0.08723   0.15449   0.00000  Uiso   1.00
H165   H     0.61727   0.14183   0.16276   0.00000  Uiso   1.00
H166   H     0.54807   0.13527   0.15303   0.00000  Uiso   1.00
N167   N     0.44679   0.38468   0.31784   0.00000  Uiso   1.00
H168   H     0.44687   0.40089   0.35063   0.00000  Uiso   1.00
C169   C     0.39537   0.37096   0.29705   0.00000  Uiso   1.00
H170   H     0.37077   0.40033   0.28647   0.00000  Uiso   1.00
H171   H     0.37766   0.35155   0.32437   0.00000  Uiso   1.00
H172   H     0.39673   0.34975   0.26451   0.00000  Uiso   1.00
N173   N     0.41630   0.29135   0.01940   0.00000  Uiso   1.00
H174   H     0.38233   0.29023   0.03438   0.00000  Uiso   1.00
C175   C     0.42683   0.33523   0.00273   0.00000  Uiso   1.00
H176   H     0.39195   0.34828   0.47963   0.00000  Uiso   1.00
H177   H     0.45895   0.33454   0.48044   0.00000  Uiso   1.00
H178   H     0.43689   0.35774   0.03436   0.00000  Uiso   1.00
N179   N     0.58826   0.28327   0.48151   0.00000  Uiso   1.00
H180   H     0.62187   0.27923   0.46637   0.00000  Uiso   1.00
C181   C     0.58317   0.32769   0.49963   0.00000  Uiso   1.00
H182   H     0.61951   0.33729   0.02295   0.00000  Uiso   1.00
H183   H     0.55129   0.32969   0.02213   0.00000  Uiso   1.00
H184   H     0.57573   0.35131   0.46875   0.00000  Uiso   1.00
C185   C     0.83343   0.16515   0.24994   0.00000  Uiso   1.00
C186   C     0.83299   0.33507   0.24999   0.00000  Uiso   1.00
C187   C     0.87346   0.23139   0.05872   0.00000  Uiso   1.00
C188   C     0.79107   0.23539   0.44102   0.00000  Uiso   1.00
C189   C     0.87294   0.23112   0.10941   0.00000  Uiso   1.00
C190   C     0.79159   0.23508   0.39033   0.00000  Uiso   1.00
C191   C     0.79347   0.26954   0.09988   0.00000  Uiso   1.00
C192   C     0.87532   0.26573   0.40058   0.00000  Uiso   1.00
C193   C     0.79212   0.27071   0.04867   0.00000  Uiso   1.00
C194   C     0.87678   0.26680   0.45183   0.00000  Uiso   1.00
C195   C     0.83296   0.25124   0.02729   0.00000  Uiso   1.00
C196   C     0.83377   0.25125   0.47284   0.00000  Uiso   1.00
C197   C     0.73454   0.24990   0.23752   0.00000  Uiso   1.00
C198   C     0.93213   0.25005   0.26247   0.00000  Uiso   1.00
C199   C     0.67924   0.24970   0.23064   0.00000  Uiso   1.00
C200   C     0.98742   0.25022   0.26936   0.00000  Uiso   1.00
C201   C     0.79062   0.04815   0.26189   0.00000  Uiso   1.00
C202   C     0.85699   0.45267   0.21576   0.00000  Uiso   1.00
C203   C     0.79066   0.09465   0.26376   0.00000  Uiso   1.00
C204   C     0.85787   0.40667   0.21606   0.00000  Uiso   1.00
C205   C     0.83324   0.11716   0.24974   0.00000  Uiso   1.00
C206   C     0.83262   0.38345   0.25005   0.00000  Uiso   1.00
C207   C     0.87591   0.09402   0.23652   0.00000  Uiso   1.00
C208   C     0.80806   0.40697   0.28454   0.00000  Uiso   1.00
C209   C     0.87667   0.04804   0.23870   0.00000  Uiso   1.00
C210   C     0.81038   0.45301   0.28544   0.00000  Uiso   1.00
C211   C     0.83388   0.02483   0.25062   0.00000  Uiso   1.00
C212   C     0.83399   0.47615   0.25073   0.00000  Uiso   1.00
Cu213  Cu    0.83333   0.25000   0.29821   0.00000  Uiso   1.00
Cu214  Cu    0.83333   0.25001   0.20178   0.00000  Uiso   1.00
H215   H     0.99251   0.24908   0.19352   0.00000  Uiso   1.00
H216   H     0.67416   0.25078   0.30648   0.00000  Uiso   1.00
H217   H     0.75672   0.02993   0.26830   0.00000  Uiso   1.00
H218   H     0.87434   0.46987   0.18789   0.00000  Uiso   1.00
H219   H     0.91070   0.03059   0.23064   0.00000  Uiso   1.00
H220   H     0.79288   0.47069   0.31299   0.00000  Uiso   1.00
H221   H     0.90527   0.21572   0.04409   0.00000  Uiso   1.00
H222   H     0.75745   0.22286   0.45533   0.00000  Uiso   1.00
H223   H     0.90448   0.21568   0.13277   0.00000  Uiso   1.00
H224   H     0.75824   0.22295   0.36679   0.00000  Uiso   1.00
H225   H     0.76262   0.28494   0.11614   0.00000  Uiso   1.00
H226   H     0.90794   0.27826   0.38479   0.00000  Uiso   1.00
N227   N     0.83333   0.25001   0.12934   0.00000  Uiso   1.00
N228   N     0.83333   0.24999   0.37065   0.00000  Uiso   1.00
O229   O     0.83334   0.18573   0.29071   0.00000  Uiso   1.00
O230   O     0.83333   0.31427   0.20928   0.00000  Uiso   1.00
O231   O     0.83334   0.18573   0.20928   0.00000  Uiso   1.00
O232   O     0.83333   0.31427   0.29072   0.00000  Uiso   1.00
O233   O     0.75828   0.24999   0.28132   0.00000  Uiso   1.00
O234   O     0.90839   0.25001   0.21868   0.00000  Uiso   1.00
O235   O     0.75828   0.25000   0.19988   0.00000  Uiso   1.00
O236   O     0.90839   0.25000   0.30011   0.00000  Uiso   1.00
O237   O     0.74869   0.11958   0.27462   0.00000  Uiso   1.00
C238   C     0.72161   0.09889   0.30914   0.00000  Uiso   1.00
H239   H     0.74835   0.08311   0.33913   0.00000  Uiso   1.00
H240   H     0.69460   0.07380   0.29078   0.00000  Uiso   1.00
C241   C     0.68974   0.13329   0.33185   0.00000  Uiso   1.00
H242   H     0.99749   0.11676   0.35504   0.00000  Uiso   1.00
H243   H     0.71570   0.15615   0.35491   0.00000  Uiso   1.00
H244   H     0.99893   0.15254   0.30307   0.00000  Uiso   1.00
O245   O     0.88142   0.38463   0.18130   0.00000  Uiso   1.00
C246   C     0.93389   0.37764   0.20000   0.00000  Uiso   1.00
H247   H     0.93790   0.35880   0.23489   0.00000  Uiso   1.00
H248   H     0.95463   0.40972   0.20612   0.00000  Uiso   1.00
C249   C     0.95937   0.35084   0.16337   0.00000  Uiso   1.00
H250   H     0.95744   0.36921   0.12848   0.00000  Uiso   1.00
H251   H     0.66718   0.34457   0.17794   0.00000  Uiso   1.00
H252   H     0.93929   0.31868   0.15638   0.00000  Uiso   1.00
N253   N     0.91895   0.11703   0.22266   0.00000  Uiso   1.00
H254   H     0.95380   0.10480   0.23931   0.00000  Uiso   1.00
C255   C     0.91826   0.12044   0.17051   0.00000  Uiso   1.00
H256   H     0.92299   0.08723   0.15449   0.00000  Uiso   1.00
H257   H     0.95060   0.14183   0.16276   0.00000  Uiso   1.00
H258   H     0.88140   0.13527   0.15303   0.00000  Uiso   1.00
N259   N     0.78012   0.38468   0.31784   0.00000  Uiso   1.00
H260   H     0.78021   0.40089   0.35063   0.00000  Uiso   1.00
C261   C     0.72871   0.37096   0.29705   0.00000  Uiso   1.00
H262   H     0.70410   0.40033   0.28647   0.00000  Uiso   1.00
H263   H     0.71099   0.35155   0.32437   0.00000  Uiso   1.00
H264   H     0.73006   0.34975   0.26451   0.00000  Uiso   1.00
N265   N     0.74964   0.29135   0.01940   0.00000  Uiso   1.00
H266   H     0.71566   0.29023   0.03438   0.00000  Uiso   1.00
C267   C     0.76016   0.33523   0.00273   0.00000  Uiso   1.00
H268   H     0.72528   0.34828   0.47963   0.00000  Uiso   1.00
H269   H     0.79228   0.33454   0.48044   0.00000  Uiso   1.00
H270   H     0.77022   0.35774   0.03436   0.00000  Uiso   1.00
N271   N     0.92159   0.28327   0.48151   0.00000  Uiso   1.00
H272   H     0.95520   0.27923   0.46637   0.00000  Uiso   1.00
C273   C     0.91650   0.32769   0.49963   0.00000  Uiso   1.00
H274   H     0.95285   0.33729   0.02295   0.00000  Uiso   1.00
H275   H     0.88462   0.32969   0.02213   0.00000  Uiso   1.00
H276   H     0.90906   0.35131   0.46875   0.00000  Uiso   1.00
C277   C     0.16677   0.66515   0.24994   0.00000  Uiso   1.00
C278   C     0.16632   0.83507   0.24999   0.00000  Uiso   1.00
C279   C     0.20679   0.73139   0.05872   0.00000  Uiso   1.00
C280   C     0.12440   0.73539   0.44102   0.00000  Uiso   1.00
C281   C     0.20627   0.73112   0.10941   0.00000  Uiso   1.00
C282   C     0.12493   0.73508   0.39033   0.00000  Uiso   1.00
C283   C     0.12681   0.76954   0.09988   0.00000  Uiso   1.00
C284   C     0.20866   0.76573   0.40058   0.00000  Uiso   1.00
C285   C     0.12546   0.77071   0.04867   0.00000  Uiso   1.00
C286   C     0.21011   0.76680   0.45183   0.00000  Uiso   1.00
C287   C     0.16630   0.75124   0.02729   0.00000  Uiso   1.00
C288   C     0.16711   0.75125   0.47284   0.00000  Uiso   1.00
C289   C     0.06787   0.74990   0.23752   0.00000  Uiso   1.00
C290   C     0.26546   0.75005   0.26247   0.00000  Uiso   1.00
C291   C     0.01258   0.74970   0.23064   0.00000  Uiso   1.00
C292   C     0.32076   0.75022   0.26936   0.00000  Uiso   1.00
C293   C     0.12395   0.54815   0.26189   0.00000  Uiso   1.00
C294   C     0.19033   0.95267   0.21576   0.00000  Uiso   1.00
C295   C     0.12400   0.59465   0.26376   0.00000  Uiso   1.00
C296   C     0.19120   0.90667   0.21606   0.00000  Uiso   1.00
C297   C     0.16657   0.61716   0.24974   0.00000  Uiso   1.00
C298   C     0.16595   0.88345   0.25005   0.00000  Uiso   1.00
C299   C     0.20924   0.59402   0.23652   0.00000  Uiso   1.00
C300   C     0.14139   0.90697   0.28454   0.00000  Uiso   1.00
C301   C     0.21000   0.54804   0.23870   0.00000  Uiso   1.00
C302   C     0.14371   0.95301   0.28544   0.00000  Uiso   1.00
C303   C     0.16721   0.52483   0.25062   0.00000  Uiso   1.00
C304   C     0.16732   0.97615   0.25073   0.00000  Uiso   1.00
Cu305  Cu    0.16667   0.75000   0.29821   0.00000  Uiso   1.00
Cu306  Cu    0.16667   0.75001   0.20178   0.00000  Uiso   1.00
H307   H     0.32585   0.74908   0.19352   0.00000  Uiso   1.00
H308   H     0.00749   0.75078   0.30648   0.00000  Uiso   1.00
H309   H     0.09006   0.52993   0.26830   0.00000  Uiso   1.00
H310   H     0.20767   0.96987   0.18789   0.00000  Uiso   1.00
H311   H     0.24404   0.53059   0.23064   0.00000  Uiso   1.00
H312   H     0.12621   0.97069   0.31299   0.00000  Uiso   1.00
H313   H     0.23861   0.71572   0.04409   0.00000  Uiso   1.00
H314   H     0.09078   0.72286   0.45533   0.00000  Uiso   1.00
H315   H     0.23782   0.71568   0.13277   0.00000  Uiso   1.00
H316   H     0.09157   0.72295   0.36679   0.00000  Uiso   1.00
H317   H     0.09595   0.78494   0.11614   0.00000  Uiso   1.00
H318   H     0.24127   0.77826   0.38479   0.00000  Uiso   1.00
N319   N     0.16667   0.75001   0.12934   0.00000  Uiso   1.00
N320   N     0.16667   0.74999   0.37065   0.00000  Uiso   1.00
O321   O     0.16667   0.68573   0.29071   0.00000  Uiso   1.00
O322   O     0.16666   0.81427   0.20928   0.00000  Uiso   1.00
O323   O     0.16667   0.68573   0.20928   0.00000  Uiso   1.00
O324   O     0.16666   0.81427   0.29072   0.00000  Uiso   1.00
O325   O     0.09161   0.74999   0.28132   0.00000  Uiso   1.00
O326   O     0.24172   0.75001   0.21868   0.00000  Uiso   1.00
O327   O     0.09161   0.75000   0.19988   0.00000  Uiso   1.00
O328   O     0.24172   0.75000   0.30011   0.00000  Uiso   1.00
O329   O     0.08203   0.61958   0.27462   0.00000  Uiso   1.00
C330   C     0.05495   0.59889   0.30914   0.00000  Uiso   1.00
H331   H     0.08168   0.58311   0.33913   0.00000  Uiso   1.00
H332   H     0.02793   0.57380   0.29078   0.00000  Uiso   1.00
C333   C     0.02308   0.63329   0.33185   0.00000  Uiso   1.00
H334   H     0.33082   0.61676   0.35504   0.00000  Uiso   1.00
H335   H     0.04904   0.65615   0.35491   0.00000  Uiso   1.00
H336   H     0.33226   0.65254   0.30307   0.00000  Uiso   1.00
O337   O     0.21476   0.88463   0.18130   0.00000  Uiso   1.00
C338   C     0.26723   0.87764   0.20000   0.00000  Uiso   1.00
H339   H     0.27124   0.85880   0.23489   0.00000  Uiso   1.00
H340   H     0.28797   0.90972   0.20612   0.00000  Uiso   1.00
C341   C     0.29270   0.85084   0.16337   0.00000  Uiso   1.00
H342   H     0.29077   0.86921   0.12848   0.00000  Uiso   1.00
H343   H     0.00052   0.84457   0.17794   0.00000  Uiso   1.00
H344   H     0.27262   0.81868   0.15638   0.00000  Uiso   1.00
N345   N     0.25228   0.61703   0.22266   0.00000  Uiso   1.00
H346   H     0.28713   0.60480   0.23931   0.00000  Uiso   1.00
C347   C     0.25160   0.62044   0.17051   0.00000  Uiso   1.00
H348   H     0.25632   0.58723   0.15449   0.00000  Uiso   1.00
H349   H     0.28393   0.64183   0.16276   0.00000  Uiso   1.00
H350   H     0.21473   0.63527   0.15303   0.00000  Uiso   1.00
N351   N     0.11346   0.88468   0.31784   0.00000  Uiso   1.00
H352   H     0.11354   0.90089   0.35063   0.00000  Uiso   1.00
C353   C     0.06204   0.87096   0.29705   0.00000  Uiso   1.00
H354   H     0.03744   0.90033   0.28647   0.00000  Uiso   1.00
H355   H     0.04433   0.85155   0.32437   0.00000  Uiso   1.00
H356   H     0.06339   0.84975   0.26451   0.00000  Uiso   1.00
N357   N     0.08297   0.79135   0.01940   0.00000  Uiso   1.00
H358   H     0.04900   0.79023   0.03438   0.00000  Uiso   1.00
C359   C     0.09350   0.83523   0.00273   0.00000  Uiso   1.00
H360   H     0.05862   0.84828   0.47963   0.00000  Uiso   1.00
H361   H     0.12562   0.83454   0.48044   0.00000  Uiso   1.00
H362   H     0.10356   0.85774   0.03436   0.00000  Uiso   1.00
N363   N     0.25493   0.78327   0.48151   0.00000  Uiso   1.00
H364   H     0.28853   0.77923   0.46637   0.00000  Uiso   1.00
C365   C     0.24983   0.82769   0.49963   0.00000  Uiso   1.00
H366   H     0.28618   0.83729   0.02295   0.00000  Uiso   1.00
H367   H     0.21796   0.82969   0.02213   0.00000  Uiso   1.00
H368   H     0.24240   0.85131   0.46875   0.00000  Uiso   1.00
C369   C     0.50010   0.66515   0.24994   0.00000  Uiso   1.00
C370   C     0.49965   0.83507   0.24999   0.00000  Uiso   1.00
C371   C     0.54013   0.73139   0.05872   0.00000  Uiso   1.00
C372   C     0.45774   0.73539   0.44102   0.00000  Uiso   1.00
C373   C     0.53960   0.73112   0.10941   0.00000  Uiso   1.00
C374   C     0.45826   0.73508   0.39033   0.00000  Uiso   1.00
C375   C     0.46014   0.76954   0.09988   0.00000  Uiso   1.00
C376   C     0.54199   0.76573   0.40058   0.00000  Uiso   1.00
C377   C     0.45879   0.77071   0.04867   0.00000  Uiso   1.00
C378   C     0.54344   0.76680   0.45183   0.00000  Uiso   1.00
C379   C     0.49963   0.75124   0.02729   0.00000  Uiso   1.00
C380   C     0.50044   0.75125   0.47284   0.00000  Uiso   1.00
C381   C     0.40120   0.74990   0.23752   0.00000  Uiso   1.00
C382   C     0.59880   0.75005   0.26247   0.00000  Uiso   1.00
C383   C     0.34591   0.74970   0.23064   0.00000  Uiso   1.00
C384   C     0.65409   0.75022   0.26936   0.00000  Uiso   1.00
C385   C     0.45729   0.54815   0.26189   0.00000  Uiso   1.00
C386   C     0.52366   0.95267   0.21576   0.00000  Uiso   1.00
C387   C     0.45733   0.59465   0.26376   0.00000  Uiso   1.00
C388   C     0.52453   0.90667   0.21606   0.00000  Uiso   1.00
C389   C     0.49990   0.61716   0.24974   0.00000  Uiso   1.00
C390   C     0.49929   0.88345   0.25005   0.00000  Uiso   1.00
C391   C     0.54257   0.59402   0.23652   0.00000  Uiso   1.00
C392   C     0.47472   0.90697   0.28454   0.00000  Uiso   1.00
C393   C     0.54333   0.54804   0.23870   0.00000  Uiso   1.00
C394   C     0.47704   0.95301   0.28544   0.00000  Uiso   1.00
C395   C     0.50054   0.52483   0.25062   0.00000  Uiso   1.00
C396   C     0.50065   0.97615   0.25073   0.00000  Uiso   1.00
Cu397  Cu    0.50000   0.75000   0.29821   0.00000  Uiso   1.00
Cu398  Cu    0.50000   0.75001   0.20178   0.00000  Uiso   1.00
H399   H     0.65918   0.74908   0.19352   0.00000  Uiso   1.00
H400   H     0.34082   0.75078   0.30648   0.00000  Uiso   1.00
H401   H     0.42339   0.52993   0.26830   0.00000  Uiso   1.00
H402   H     0.54101   0.96987   0.18789   0.00000  Uiso   1.00
H403   H     0.57737   0.53059   0.23064   0.00000  Uiso   1.00
H404   H     0.45954   0.97069   0.31299   0.00000  Uiso   1.00
H405   H     0.57194   0.71572   0.04409   0.00000  Uiso   1.00
H406   H     0.42412   0.72286   0.45533   0.00000  Uiso   1.00
H407   H     0.57115   0.71568   0.13277   0.00000  Uiso   1.00
H408   H     0.42491   0.72295   0.36679   0.00000  Uiso   1.00
H409   H     0.42928   0.78494   0.11614   0.00000  Uiso   1.00
H410   H     0.57460   0.77826   0.38479   0.00000  Uiso   1.00
N411   N     0.50000   0.75001   0.12934   0.00000  Uiso   1.00
N412   N     0.50000   0.74999   0.37065   0.00000  Uiso   1.00
O413   O     0.50000   0.68573   0.29071   0.00000  Uiso   1.00
O414   O     0.50000   0.81427   0.20928   0.00000  Uiso   1.00
O415   O     0.50000   0.68573   0.20928   0.00000  Uiso   1.00
O416   O     0.50000   0.81427   0.29072   0.00000  Uiso   1.00
O417   O     0.42495   0.74999   0.28132   0.00000  Uiso   1.00
O418   O     0.57505   0.75001   0.21868   0.00000  Uiso   1.00
O419   O     0.42495   0.75000   0.19988   0.00000  Uiso   1.00
O420   O     0.57505   0.75000   0.30011   0.00000  Uiso   1.00
O421   O     0.41536   0.61958   0.27462   0.00000  Uiso   1.00
C422   C     0.38828   0.59889   0.30914   0.00000  Uiso   1.00
H423   H     0.41501   0.58311   0.33913   0.00000  Uiso   1.00
H424   H     0.36126   0.57380   0.29078   0.00000  Uiso   1.00
C425   C     0.35641   0.63329   0.33185   0.00000  Uiso   1.00
H426   H     0.66415   0.61676   0.35504   0.00000  Uiso   1.00
H427   H     0.38237   0.65615   0.35491   0.00000  Uiso   1.00
H428   H     0.66559   0.65254   0.30307   0.00000  Uiso   1.00
O429   O     0.54809   0.88463   0.18130   0.00000  Uiso   1.00
C430   C     0.60056   0.87764   0.20000   0.00000  Uiso   1.00
H431   H     0.60457   0.85880   0.23489   0.00000  Uiso   1.00
H432   H     0.62130   0.90972   0.20612   0.00000  Uiso   1.00
C433   C     0.62604   0.85084   0.16337   0.00000  Uiso   1.00
H434   H     0.62411   0.86921   0.12848   0.00000  Uiso   1.00
H435   H     0.33385   0.84457   0.17794   0.00000  Uiso   1.00
H436   H     0.60595   0.81868   0.15638   0.00000  Uiso   1.00
N437   N     0.58562   0.61703   0.22266   0.00000  Uiso   1.00
H438   H     0.62047   0.60480   0.23931   0.00000  Uiso   1.00
C439   C     0.58493   0.62044   0.17051   0.00000  Uiso   1.00
H440   H     0.58966   0.58723   0.15449   0.00000  Uiso   1.00
H441   H     0.61727   0.64183   0.16276   0.00000  Uiso   1.00
H442   H     0.54807   0.63527   0.15303   0.00000  Uiso   1.00
N443   N     0.44679   0.88468   0.31784   0.00000  Uiso   1.00
H444   H     0.44687   0.90089   0.35063   0.00000  Uiso   1.00
C445   C     0.39537   0.87096   0.29705   0.00000  Uiso   1.00
H446   H     0.37077   0.90033   0.28647   0.00000  Uiso   1.00
H447   H     0.37766   0.85155   0.32437   0.00000  Uiso   1.00
H448   H     0.39673   0.84975   0.26451   0.00000  Uiso   1.00
N449   N     0.41630   0.79135   0.01940   0.00000  Uiso   1.00
H450   H     0.38233   0.79023   0.03438   0.00000  Uiso   1.00
C451   C     0.42683   0.83523   0.00273   0.00000  Uiso   1.00
H452   H     0.39195   0.84828   0.47963   0.00000  Uiso   1.00
H453   H     0.45895   0.83454   0.48044   0.00000  Uiso   1.00
H454   H     0.43689   0.85774   0.03436   0.00000  Uiso   1.00
N455   N     0.58826   0.78327   0.48151   0.00000  Uiso   1.00
H456   H     0.62187   0.77923   0.46637   0.00000  Uiso   1.00
C457   C     0.58317   0.82769   0.49963   0.00000  Uiso   1.00
H458   H     0.61951   0.83729   0.02295   0.00000  Uiso   1.00
H459   H     0.55129   0.82969   0.02213   0.00000  Uiso   1.00
H460   H     0.57573   0.85131   0.46875   0.00000  Uiso   1.00
C461   C     0.83343   0.66515   0.24994   0.00000  Uiso   1.00
C462   C     0.83299   0.83507   0.24999   0.00000  Uiso   1.00
C463   C     0.87346   0.73139   0.05872   0.00000  Uiso   1.00
C464   C     0.79107   0.73539   0.44102   0.00000  Uiso   1.00
C465   C     0.87294   0.73112   0.10941   0.00000  Uiso   1.00
C466   C     0.79159   0.73508   0.39033   0.00000  Uiso   1.00
C467   C     0.79347   0.76954   0.09988   0.00000  Uiso   1.00
C468   C     0.87532   0.76573   0.40058   0.00000  Uiso   1.00
C469   C     0.79212   0.77071   0.04867   0.00000  Uiso   1.00
C470   C     0.87678   0.76680   0.45183   0.00000  Uiso   1.00
C471   C     0.83296   0.75124   0.02729   0.00000  Uiso   1.00
C472   C     0.83377   0.75125   0.47284   0.00000  Uiso   1.00
C473   C     0.73454   0.74990   0.23752   0.00000  Uiso   1.00
C474   C     0.93213   0.75005   0.26247   0.00000  Uiso   1.00
C475   C     0.67924   0.74970   0.23064   0.00000  Uiso   1.00
C476   C     0.98742   0.75022   0.26936   0.00000  Uiso   1.00
C477   C     0.79062   0.54815   0.26189   0.00000  Uiso   1.00
C478   C     0.85699   0.95267   0.21576   0.00000  Uiso   1.00
C479   C     0.79066   0.59465   0.26376   0.00000  Uiso   1.00
C480   C     0.85787   0.90667   0.21606   0.00000  Uiso   1.00
C481   C     0.83324   0.61716   0.24974   0.00000  Uiso   1.00
C482   C     0.83262   0.88345   0.25005   0.00000  Uiso   1.00
C483   C     0.87591   0.59402   0.23652   0.00000  Uiso   1.00
C484   C     0.80806   0.90697   0.28454   0.00000  Uiso   1.00
C485   C     0.87667   0.54804   0.23870   0.00000  Uiso   1.00
C486   C     0.81038   0.95301   0.28544   0.00000  Uiso   1.00
C487   C     0.83388   0.52483   0.25062   0.00000  Uiso   1.00
C488   C     0.83399   0.97615   0.25073   0.00000  Uiso   1.00
Cu489  Cu    0.83333   0.75000   0.29821   0.00000  Uiso   1.00
Cu490  Cu    0.83333   0.75001   0.20178   0.00000  Uiso   1.00
H491   H     0.99251   0.74908   0.19352   0.00000  Uiso   1.00
H492   H     0.67416   0.75078   0.30648   0.00000  Uiso   1.00
H493   H     0.75672   0.52993   0.26830   0.00000  Uiso   1.00
H494   H     0.87434   0.96987   0.18789   0.00000  Uiso   1.00
H495   H     0.91070   0.53059   0.23064   0.00000  Uiso   1.00
H496   H     0.79288   0.97069   0.31299   0.00000  Uiso   1.00
H497   H     0.90527   0.71572   0.04409   0.00000  Uiso   1.00
H498   H     0.75745   0.72286   0.45533   0.00000  Uiso   1.00
H499   H     0.90448   0.71568   0.13277   0.00000  Uiso   1.00
H500   H     0.75824   0.72295   0.36679   0.00000  Uiso   1.00
H501   H     0.76262   0.78494   0.11614   0.00000  Uiso   1.00
H502   H     0.90794   0.77826   0.38479   0.00000  Uiso   1.00
N503   N     0.83333   0.75001   0.12934   0.00000  Uiso   1.00
N504   N     0.83333   0.74999   0.37065   0.00000  Uiso   1.00
O505   O     0.83334   0.68573   0.29071   0.00000  Uiso   1.00
O506   O     0.83333   0.81427   0.20928   0.00000  Uiso   1.00
O507   O     0.83334   0.68573   0.20928   0.00000  Uiso   1.00
O508   O     0.83333   0.81427   0.29072   0.00000  Uiso   1.00
O509   O     0.75828   0.74999   0.28132   0.00000  Uiso   1.00
O510   O     0.90839   0.75001   0.21868   0.00000  Uiso   1.00
O511   O     0.75828   0.75000   0.19988   0.00000  Uiso   1.00
O512   O     0.90839   0.75000   0.30011   0.00000  Uiso   1.00
O513   O     0.74869   0.61958   0.27462   0.00000  Uiso   1.00
C514   C     0.72161   0.59889   0.30914   0.00000  Uiso   1.00
H515   H     0.74835   0.58311   0.33913   0.00000  Uiso   1.00
H516   H     0.69460   0.57380   0.29078   0.00000  Uiso   1.00
C517   C     0.68974   0.63329   0.33185   0.00000  Uiso   1.00
H518   H     0.99749   0.61676   0.35504   0.00000  Uiso   1.00
H519   H     0.71570   0.65615   0.35491   0.00000  Uiso   1.00
H520   H     0.99893   0.65254   0.30307   0.00000  Uiso   1.00
O521   O     0.88142   0.88463   0.18130   0.00000  Uiso   1.00
C522   C     0.93389   0.87764   0.20000   0.00000  Uiso   1.00
H523   H     0.93790   0.85880   0.23489   0.00000  Uiso   1.00
H524   H     0.95463   0.90972   0.20612   0.00000  Uiso   1.00
C525   C     0.95937   0.85084   0.16337   0.00000  Uiso   1.00
H526   H     0.95744   0.86921   0.12848   0.00000  Uiso   1.00
H527   H     0.66718   0.84457   0.17794   0.00000  Uiso   1.00
H528   H     0.93929   0.81868   0.15638   0.00000  Uiso   1.00
N529   N     0.91895   0.61703   0.22266   0.00000  Uiso   1.00
H530   H     0.95380   0.60480   0.23931   0.00000  Uiso   1.00
C531   C     0.91826   0.62044   0.17051   0.00000  Uiso   1.00
H532   H     0.92299   0.58723   0.15449   0.00000  Uiso   1.00
H533   H     0.95060   0.64183   0.16276   0.00000  Uiso   1.00
H534   H     0.88140   0.63527   0.15303   0.00000  Uiso   1.00
N535   N     0.78012   0.88468   0.31784   0.00000  Uiso   1.00
H536   H     0.78021   0.90089   0.35063   0.00000  Uiso   1.00
C537   C     0.72871   0.87096   0.29705   0.00000  Uiso   1.00
H538   H     0.70410   0.90033   0.28647   0.00000  Uiso   1.00
H539   H     0.71099   0.85155   0.32437   0.00000  Uiso   1.00
H540   H     0.73006   0.84975   0.26451   0.00000  Uiso   1.00
N541   N     0.74964   0.79135   0.01940   0.00000  Uiso   1.00
H542   H     0.71566   0.79023   0.03438   0.00000  Uiso   1.00
C543   C     0.76016   0.83523   0.00273   0.00000  Uiso   1.00
H544   H     0.72528   0.84828   0.47963   0.00000  Uiso   1.00
H545   H     0.79228   0.83454   0.48044   0.00000  Uiso   1.00
H546   H     0.77022   0.85774   0.03436   0.00000  Uiso   1.00
N547   N     0.92159   0.78327   0.48151   0.00000  Uiso   1.00
H548   H     0.95520   0.77923   0.46637   0.00000  Uiso   1.00
C549   C     0.91650   0.82769   0.49963   0.00000  Uiso   1.00
H550   H     0.95285   0.83729   0.02295   0.00000  Uiso   1.00
H551   H     0.88462   0.82969   0.02213   0.00000  Uiso   1.00
H552   H     0.90906   0.85131   0.46875   0.00000  Uiso   1.00
C553   C     0.16677   0.16515   0.74994   0.00000  Uiso   1.00
C554   C     0.16632   0.33507   0.74999   0.00000  Uiso   1.00
C555   C     0.20679   0.23139   0.55872   0.00000  Uiso   1.00
C556   C     0.12440   0.23539   0.94102   0.00000  Uiso   1.00
C557   C     0.20627   0.23112   0.60941   0.00000  Uiso   1.00
C558   C     0.12493   0.23508   0.89033   0.00000  Uiso   1.00
C559   C     0.12681   0.26954   0.59988   0.00000  Uiso   1.00
C560   C     0.20866   0.26573   0.90058   0.00000  Uiso   1.00
C561   C     0.12546   0.27071   0.54867   0.00000  Uiso   1.00
C562   C     0.21011   0.26680   0.95183   0.00000  Uiso   1.00
C563   C     0.16630   0.25124   0.52729   0.00000  Uiso   1.00
C564   C     0.16711   0.25125   0.97284   0.00000  Uiso   1.00
C565   C     0.06787   0.24990   0.73752   0.00000  Uiso   1.00
C566   C     0.26546   0.25005   0.76247   0.00000  Uiso   1.00
C567   C     0.01258   0.24970   0.73064   0.00000  Uiso   1.00
C568   C     0.32076   0.25022   0.76936   0.00000  Uiso   1.00
C569   C     0.12395   0.04815   0.76189   0.00000  Uiso   1.00
C570   C     0.19033   0.45267   0.71576   0.00000  Uiso   1.00
C571   C     0.12400   0.09465   0.76376   0.00000  Uiso   1.00
C572   C     0.19120   0.40667   0.71606   0.00000  Uiso   1.00
C573   C     0.16657   0.11716   0.74974   0.00000  Uiso   1.00
C574   C     0.16595   0.38345   0.75005   0.00000  Uiso   1.00
C575   C     0.20924   0.09402   0.73652   0.00000  Uiso   1.00
C576   C     0.14139   0.40697   0.78454   0.00000  Uiso   1.00
C577   C     0.21000   0.04804   0.73870   0.00000  Uiso   1.00
C578   C     0.14371   0.45301   0.78544   0.00000  Uiso   1.00
C579   C     0.16721   0.02483   0.75062   0.00000  Uiso   1.00
C580   C     0.16732   0.47615   0.75073   0.00000  Uiso   1.00
Cu581  Cu    0.16667   0.25000   0.79821   0.00000  Uiso   1.00
Cu582  Cu    0.16667   0.25001   0.70178   0.00000  Uiso   1.00
H583   H     0.32585   0.24908   0.69352   0.00000  Uiso   1.00
H584   H     0.00749   0.25078   0.80648   0.00000  Uiso   1.00
H585   H     0.09006   0.02993   0.76830   0.00000  Uiso   1.00
H586   H     0.20767   0.46987   0.68789   0.00000  Uiso   1.00
H587   H     0.24404   0.03059   0.73064   0.00000  Uiso   1.00
H588   H     0.12621   0.47069   0.81299   0.00000  Uiso   1.00
H589   H     0.23861   0.21572   0.54409   0.00000  Uiso   1.00
H590   H     0.09078   0.22286   0.95533   0.00000  Uiso   1.00
H591   H     0.23782   0.21568   0.63277   0.00000  Uiso   1.00
H592   H     0.09157   0.22295   0.86679   0.00000  Uiso   1.00
H593   H     0.09595   0.28494   0.61614   0.00000  Uiso   1.00
H594   H     0.24127   0.27826   0.88479   0.00000  Uiso   1.00
N595   N     0.16667   0.25001   0.62934   0.00000  Uiso   1.00
N596   N     0.16667   0.24999   0.87065   0.00000  Uiso   1.00
O597   O     0.16667   0.18573   0.79071   0.00000  Uiso   1.00
O598   O     0.16666   0.31427   0.70928   0.00000  Uiso   1.00
O599   O     0.16667   0.18573   0.70928   0.00000  Uiso   1.00
O600   O     0.16666   0.31427   0.79072   0.00000  Uiso   1.00
O601   O     0.09161   0.24999   0.78132   0.00000  Uiso   1.00
O602   O     0.24172   0.25001   0.71868   0.00000  Uiso   1.00
O603   O     0.09161   0.25000   0.69988   0.00000  Uiso   1.00
O604   O     0.24172   0.25000   0.80011   0.00000  Uiso   1.00
O605   O     0.08203   0.11958   0.77462   0.00000  Uiso   1.00
C606   C     0.05495   0.09889   0.80914   0.00000  Uiso   1.00
H607   H     0.08168   0.08311   0.83913   0.00000  Uiso   1.00
H608   H     0.02793   0.07380   0.79078   0.00000  Uiso   1.00
C609   C     0.02308   0.13329   0.83185   0.00000  Uiso   1.00
H610   H     0.33082   0.11676   0.85504   0.00000  Uiso   1.00
H611   H     0.04904   0.15615   0.85491   0.00000  Uiso   1.00
H612   H     0.33226   0.15254   0.80307   0.00000  Uiso   1.00
O613   O     0.21476   0.38463   0.68130   0.00000  Uiso   1.00
C614   C     0.26723   0.37764   0.70000   0.00000  Uiso   1.00
H615   H     0.27124   0.35880   0.73489   0.00000  Uiso   1.00
H616   H     0.28797   0.40972   0.70612   0.00000  Uiso   1.00
C617   C     0.29270   0.35084   0.66337   0.00000  Uiso   1.00
H618   H     0.29077   0.36921   0.62848   0.00000  Uiso   1.00
H619   H     0.00052   0.34457   0.67794   0.00000  Uiso   1.00
H620   H     0.27262   0.31868   0.65638   0.00000  Uiso   1.00
N621   N     0.25228   0.11703   0.72266   0.00000  Uiso   1.00
H622   H     0.28713   0.10480   0.73931   0.00000  Uiso   1.00
C623   C     0.25160   0.12044   0.67051   0.00000  Uiso   1.00
H624   H     0.25632   0.08723   0.65449   0.00000  Uiso   1.00
H625   H     0.28393   0.14183   0.66276   0.00000  Uiso   1.00
H626   H     0.21473   0.13527   0.65303   0.00000  Uiso   1.00
N627   N     0.11346   0.38468   0.81784   0.00000  Uiso   1.00
H628   H     0.11354   0.40089   0.85063   0.00000  Uiso   1.00
C629   C     0.06204   0.37096   0.79705   0.00000  Uiso   1.00
H630   H     0.03744   0.40033   0.78647   0.00000  Uiso   1.00
H631   H     0.04433   0.35155   0.82437   0.00000  Uiso   1.00
H632   H     0.06339   0.34975   0.76451   0.00000  Uiso   1.00
N633   N     0.08297   0.29135   0.51940   0.00000  Uiso   1.00
H634   H     0.04900   0.29023   0.53438   0.00000  Uiso   1.00
C635   C     0.09350   0.33523   0.50273   0.00000  Uiso   1.00
H636   H     0.05862   0.34828   0.97963   0.00000  Uiso   1.00
H637   H     0.12562   0.33454   0.98044   0.00000  Uiso   1.00
H638   H     0.10356   0.35774   0.53436   0.00000  Uiso   1.00
N639   N     0.25493   0.28327   0.98151   0.00000  Uiso   1.00
H640   H     0.28853   0.27923   0.96637   0.00000  Uiso   1.00
C641   C     0.24983   0.32769   0.99963   0.00000  Uiso   1.00
H642   H     0.28618   0.33729   0.52295   0.00000  Uiso   1.00
H643   H     0.21796   0.32969   0.52213   0.00000  Uiso   1.00
H644   H     0.24240   0.35131   0.96875   0.00000  Uiso   1.00
C645   C     0.50010   0.16515   0.74994   0.00000  Uiso   1.00
C646   C     0.49965   0.33507   0.74999   0.00000  Uiso   1.00
C647   C     0.54013   0.23139   0.55872   0.00000  Uiso   1.00
C648   C     0.45774   0.23539   0.94102   0.00000  Uiso   1.00
C649   C     0.53960   0.23112   0.60941   0.00000  Uiso   1.00
C650   C     0.45826   0.23508   0.89033   0.00000  Uiso   1.00
C651   C     0.46014   0.26954   0.59988   0.00000  Uiso   1.00
C652   C     0.54199   0.26573   0.90058   0.00000  Uiso   1.00
C653   C     0.45879   0.27071   0.54867   0.00000  Uiso   1.00
C654   C     0.54344   0.26680   0.95183   0.00000  Uiso   1.00
C655   C     0.49963   0.25124   0.52729   0.00000  Uiso   1.00
C656   C     0.50044   0.25125   0.97284   0.00000  Uiso   1.00
C657   C     0.40120   0.24990   0.73752   0.00000  Uiso   1.00
C658   C     0.59880   0.25005   0.76247   0.00000  Uiso   1.00
C659   C     0.34591   0.24970   0.73064   0.00000  Uiso   1.00
C660   C     0.65409   0.25022   0.76936   0.00000  Uiso   1.00
C661   C     0.45729   0.04815   0.76189   0.00000  Uiso   1.00
C662   C     0.52366   0.45267   0.71576   0.00000  Uiso   1.00
C663   C     0.45733   0.09465   0.76376   0.00000  Uiso   1.00
C664   C     0.52453   0.40667   0.71606   0.00000  Uiso   1.00
C665   C     0.49990   0.11716   0.74974   0.00000  Uiso   1.00
C666   C     0.49929   0.38345   0.75005   0.00000  Uiso   1.00
C667   C     0.54257   0.09402   0.73652   0.00000  Uiso   1.00
C668   C     0.47472   0.40697   0.78454   0.00000  Uiso   1.00
C669   C     0.54333   0.04804   0.73870   0.00000  Uiso   1.00
C670   C     0.47704   0.45301   0.78544   0.00000  Uiso   1.00
C671   C     0.50054   0.02483   0.75062   0.00000  Uiso   1.00
C672   C     0.50065   0.47615   0.75073   0.00000  Uiso   1.00
Cu673  Cu    0.50000   0.25000   0.79821   0.00000  Uiso   1.00
Cu674  Cu    0.50000   0.25001   0.70178   0.00000  Uiso   1.00
H675   H     0.65918   0.24908   0.69352   0.00000  Uiso   1.00
H676   H     0.34082   0.25078   0.80648   0.00000  Uiso   1.00
H677   H     0.42339   0.02993   0.76830   0.00000  Uiso   1.00
H678   H     0.54101   0.46987   0.68789   0.00000  Uiso   1.00
H679   H     0.57737   0.03059   0.73064   0.00000  Uiso   1.00
H680   H     0.45954   0.47069   0.81299   0.00000  Uiso   1.00
H681   H     0.57194   0.21572   0.54409   0.00000  Uiso   1.00
H682   H     0.42412   0.22286   0.95533   0.00000  Uiso   1.00
H683   H     0.57115   0.21568   0.63277   0.00000  Uiso   1.00
H684   H     0.42491   0.22295   0.86679   0.00000  Uiso   1.00
H685   H     0.42928   0.28494   0.61614   0.00000  Uiso   1.00
H686   H     0.57460   0.27826   0.88479   0.00000  Uiso   1.00
N687   N     0.50000   0.25001   0.62934   0.00000  Uiso   1.00
N688   N     0.50000   0.24999   0.87065   0.00000  Uiso   1.00
O689   O     0.50000   0.18573   0.79071   0.00000  Uiso   1.00
O690   O     0.50000   0.31427   0.70928   0.00000  Uiso   1.00
O691   O     0.50000   0.18573   0.70928   0.00000  Uiso   1.00
O692   O     0.50000   0.31427   0.79072   0.00000  Uiso   1.00
O693   O     0.42495   0.24999   0.78132   0.00000  Uiso   1.00
O694   O     0.57505   0.25001   0.71868   0.00000  Uiso   1.00
O695   O     0.42495   0.25000   0.69988   0.00000  Uiso   1.00
O696   O     0.57505   0.25000   0.80011   0.00000  Uiso   1.00
O697   O     0.41536   0.11958   0.77462   0.00000  Uiso   1.00
C698   C     0.38828   0.09889   0.80914   0.00000  Uiso   1.00
H699   H     0.41501   0.08311   0.83913   0.00000  Uiso   1.00
H700   H     0.36126   0.07380   0.79078   0.00000  Uiso   1.00
C701   C     0.35641   0.13329   0.83185   0.00000  Uiso   1.00
H702   H     0.66415   0.11676   0.85504   0.00000  Uiso   1.00
H703   H     0.38237   0.15615   0.85491   0.00000  Uiso   1.00
H704   H     0.66559   0.15254   0.80307   0.00000  Uiso   1.00
O705   O     0.54809   0.38463   0.68130   0.00000  Uiso   1.00
C706   C     0.60056   0.37764   0.70000   0.00000  Uiso   1.00
H707   H     0.60457   0.35880   0.73489   0.00000  Uiso   1.00
H708   H     0.62130   0.40972   0.70612   0.00000  Uiso   1.00
C709   C     0.62604   0.35084   0.66337   0.00000  Uiso   1.00
H710   H     0.62411   0.36921   0.62848   0.00000  Uiso   1.00
H711   H     0.33385   0.34457   0.67794   0.00000  Uiso   1.00
H712   H     0.60595   0.31868   0.65638   0.00000  Uiso   1.00
N713   N     0.58562   0.11703   0.72266   0.00000  Uiso   1.00
H714   H     0.62047   0.10480   0.73931   0.00000  Uiso   1.00
C715   C     0.58493   0.12044   0.67051   0.00000  Uiso   1.00
H716   H     0.58966   0.08723   0.65449   0.00000  Uiso   1.00
H717   H     0.61727   0.14183   0.66276   0.00000  Uiso   1.00
H718   H     0.54807   0.13527   0.65303   0.00000  Uiso   1.00
N719   N     0.44679   0.38468   0.81784   0.00000  Uiso   1.00
H720   H     0.44687   0.40089   0.85063   0.00000  Uiso   1.00
C721   C     0.39537   0.37096   0.79705   0.00000  Uiso   1.00
H722   H     0.37077   0.40033   0.78647   0.00000  Uiso   1.00
H723   H     0.37766   0.35155   0.82437   0.00000  Uiso   1.00
H724   H     0.39673   0.34975   0.76451   0.00000  Uiso   1.00
N725   N     0.41630   0.29135   0.51940   0.00000  Uiso   1.00
H726   H     0.38233   0.29023   0.53438   0.00000  Uiso   1.00
C727   C     0.42683   0.33523   0.50273   0.00000  Uiso   1.00
H728   H     0.39195   0.34828   0.97963   0.00000  Uiso   1.00
H729   H     0.45895   0.33454   0.98044   0.00000  Uiso   1.00
H730   H     0.43689   0.35774   0.53436   0.00000  Uiso   1.00
N731   N     0.58826   0.28327   0.98151   0.00000  Uiso   1.00
H732   H     0.62187   0.27923   0.96637   0.00000  Uiso   1.00
C733   C     0.58317   0.32769   0.99963   0.00000  Uiso   1.00
H734   H     0.61951   0.33729   0.52295   0.00000  Uiso   1.00
H735   H     0.55129   0.32969   0.52213   0.00000  Uiso   1.00
H736   H     0.57573   0.35131   0.96875   0.00000  Uiso   1.00
C737   C     0.83343   0.16515   0.74994   0.00000  Uiso   1.00
C738   C     0.83299   0.33507   0.74999   0.00000  Uiso   1.00
C739   C     0.87346   0.23139   0.55872   0.00000  Uiso   1.00
C740   C     0.79107   0.23539   0.94102   0.00000  Uiso   1.00
C741   C     0.87294   0.23112   0.60941   0.00000  Uiso   1.00
C742   C     0.79159   0.23508   0.89033   0.00000  Uiso   1.00
C743   C     0.79347   0.26954   0.59988   0.00000  Uiso   1.00
C744   C     0.87532   0.26573   0.90058   0.00000  Uiso   1.00
C745   C     0.79212   0.27071   0.54867   0.00000  Uiso   1.00
C746   C     0.87678   0.26680   0.95183   0.00000  Uiso   1.00
C747   C     0.83296   0.25124   0.52729   0.00000  Uiso   1.00
C748   C     0.83377   0.25125   0.97284   0.00000  Uiso   1.00
C749   C     0.73454   0.24990   0.73752   0.00000  Uiso   1.00
C750   C     0.93213   0.25005   0.76247   0.00000  Uiso   1.00
C751   C     0.67924   0.24970   0.73064   0.00000  Uiso   1.00
C752   C     0.98742   0.25022   0.76936   0.00000  Uiso   1.00
C753   C     0.79062   0.04815   0.76189   0.00000  Uiso   1.00
C754   C     0.85699   0.45267   0.71576   0.00000  Uiso   1.00
C755   C     0.79066   0.09465   0.76376   0.00000  Uiso   1.00
C756   C     0.85787   0.40667   0.71606   0.00000  Uiso   1.00
C757   C     0.83324   0.11716   0.74974   0.00000  Uiso   1.00
C758   C     0.83262   0.38345   0.75005   0.00000  Uiso   1.00
C759   C     0.87591   0.09402   0.73652   0.00000  Uiso   1.00
C760   C     0.80806   0.40697   0.78454   0.00000  Uiso   1.00
C761   C     0.87667   0.04804   0.73870   0.00000  Uiso   1.00
C762   C     0.81038   0.45301   0.78544   0.00000  Uiso   1.00
C763   C     0.83388   0.02483   0.75062   0.00000  Uiso   1.00
C764   C     0.83399   0.47615   0.75073   0.00000  Uiso   1.00
Cu765  Cu    0.83333   0.25000   0.79821   0.00000  Uiso   1.00
Cu766  Cu    0.83333   0.25001   0.70178   0.00000  Uiso   1.00
H767   H     0.99251   0.24908   0.69352   0.00000  Uiso   1.00
H768   H     0.67416   0.25078   0.80648   0.00000  Uiso   1.00
H769   H     0.75672   0.02993   0.76830   0.00000  Uiso   1.00
H770   H     0.87434   0.46987   0.68789   0.00000  Uiso   1.00
H771   H     0.91070   0.03059   0.73064   0.00000  Uiso   1.00
H772   H     0.79288   0.47069   0.81299   0.00000  Uiso   1.00
H773   H     0.90527   0.21572   0.54409   0.00000  Uiso   1.00
H774   H     0.75745   0.22286   0.95533   0.00000  Uiso   1.00
H775   H     0.90448   0.21568   0.63277   0.00000  Uiso   1.00
H776   H     0.75824   0.22295   0.86679   0.00000  Uiso   1.00
H777   H     0.76262   0.28494   0.61614   0.00000  Uiso   1.00
H778   H     0.90794   0.27826   0.88479   0.00000  Uiso   1.00
N779   N     0.83333   0.25001   0.62934   0.00000  Uiso   1.00
N780   N     0.83333   0.24999   0.87065   0.00000  Uiso   1.00
O781   O     0.83334   0.18573   0.79071   0.00000  Uiso   1.00
O782   O     0.83333   0.31427   0.70928   0.00000  Uiso   1.00
O783   O     0.83334   0.18573   0.70928   0.00000  Uiso   1.00
O784   O     0.83333   0.31427   0.79072   0.00000  Uiso   1.00
O785   O     0.75828   0.24999   0.78132   0.00000  Uiso   1.00
O786   O     0.90839   0.25001   0.71868   0.00000  Uiso   1.00
O787   O     0.75828   0.25000   0.69988   0.00000  Uiso   1.00
O788   O     0.90839   0.25000   0.80011   0.00000  Uiso   1.00
O789   O     0.74869   0.11958   0.77462   0.00000  Uiso   1.00
C790   C     0.72161   0.09889   0.80914   0.00000  Uiso   1.00
H791   H     0.74835   0.08311   0.83913   0.00000  Uiso   1.00
H792   H     0.69460   0.07380   0.79078   0.00000  Uiso   1.00
C793   C     0.68974   0.13329   0.83185   0.00000  Uiso   1.00
H794   H     0.99749   0.11676   0.85504   0.00000  Uiso   1.00
H795   H     0.71570   0.15615   0.85491   0.00000  Uiso   1.00
H796   H     0.99893   0.15254   0.80307   0.00000  Uiso   1.00
O797   O     0.88142   0.38463   0.68130   0.00000  Uiso   1.00
C798   C     0.93389   0.37764   0.70000   0.00000  Uiso   1.00
H799   H     0.93790   0.35880   0.73489   0.00000  Uiso   1.00
H800   H     0.95463   0.40972   0.70612   0.00000  Uiso   1.00
C801   C     0.95937   0.35084   0.66337   0.00000  Uiso   1.00
H802   H     0.95744   0.36921   0.62848   0.00000  Uiso   1.00
H803   H     0.66718   0.34457   0.67794   0.00000  Uiso   1.00
H804   H     0.93929   0.31868   0.65638   0.00000  Uiso   1.00
N805   N     0.91895   0.11703   0.72266   0.00000  Uiso   1.00
H806   H     0.95380   0.10480   0.73931   0.00000  Uiso   1.00
C807   C     0.91826   0.12044   0.67051   0.00000  Uiso   1.00
H808   H     0.92299   0.08723   0.65449   0.00000  Uiso   1.00
H809   H     0.95060   0.14183   0.66276   0.00000  Uiso   1.00
H810   H     0.88140   0.13527   0.65303   0.00000  Uiso   1.00
N811   N     0.78012   0.38468   0.81784   0.00000  Uiso   1.00
H812   H     0.78021   0.40089   0.85063   0.00000  Uiso   1.00
C813   C     0.72871   0.37096   0.79705   0.00000  Uiso   1.00
H814   H     0.70410   0.40033   0.78647   0.00000  Uiso   1.00
H815   H     0.71099   0.35155   0.82437   0.00000  Uiso   1.00
H816   H     0.73006   0.34975   0.76451   0.00000  Uiso   1.00
N817   N     0.74964   0.29135   0.51940   0.00000  Uiso   1.00
H818   H     0.71566   0.29023   0.53438   0.00000  Uiso   1.00
C819   C     0.76016   0.33523   0.50273   0.00000  Uiso   1.00
H820   H     0.72528   0.34828   0.97963   0.00000  Uiso   1.00
H821   H     0.79228   0.33454   0.98044   0.00000  Uiso   1.00
H822   H     0.77022   0.35774   0.53436   0.00000  Uiso   1.00
N823   N     0.92159   0.28327   0.98151   0.00000  Uiso   1.00
H824   H     0.95520   0.27923   0.96637   0.00000  Uiso   1.00
C825   C     0.91650   0.32769   0.99963   0.00000  Uiso   1.00
H826   H     0.95285   0.33729   0.52295   0.00000  Uiso   1.00
H827   H     0.88462   0.32969   0.52213   0.00000  Uiso   1.00
H828   H     0.90906   0.35131   0.96875   0.00000  Uiso   1.00
C829   C     0.16677   0.66515   0.74994   0.00000  Uiso   1.00
C830   C     0.16632   0.83507   0.74999   0.00000  Uiso   1.00
C831   C     0.20679   0.73139   0.55872   0.00000  Uiso   1.00
C832   C     0.12440   0.73539   0.94102   0.00000  Uiso   1.00
C833   C     0.20627   0.73112   0.60941   0.00000  Uiso   1.00
C834   C     0.12493   0.73508   0.89033   0.00000  Uiso   1.00
C835   C     0.12681   0.76954   0.59988   0.00000  Uiso   1.00
C836   C     0.20866   0.76573   0.90058   0.00000  Uiso   1.00
C837   C     0.12546   0.77071   0.54867   0.00000  Uiso   1.00
C838   C     0.21011   0.76680   0.95183   0.00000  Uiso   1.00
C839   C     0.16630   0.75124   0.52729   0.00000  Uiso   1.00
C840   C     0.16711   0.75125   0.97284   0.00000  Uiso   1.00
C841   C     0.06787   0.74990   0.73752   0.00000  Uiso   1.00
C842   C     0.26546   0.75005   0.76247   0.00000  Uiso   1.00
C843   C     0.01258   0.74970   0.73064   0.00000  Uiso   1.00
C844   C     0.32076   0.75022   0.76936   0.00000  Uiso   1.00
C845   C     0.12395   0.54815   0.76189   0.00000  Uiso   1.00
C846   C     0.19033   0.95267   0.71576   0.00000  Uiso   1.00
C847   C     0.12400   0.59465   0.76376   0.00000  Uiso   1.00
C848   C     0.19120   0.90667   0.71606   0.00000  Uiso   1.00
C849   C     0.16657   0.61716   0.74974   0.00000  Uiso   1.00
C850   C     0.16595   0.88345   0.75005   0.00000  Uiso   1.00
C851   C     0.20924   0.59402   0.73652   0.00000  Uiso   1.00
C852   C     0.14139   0.90697   0.78454   0.00000  Uiso   1.00
C853   C     0.21000   0.54804   0.73870   0.00000  Uiso   1.00
C854   C     0.14371   0.95301   0.78544   0.00000  Uiso   1.00
C855   C     0.16721   0.52483   0.75062   0.00000  Uiso   1.00
C856   C     0.16732   0.97615   0.75073   0.00000  Uiso   1.00
Cu857  Cu    0.16667   0.75000   0.79821   0.00000  Uiso   1.00
Cu858  Cu    0.16667   0.75001   0.70178   0.00000  Uiso   1.00
H859   H     0.32585   0.74908   0.69352   0.00000  Uiso   1.00
H860   H     0.00749   0.75078   0.80648   0.00000  Uiso   1.00
H861   H     0.09006   0.52993   0.76830   0.00000  Uiso   1.00
H862   H     0.20767   0.96987   0.68789   0.00000  Uiso   1.00
H863   H     0.24404   0.53059   0.73064   0.00000  Uiso   1.00
H864   H     0.12621   0.97069   0.81299   0.00000  Uiso   1.00
H865   H     0.23861   0.71572   0.54409   0.00000  Uiso   1.00
H866   H     0.09078   0.72286   0.95533   0.00000  Uiso   1.00
H867   H     0.23782   0.71568   0.63277   0.00000  Uiso   1.00
H868   H     0.09157   0.72295   0.86679   0.00000  Uiso   1.00
H869   H     0.09595   0.78494   0.61614   0.00000  Uiso   1.00
H870   H     0.24127   0.77826   0.88479   0.00000  Uiso   1.00
N871   N     0.16667   0.75001   0.62934   0.00000  Uiso   1.00
N872   N     0.16667   0.74999   0.87065   0.00000  Uiso   1.00
O873   O     0.16667   0.68573   0.79071   0.00000  Uiso   1.00
O874   O     0.16666   0.81427   0.70928   0.00000  Uiso   1.00
O875   O     0.16667   0.68573   0.70928   0.00000  Uiso   1.00
O876   O     0.16666   0.81427   0.79072   0.00000  Uiso   1.00
O877   O     0.09161   0.74999   0.78132   0.00000  Uiso   1.00
O878   O     0.24172   0.75001   0.71868   0.00000  Uiso   1.00
O879   O     0.09161   0.75000   0.69988   0.00000  Uiso   1.00
O880   O     0.24172   0.75000   0.80011   0.00000  Uiso   1.00
O881   O     0.08203   0.61958   0.77462   0.00000  Uiso   1.00
C882   C     0.05495   0.59889   0.80914   0.00000  Uiso   1.00
H883   H     0.08168   0.58311   0.83913   0.00000  Uiso   1.00
H884   H     0.02793   0.57380   0.79078   0.00000  Uiso   1.00
C885   C     0.02308   0.63329   0.83185   0.00000  Uiso   1.00
H886   H     0.33082   0.61676   0.85504   0.00000  Uiso   1.00
H887   H     0.04904   0.65615   0.85491   0.00000  Uiso   1.00
H888   H     0.33226   0.65254   0.80307   0.00000  Uiso   1.00
O889   O     0.21476   0.88463   0.68130   0.00000  Uiso   1.00
C890   C     0.26723   0.87764   0.70000   0.00000  Uiso   1.00
H891   H     0.27124   0.85880   0.73489   0.00000  Uiso   1.00
H892   H     0.28797   0.90972   0.70612   0.00000  Uiso   1.00
C893   C     0.29270   0.85084   0.66337   0.00000  Uiso   1.00
H894   H     0.29077   0.86921   0.62848   0.00000  Uiso   1.00
H895   H     0.00052   0.84457   0.67794   0.00000  Uiso   1.00
H896   H     0.27262   0.81868   0.65638   0.00000  Uiso   1.00
N897   N     0.25228   0.61703   0.72266   0.00000  Uiso   1.00
H898   H     0.28713   0.60480   0.73931   0.00000  Uiso   1.00
C899   C     0.25160   0.62044   0.67051   0.00000  Uiso   1.00
H900   H     0.25632   0.58723   0.65449   0.00000  Uiso   1.00
H901   H     0.28393   0.64183   0.66276   0.00000  Uiso   1.00
H902   H     0.21473   0.63527   0.65303   0.00000  Uiso   1.00
N903   N     0.11346   0.88468   0.81784   0.00000  Uiso   1.00
H904   H     0.11354   0.90089   0.85063   0.00000  Uiso   1.00
C905   C     0.06204   0.87096   0.79705   0.00000  Uiso   1.00
H906   H     0.03744   0.90033   0.78647   0.00000  Uiso   1.00
H907   H     0.04433   0.85155   0.82437   0.00000  Uiso   1.00
H908   H     0.06339   0.84975   0.76451   0.00000  Uiso   1.00
N909   N     0.08297   0.79135   0.51940   0.00000  Uiso   1.00
H910   H     0.04900   0.79023   0.53438   0.00000  Uiso   1.00
C911   C     0.09350   0.83523   0.50273   0.00000  Uiso   1.00
H912   H     0.05862   0.84828   0.97963   0.00000  Uiso   1.00
H913   H     0.12562   0.83454   0.98044   0.00000  Uiso   1.00
H914   H     0.10356   0.85774   0.53436   0.00000  Uiso   1.00
N915   N     0.25493   0.78327   0.98151   0.00000  Uiso   1.00
H916   H     0.28853   0.77923   0.96637   0.00000  Uiso   1.00
C917   C     0.24983   0.82769   0.99963   0.00000  Uiso   1.00
H918   H     0.28618   0.83729   0.52295   0.00000  Uiso   1.00
H919   H     0.21796   0.82969   0.52213   0.00000  Uiso   1.00
H920   H     0.24240   0.85131   0.96875   0.00000  Uiso   1.00
C921   C     0.50010   0.66515   0.74994   0.00000  Uiso   1.00
C922   C     0.49965   0.83507   0.74999   0.00000  Uiso   1.00
C923   C     0.54013   0.73139   0.55872   0.00000  Uiso   1.00
C924   C     0.45774   0.73539   0.94102   0.00000  Uiso   1.00
C925   C     0.53960   0.73112   0.60941   0.00000  Uiso   1.00
C926   C     0.45826   0.73508   0.89033   0.00000  Uiso   1.00
C927   C     0.46014   0.76954   0.59988   0.00000  Uiso   1.00
C928   C     0.54199   0.76573   0.90058   0.00000  Uiso   1.00
C929   C     0.45879   0.77071   0.54867   0.00000  Uiso   1.00
C930   C     0.54344   0.76680   0.95183   0.00000  Uiso   1.00
C931   C     0.49963   0.75124   0.52729   0.00000  Uiso   1.00
C932   C     0.50044   0.75125   0.97284   0.00000  Uiso   1.00
C933   C     0.40120   0.74990   0.73752   0.00000  Uiso   1.00
C934   C     0.59880   0.75005   0.76247   0.00000  Uiso   1.00
C935   C     0.34591   0.74970   0.73064   0.00000  Uiso   1.00
C936   C     0.65409   0.75022   0.76936   0.00000  Uiso   1.00
C937   C     0.45729   0.54815   0.76189   0.00000  Uiso   1.00
C938   C     0.52366   0.95267   0.71576   0.00000  Uiso   1.00
C939   C     0.45733   0.59465   0.76376   0.00000  Uiso   1.00
C940   C     0.52453   0.90667   0.71606   0.00000  Uiso   1.00
C941   C     0.49990   0.61716   0.74974   0.00000  Uiso   1.00
C942   C     0.49929   0.88345   0.75005   0.00000  Uiso   1.00
C943   C     0.54257   0.59402   0.73652   0.00000  Uiso   1.00
C944   C     0.47472   0.90697   0.78454   0.00000  Uiso   1.00
C945   C     0.54333   0.54804   0.73870   0.00000  Uiso   1.00
C946   C     0.47704   0.95301   0.78544   0.00000  Uiso   1.00
C947   C     0.50054   0.52483   0.75062   0.00000  Uiso   1.00
C948   C     0.50065   0.97615   0.75073   0.00000  Uiso   1.00
Cu949  Cu    0.50000   0.75000   0.79821   0.00000  Uiso   1.00
Cu950  Cu    0.50000   0.75001   0.70178   0.00000  Uiso   1.00
H951   H     0.65918   0.74908   0.69352   0.00000  Uiso   1.00
H952   H     0.34082   0.75078   0.80648   0.00000  Uiso   1.00
H953   H     0.42339   0.52993   0.76830   0.00000  Uiso   1.00
H954   H     0.54101   0.96987   0.68789   0.00000  Uiso   1.00
H955   H     0.57737   0.53059   0.73064   0.00000  Uiso   1.00
H956   H     0.45954   0.97069   0.81299   0.00000  Uiso   1.00
H957   H     0.57194   0.71572   0.54409   0.00000  Uiso   1.00
H958   H     0.42412   0.72286   0.95533   0.00000  Uiso   1.00
H959   H     0.57115   0.71568   0.63277   0.00000  Uiso   1.00
H960   H     0.42491   0.72295   0.86679   0.00000  Uiso   1.00
H961   H     0.42928   0.78494   0.61614   0.00000  Uiso   1.00
H962   H     0.57460   0.77826   0.88479   0.00000  Uiso   1.00
N963   N     0.50000   0.75001   0.62934   0.00000  Uiso   1.00
N964   N     0.50000   0.74999   0.87065   0.00000  Uiso   1.00
O965   O     0.50000   0.68573   0.79071   0.00000  Uiso   1.00
O966   O     0.50000   0.81427   0.70928   0.00000  Uiso   1.00
O967   O     0.50000   0.68573   0.70928   0.00000  Uiso   1.00
O968   O     0.50000   0.81427   0.79072   0.00000  Uiso   1.00
O969   O     0.42495   0.74999   0.78132   0.00000  Uiso   1.00
O970   O     0.57505   0.75001   0.71868   0.00000  Uiso   1.00
O971   O     0.42495   0.75000   0.69988   0.00000  Uiso   1.00
O972   O     0.57505   0.75000   0.80011   0.00000  Uiso   1.00
O973   O     0.41536   0.61958   0.77462   0.00000  Uiso   1.00
C974   C     0.38828   0.59889   0.80914   0.00000  Uiso   1.00
H975   H     0.41501   0.58311   0.83913   0.00000  Uiso   1.00
H976   H     0.36126   0.57380   0.79078   0.00000  Uiso   1.00
C977   C     0.35641   0.63329   0.83185   0.00000  Uiso   1.00
H978   H     0.66415   0.61676   0.85504   0.00000  Uiso   1.00
H979   H     0.38237   0.65615   0.85491   0.00000  Uiso   1.00
H980   H     0.66559   0.65254   0.80307   0.00000  Uiso   1.00
O981   O     0.54809   0.88463   0.68130   0.00000  Uiso   1.00
C982   C     0.60056   0.87764   0.70000   0.00000  Uiso   1.00
H983   H     0.60457   0.85880   0.73489   0.00000  Uiso   1.00
H984   H     0.62130   0.90972   0.70612   0.00000  Uiso   1.00
C985   C     0.62604   0.85084   0.66337   0.00000  Uiso   1.00
H986   H     0.62411   0.86921   0.62848   0.00000  Uiso   1.00
H987   H     0.33385   0.84457   0.67794   0.00000  Uiso   1.00
H988   H     0.60595   0.81868   0.65638   0.00000  Uiso   1.00
N989   N     0.58562   0.61703   0.72266   0.00000  Uiso   1.00
H990   H     0.62047   0.60480   0.73931   0.00000  Uiso   1.00
C991   C     0.58493   0.62044   0.67051   0.00000  Uiso   1.00
H992   H     0.58966   0.58723   0.65449   0.00000  Uiso   1.00
H993   H     0.61727   0.64183   0.66276   0.00000  Uiso   1.00
H994   H     0.54807   0.63527   0.65303   0.00000  Uiso   1.00
N995   N     0.44679   0.88468   0.81784   0.00000  Uiso   1.00
H996   H     0.44687   0.90089   0.85063   0.00000  Uiso   1.00
C997   C     0.39537   0.87096   0.79705   0.00000  Uiso   1.00
H998   H     0.37077   0.90033   0.78647   0.00000  Uiso   1.00
H999   H     0.37766   0.85155   0.82437   0.00000  Uiso   1.00
H1000  H     0.39673   0.84975   0.76451   0.00000  Uiso   1.00
N1001  N     0.41630   0.79135   0.51940   0.00000  Uiso   1.00
H1002  H     0.38233   0.79023   0.53438   0.00000  Uiso   1.00
C1003  C     0.42683   0.83523   0.50273   0.00000  Uiso   1.00
H1004  H     0.39195   0.84828   0.97963   0.00000  Uiso   1.00
H1005  H     0.45895   0.83454   0.98044   0.00000  Uiso   1.00
H1006  H     0.43689   0.85774   0.53436   0.00000  Uiso   1.00
N1007  N     0.58826   0.78327   0.98151   0.00000  Uiso   1.00
H1008  H     0.62187   0.77923   0.96637   0.00000  Uiso   1.00
C1009  C     0.58317   0.82769   0.99963   0.00000  Uiso   1.00
H1010  H     0.61951   0.83729   0.52295   0.00000  Uiso   1.00
H1011  H     0.55129   0.82969   0.52213   0.00000  Uiso   1.00
H1012  H     0.57573   0.85131   0.96875   0.00000  Uiso   1.00
C1013  C     0.83343   0.66515   0.74994   0.00000  Uiso   1.00
C1014  C     0.83299   0.83507   0.74999   0.00000  Uiso   1.00
C1015  C     0.87346   0.73139   0.55872   0.00000  Uiso   1.00
C1016  C     0.79107   0.73539   0.94102   0.00000  Uiso   1.00
C1017  C     0.87294   0.73112   0.60941   0.00000  Uiso   1.00
C1018  C     0.79159   0.73508   0.89033   0.00000  Uiso   1.00
C1019  C     0.79347   0.76954   0.59988   0.00000  Uiso   1.00
C1020  C     0.87532   0.76573   0.90058   0.00000  Uiso   1.00
C1021  C     0.79212   0.77071   0.54867   0.00000  Uiso   1.00
C1022  C     0.87678   0.76680   0.95183   0.00000  Uiso   1.00
C1023  C     0.83296   0.75124   0.52729   0.00000  Uiso   1.00
C1024  C     0.83377   0.75125   0.97284   0.00000  Uiso   1.00
C1025  C     0.73454   0.74990   0.73752   0.00000  Uiso   1.00
C1026  C     0.93213   0.75005   0.76247   0.00000  Uiso   1.00
C1027  C     0.67924   0.74970   0.73064   0.00000  Uiso   1.00
C1028  C     0.98742   0.75022   0.76936   0.00000  Uiso   1.00
C1029  C     0.79062   0.54815   0.76189   0.00000  Uiso   1.00
C1030  C     0.85699   0.95267   0.71576   0.00000  Uiso   1.00
C1031  C     0.79066   0.59465   0.76376   0.00000  Uiso   1.00
C1032  C     0.85787   0.90667   0.71606   0.00000  Uiso   1.00
C1033  C     0.83324   0.61716   0.74974   0.00000  Uiso   1.00
C1034  C     0.83262   0.88345   0.75005   0.00000  Uiso   1.00
C1035  C     0.87591   0.59402   0.73652   0.00000  Uiso   1.00
C1036  C     0.80806   0.90697   0.78454   0.00000  Uiso   1.00
C1037  C     0.87667   0.54804   0.73870   0.00000  Uiso   1.00
C1038  C     0.81038   0.95301   0.78544   0.00000  Uiso   1.00
C1039  C     0.83388   0.52483   0.75062   0.00000  Uiso   1.00
C1040  C     0.83399   0.97615   0.75073   0.00000  Uiso   1.00
Cu1041 Cu    0.83333   0.75000   0.79821   0.00000  Uiso   1.00
Cu1042 Cu    0.83333   0.75001   0.70178   0.00000  Uiso   1.00
H1043  H     0.99251   0.74908   0.69352   0.00000  Uiso   1.00
H1044  H     0.67416   0.75078   0.80648   0.00000  Uiso   1.00
H1045  H     0.75672   0.52993   0.76830   0.00000  Uiso   1.00
H1046  H     0.87434   0.96987   0.68789   0.00000  Uiso   1.00
H1047  H     0.91070   0.53059   0.73064   0.00000  Uiso   1.00
H1048  H     0.79288   0.97069   0.81299   0.00000  Uiso   1.00
H1049  H     0.90527   0.71572   0.54409   0.00000  Uiso   1.00
H1050  H     0.75745   0.72286   0.95533   0.00000  Uiso   1.00
H1051  H     0.90448   0.71568   0.63277   0.00000  Uiso   1.00
H1052  H     0.75824   0.72295   0.86679   0.00000  Uiso   1.00
H1053  H     0.76262   0.78494   0.61614   0.00000  Uiso   1.00
H1054  H     0.90794   0.77826   0.88479   0.00000  Uiso   1.00
N1055  N     0.83333   0.75001   0.62934   0.00000  Uiso   1.00
N1056  N     0.83333   0.74999   0.87065   0.00000  Uiso   1.00
O1057  O     0.83334   0.68573   0.79071   0.00000  Uiso   1.00
O1058  O     0.83333   0.81427   0.70928   0.00000  Uiso   1.00
O1059  O     0.83334   0.68573   0.70928   0.00000  Uiso   1.00
O1060  O     0.83333   0.81427   0.79072   0.00000  Uiso   1.00
O1061  O     0.75828   0.74999   0.78132   0.00000  Uiso   1.00
O1062  O     0.90839   0.75001   0.71868   0.00000  Uiso   1.00
O1063  O     0.75828   0.75000   0.69988   0.00000  Uiso   1.00
O1064  O     0.90839   0.75000   0.80011   0.00000  Uiso   1.00
O1065  O     0.74869   0.61958   0.77462   0.00000  Uiso   1.00
C1066  C     0.72161   0.59889   0.80914   0.00000  Uiso   1.00
H1067  H     0.74835   0.58311   0.83913   0.00000  Uiso   1.00
H1068  H     0.69460   0.57380   0.79078   0.00000  Uiso   1.00
C1069  C     0.68974   0.63329   0.83185   0.00000  Uiso   1.00
H1070  H     0.99749   0.61676   0.85504   0.00000  Uiso   1.00
H1071  H     0.71570   0.65615   0.85491   0.00000  Uiso   1.00
H1072  H     0.99893   0.65254   0.80307   0.00000  Uiso   1.00
O1073  O     0.88142   0.88463   0.68130   0.00000  Uiso   1.00
C1074  C     0.93389   0.87764   0.70000   0.00000  Uiso   1.00
H1075  H     0.93790   0.85880   0.73489   0.00000  Uiso   1.00
H1076  H     0.95463   0.90972   0.70612   0.00000  Uiso   1.00
C1077  C     0.95937   0.85084   0.66337   0.00000  Uiso   1.00
H1078  H     0.95744   0.86921   0.62848   0.00000  Uiso   1.00
H1079  H     0.66718   0.84457   0.67794   0.00000  Uiso   1.00
H1080  H     0.93929   0.81868   0.65638   0.00000  Uiso   1.00
N1081  N     0.91895   0.61703   0.72266   0.00000  Uiso   1.00
H1082  H     0.95380   0.60480   0.73931   0.00000  Uiso   1.00
C1083  C     0.91826   0.62044   0.67051   0.00000  Uiso   1.00
H1084  H     0.92299   0.58723   0.65449   0.00000  Uiso   1.00
H1085  H     0.95060   0.64183   0.66276   0.00000  Uiso   1.00
H1086  H     0.88140   0.63527   0.65303   0.00000  Uiso   1.00
N1087  N     0.78012   0.88468   0.81784   0.00000  Uiso   1.00
H1088  H     0.78021   0.90089   0.85063   0.00000  Uiso   1.00
C1089  C     0.72871   0.87096   0.79705   0.00000  Uiso   1.00
H1090  H     0.70410   0.90033   0.78647   0.00000  Uiso   1.00
H1091  H     0.71099   0.85155   0.82437   0.00000  Uiso   1.00
H1092  H     0.73006   0.84975   0.76451   0.00000  Uiso   1.00
N1093  N     0.74964   0.79135   0.51940   0.00000  Uiso   1.00
H1094  H     0.71566   0.79023   0.53438   0.00000  Uiso   1.00
C1095  C     0.76016   0.83523   0.50273   0.00000  Uiso   1.00
H1096  H     0.72528   0.84828   0.97963   0.00000  Uiso   1.00
H1097  H     0.79228   0.83454   0.98044   0.00000  Uiso   1.00
H1098  H     0.77022   0.85774   0.53436   0.00000  Uiso   1.00
N1099  N     0.92159   0.78327   0.98151   0.00000  Uiso   1.00
H1100  H     0.95520   0.77923   0.96637   0.00000  Uiso   1.00
C1101  C     0.91650   0.82769   0.99963   0.00000  Uiso   1.00
H1102  H     0.95285   0.83729   0.52295   0.00000  Uiso   1.00
H1103  H     0.88462   0.82969   0.52213   0.00000  Uiso   1.00
H1104  H     0.90906   0.85131   0.96875   0.00000  Uiso   1.00
loop_
_geom_bond_atom_site_label_1
_geom_bond_atom_site_label_2
_geom_bond_distance
_geom_bond_site_symmetry_2
_ccdc_geom_bond_type
C1     C21     1.453   .     S
C1     O47     1.288   .     A
C1     O45     1.289   .     A
C2     O46     1.292   .     A
C2     C22     1.465   .     S
C2     O48     1.292   .     A
C3     C5      1.406   .     A
C3     C11     1.408   .     A
C3     H37     1.083   .     S
C4     C6      1.406   .     A
C4     C12     1.407   .     A
C4     H38     1.083   .     S
C5     H39     1.080   .     S
C5     N43     1.364   .     A
C6     N44     1.364   .     A
C6     H40     1.078   .     S
C7     N43     1.365   .     A
C7     H41     1.082   .     S
C7     C9      1.415   .     A
C8     N44     1.366   .     A
C8     H42     1.081   .     S
C8     C10     1.415   .     A
C9     C11     1.418   .     A
C9     N81     1.424   .     S
C10    N87     1.425   .     S
C10    C12     1.418   .     A
C11    C564    1.512   1_554 S
C12    C563    1.512   .     S
C13    O51     1.286   .     A
C13    O49     1.283   .     A
C13    C15     1.431   .     S
C14    O52     1.286   .     A
C14    C16     1.431   .     S
C14    O50     1.283   .     A
C15    C200    1.334   1_455 S
C15    H215    1.087   1_455 S
C16    C107    1.334   .     S
C16    H124    1.087   .     S
C17    H33     1.080   .     S
C17    C27     1.403   .     A
C17    C19     1.408   .     A
C18    C28     1.401   .     A
C18    H34     1.083   .     S
C18    C20     1.393   .     A
C19    C21     1.407   .     A
C19    O53     1.397   .     S
C20    O61     1.383   .     S
C20    C22     1.412   .     A
C21    C23     1.406   .     A
C22    C24     1.414   .     A
C23    N69     1.422   .     S
C23    C25     1.393   .     A
C24    C26     1.395   .     A
C24    N75     1.425   .     S
C25    H35     1.083   .     S
C25    C27     1.400   .     A
C26    H36     1.083   .     S
C26    C28     1.402   .     A
C27    C304    1.473   1_545 S
C28    C303    1.473   .     S
Cu29   O49     1.952   .     S
Cu29   Cu30    2.671   .     S
Cu29   O48     1.957   .     S
Cu29   O45     1.956   .     S
Cu29   N44     2.007   .     S
Cu29   O52     1.955   .     S
Cu30   O51     1.955   .     S
Cu30   O50     1.952   .     S
Cu30   O47     1.957   .     S
Cu30   N43     2.007   .     S
Cu30   O46     1.956   .     S
H31    C107    1.087   .     S
H32    C200    1.087   1_455 S
O53    C54     1.414   .     S
C54    H56     1.111   .     S
C54    H55     1.115   .     S
C54    C57     1.521   .     S
C57    H59     1.108   .     S
C57    H242    1.110   1_455 S
C57    H244    1.110   1_455 S
H58    C149    1.110   .     S
H60    C149    1.110   .     S
O61    C62     1.412   .     S
C62    H64     1.114   .     S
C62    H63     1.115   .     S
C62    C65     1.522   .     S
C65    H68     1.111   .     S
C65    H66     1.111   .     S
C65    H159    1.111   .     S
H67    C249    1.111   1_455 S
N69    C71     1.446   .     S
N69    H70     1.030   .     S
C71    H73     1.110   .     S
C71    H74     1.110   .     S
C71    H72     1.112   .     S
N75    H76     1.032   .     S
N75    C77     1.448   .     S
C77    H78     1.111   .     S
C77    H79     1.110   .     S
C77    H80     1.110   .     S
N81    H82     1.032   .     S
N81    C83     1.446   .     S
C83    H86     1.112   .     S
C83    H636    1.111   1_554 S
C83    H637    1.110   1_554 S
H84    C635    1.111   .     S
H85    C635    1.110   .     S
N87    H88     1.032   .     S
N87    C89     1.447   .     S
C89    H92     1.112   .     S
C89    H642    1.111   .     S
C89    H643    1.109   .     S
H90    C641    1.111   1_554 S
H91    C641    1.109   1_554 S
C93    C113    1.453   .     S
C93    O139    1.288   .     A
C93    O137    1.289   .     A
C94    O138    1.292   .     A
C94    C114    1.465   .     S
C94    O140    1.292   .     A
C95    C97     1.406   .     A
C95    C103    1.408   .     A
C95    H129    1.083   .     S
C96    C98     1.406   .     A
C96    C104    1.407   .     A
C96    H130    1.083   .     S
C97    H131    1.080   .     S
C97    N135    1.364   .     A
C98    N136    1.364   .     A
C98    H132    1.078   .     S
C99    N135    1.365   .     A
C99    H133    1.082   .     S
C99    C101    1.415   .     A
C100   N136    1.366   .     A
C100   H134    1.081   .     S
C100   C102    1.415   .     A
C101   C103    1.418   .     A
C101   N173    1.424   .     S
C102   N179    1.425   .     S
C102   C104    1.418   .     A
C103   C656    1.512   1_554 S
C104   C655    1.512   .     S
C105   O143    1.286   .     A
C105   O141    1.283   .     A
C105   C107    1.431   .     S
C106   O144    1.286   .     A
C106   C108    1.431   .     S
C106   O142    1.283   .     A
C108   C199    1.334   .     S
C108   H216    1.087   .     S
C109   H125    1.080   .     S
C109   C119    1.403   .     A
C109   C111    1.408   .     A
C110   C120    1.401   .     A
C110   H126    1.083   .     S
C110   C112    1.393   .     A
C111   C113    1.407   .     A
C111   O145    1.397   .     S
C112   O153    1.383   .     S
C112   C114    1.412   .     A
C113   C115    1.406   .     A
C114   C116    1.414   .     A
C115   N161    1.422   .     S
C115   C117    1.393   .     A
C116   C118    1.395   .     A
C116   N167    1.425   .     S
C117   H127    1.083   .     S
C117   C119    1.400   .     A
C118   H128    1.083   .     S
C118   C120    1.402   .     A
C119   C396    1.473   1_545 S
C120   C395    1.473   .     S
Cu121  O141    1.952   .     S
Cu121  Cu122   2.671   .     S
Cu121  O140    1.957   .     S
Cu121  O137    1.956   .     S
Cu121  N136    2.007   .     S
Cu121  O144    1.955   .     S
Cu122  O143    1.955   .     S
Cu122  O142    1.952   .     S
Cu122  O139    1.957   .     S
Cu122  N135    2.007   .     S
Cu122  O138    1.956   .     S
H123   C199    1.087   .     S
O145   C146    1.414   .     S
C146   H148    1.111   .     S
C146   H147    1.115   .     S
C146   C149    1.521   .     S
C149   H151    1.108   .     S
H150   C241    1.110   .     S
H152   C241    1.110   .     S
O153   C154    1.412   .     S
C154   H156    1.114   .     S
C154   H155    1.115   .     S
C154   C157    1.522   .     S
C157   H160    1.111   .     S
C157   H158    1.111   .     S
C157   H251    1.111   .     S
N161   C163    1.446   .     S
N161   H162    1.030   .     S
C163   H165    1.110   .     S
C163   H166    1.110   .     S
C163   H164    1.112   .     S
N167   H168    1.032   .     S
N167   C169    1.448   .     S
C169   H170    1.111   .     S
C169   H171    1.110   .     S
C169   H172    1.110   .     S
N173   H174    1.032   .     S
N173   C175    1.446   .     S
C175   H178    1.112   .     S
C175   H728    1.111   1_554 S
C175   H729    1.110   1_554 S
H176   C727    1.111   .     S
H177   C727    1.110   .     S
N179   H180    1.032   .     S
N179   C181    1.447   .     S
C181   H184    1.112   .     S
C181   H734    1.111   .     S
C181   H735    1.109   .     S
H182   C733    1.111   1_554 S
H183   C733    1.109   1_554 S
C185   C205    1.453   .     S
C185   O231    1.288   .     A
C185   O229    1.289   .     A
C186   O230    1.292   .     A
C186   C206    1.465   .     S
C186   O232    1.292   .     A
C187   C189    1.406   .     A
C187   C195    1.408   .     A
C187   H221    1.083   .     S
C188   C190    1.406   .     A
C188   C196    1.407   .     A
C188   H222    1.083   .     S
C189   H223    1.080   .     S
C189   N227    1.364   .     A
C190   N228    1.364   .     A
C190   H224    1.078   .     S
C191   N227    1.365   .     A
C191   H225    1.082   .     S
C191   C193    1.415   .     A
C192   N228    1.366   .     A
C192   H226    1.081   .     S
C192   C194    1.415   .     A
C193   C195    1.418   .     A
C193   N265    1.424   .     S
C194   N271    1.425   .     S
C194   C196    1.418   .     A
C195   C748    1.512   1_554 S
C196   C747    1.512   .     S
C197   O235    1.286   .     A
C197   O233    1.283   .     A
C197   C199    1.431   .     S
C198   O236    1.286   .     A
C198   C200    1.431   .     S
C198   O234    1.283   .     A
C200   C15     1.334   1_655 S
C200   H32     1.087   1_655 S
C201   H217    1.080   .     S
C201   C211    1.403   .     A
C201   C203    1.408   .     A
C202   C212    1.401   .     A
C202   H218    1.083   .     S
C202   C204    1.393   .     A
C203   C205    1.407   .     A
C203   O237    1.397   .     S
C204   O245    1.383   .     S
C204   C206    1.412   .     A
C205   C207    1.406   .     A
C206   C208    1.414   .     A
C207   N253    1.422   .     S
C207   C209    1.393   .     A
C208   C210    1.395   .     A
C208   N259    1.425   .     S
C209   H219    1.083   .     S
C209   C211    1.400   .     A
C210   H220    1.083   .     S
C210   C212    1.402   .     A
C211   C488    1.473   1_545 S
C212   C487    1.473   .     S
Cu213  O233    1.952   .     S
Cu213  Cu214   2.671   .     S
Cu213  O232    1.957   .     S
Cu213  O229    1.956   .     S
Cu213  N228    2.007   .     S
Cu213  O236    1.955   .     S
Cu214  O235    1.955   .     S
Cu214  O234    1.952   .     S
Cu214  O231    1.957   .     S
Cu214  N227    2.007   .     S
Cu214  O230    1.956   .     S
H215   C15     1.087   1_655 S
O237   C238    1.414   .     S
C238   H240    1.111   .     S
C238   H239    1.115   .     S
C238   C241    1.521   .     S
C241   H243    1.108   .     S
H242   C57     1.110   1_655 S
H244   C57     1.110   1_655 S
O245   C246    1.412   .     S
C246   H248    1.114   .     S
C246   H247    1.115   .     S
C246   C249    1.522   .     S
C249   H252    1.111   .     S
C249   H250    1.111   .     S
C249   H67     1.111   1_655 S
N253   C255    1.446   .     S
N253   H254    1.030   .     S
C255   H257    1.110   .     S
C255   H258    1.110   .     S
C255   H256    1.112   .     S
N259   H260    1.032   .     S
N259   C261    1.448   .     S
C261   H262    1.111   .     S
C261   H263    1.110   .     S
C261   H264    1.110   .     S
N265   H266    1.032   .     S
N265   C267    1.446   .     S
C267   H270    1.112   .     S
C267   H820    1.111   1_554 S
C267   H821    1.110   1_554 S
H268   C819    1.111   .     S
H269   C819    1.110   .     S
N271   H272    1.032   .     S
N271   C273    1.447   .     S
C273   H276    1.112   .     S
C273   H826    1.111   .     S
C273   H827    1.109   .     S
H274   C825    1.111   1_554 S
H275   C825    1.109   1_554 S
C277   C297    1.453   .     S
C277   O323    1.288   .     A
C277   O321    1.289   .     A
C278   O322    1.292   .     A
C278   C298    1.465   .     S
C278   O324    1.292   .     A
C279   C281    1.406   .     A
C279   C287    1.408   .     A
C279   H313    1.083   .     S
C280   C282    1.406   .     A
C280   C288    1.407   .     A
C280   H314    1.083   .     S
C281   H315    1.080   .     S
C281   N319    1.364   .     A
C282   N320    1.364   .     A
C282   H316    1.078   .     S
C283   N319    1.365   .     A
C283   H317    1.082   .     S
C283   C285    1.415   .     A
C284   N320    1.366   .     A
C284   H318    1.081   .     S
C284   C286    1.415   .     A
C285   C287    1.418   .     A
C285   N357    1.424   .     S
C286   N363    1.425   .     S
C286   C288    1.418   .     A
C287   C840    1.512   1_554 S
C288   C839    1.512   .     S
C289   O327    1.286   .     A
C289   O325    1.283   .     A
C289   C291    1.431   .     S
C290   O328    1.286   .     A
C290   C292    1.431   .     S
C290   O326    1.283   .     A
C291   C476    1.334   1_455 S
C291   H491    1.087   1_455 S
C292   C383    1.334   .     S
C292   H400    1.087   .     S
C293   H309    1.080   .     S
C293   C303    1.403   .     A
C293   C295    1.408   .     A
C294   C304    1.401   .     A
C294   H310    1.083   .     S
C294   C296    1.393   .     A
C295   C297    1.407   .     A
C295   O329    1.397   .     S
C296   O337    1.383   .     S
C296   C298    1.412   .     A
C297   C299    1.406   .     A
C298   C300    1.414   .     A
C299   N345    1.422   .     S
C299   C301    1.393   .     A
C300   C302    1.395   .     A
C300   N351    1.425   .     S
C301   H311    1.083   .     S
C301   C303    1.400   .     A
C302   H312    1.083   .     S
C302   C304    1.402   .     A
C304   C27     1.473   1_565 S
Cu305  O325    1.952   .     S
Cu305  Cu306   2.671   .     S
Cu305  O324    1.957   .     S
Cu305  O321    1.956   .     S
Cu305  N320    2.007   .     S
Cu305  O328    1.955   .     S
Cu306  O327    1.955   .     S
Cu306  O326    1.952   .     S
Cu306  O323    1.957   .     S
Cu306  N319    2.007   .     S
Cu306  O322    1.956   .     S
H307   C383    1.087   .     S
H308   C476    1.087   1_455 S
O329   C330    1.414   .     S
C330   H332    1.111   .     S
C330   H331    1.115   .     S
C330   C333    1.521   .     S
C333   H335    1.108   .     S
C333   H518    1.110   1_455 S
C333   H520    1.110   1_455 S
H334   C425    1.110   .     S
H336   C425    1.110   .     S
O337   C338    1.412   .     S
C338   H340    1.114   .     S
C338   H339    1.115   .     S
C338   C341    1.522   .     S
C341   H344    1.111   .     S
C341   H342    1.111   .     S
C341   H435    1.111   .     S
H343   C525    1.111   1_455 S
N345   C347    1.446   .     S
N345   H346    1.030   .     S
C347   H349    1.110   .     S
C347   H350    1.110   .     S
C347   H348    1.112   .     S
N351   H352    1.032   .     S
N351   C353    1.448   .     S
C353   H354    1.111   .     S
C353   H355    1.110   .     S
C353   H356    1.110   .     S
N357   H358    1.032   .     S
N357   C359    1.446   .     S
C359   H362    1.112   .     S
C359   H912    1.111   1_554 S
C359   H913    1.110   1_554 S
H360   C911    1.111   .     S
H361   C911    1.110   .     S
N363   H364    1.032   .     S
N363   C365    1.447   .     S
C365   H368    1.112   .     S
C365   H918    1.111   .     S
C365   H919    1.109   .     S
H366   C917    1.111   1_554 S
H367   C917    1.109   1_554 S
C369   C389    1.453   .     S
C369   O415    1.288   .     A
C369   O413    1.289   .     A
C370   O414    1.292   .     A
C370   C390    1.465   .     S
C370   O416    1.292   .     A
C371   C373    1.406   .     A
C371   C379    1.408   .     A
C371   H405    1.083   .     S
C372   C374    1.406   .     A
C372   C380    1.407   .     A
C372   H406    1.083   .     S
C373   H407    1.080   .     S
C373   N411    1.364   .     A
C374   N412    1.364   .     A
C374   H408    1.078   .     S
C375   N411    1.365   .     A
C375   H409    1.082   .     S
C375   C377    1.415   .     A
C376   N412    1.366   .     A
C376   H410    1.081   .     S
C376   C378    1.415   .     A
C377   C379    1.418   .     A
C377   N449    1.424   .     S
C378   N455    1.425   .     S
C378   C380    1.418   .     A
C379   C932    1.512   1_554 S
C380   C931    1.512   .     S
C381   O419    1.286   .     A
C381   O417    1.283   .     A
C381   C383    1.431   .     S
C382   O420    1.286   .     A
C382   C384    1.431   .     S
C382   O418    1.283   .     A
C384   C475    1.334   .     S
C384   H492    1.087   .     S
C385   H401    1.080   .     S
C385   C395    1.403   .     A
C385   C387    1.408   .     A
C386   C396    1.401   .     A
C386   H402    1.083   .     S
C386   C388    1.393   .     A
C387   C389    1.407   .     A
C387   O421    1.397   .     S
C388   O429    1.383   .     S
C388   C390    1.412   .     A
C389   C391    1.406   .     A
C390   C392    1.414   .     A
C391   N437    1.422   .     S
C391   C393    1.393   .     A
C392   C394    1.395   .     A
C392   N443    1.425   .     S
C393   H403    1.083   .     S
C393   C395    1.400   .     A
C394   H404    1.083   .     S
C394   C396    1.402   .     A
C396   C119    1.473   1_565 S
Cu397  O417    1.952   .     S
Cu397  Cu398   2.671   .     S
Cu397  O416    1.957   .     S
Cu397  O413    1.956   .     S
Cu397  N412    2.007   .     S
Cu397  O420    1.955   .     S
Cu398  O419    1.955   .     S
Cu398  O418    1.952   .     S
Cu398  O415    1.957   .     S
Cu398  N411    2.007   .     S
Cu398  O414    1.956   .     S
H399   C475    1.087   .     S
O421   C422    1.414   .     S
C422   H424    1.111   .     S
C422   H423    1.115   .     S
C422   C425    1.521   .     S
C425   H427    1.108   .     S
H426   C517    1.110   .     S
H428   C517    1.110   .     S
O429   C430    1.412   .     S
C430   H432    1.114   .     S
C430   H431    1.115   .     S
C430   C433    1.522   .     S
C433   H436    1.111   .     S
C433   H434    1.111   .     S
C433   H527    1.111   .     S
N437   C439    1.446   .     S
N437   H438    1.030   .     S
C439   H441    1.110   .     S
C439   H442    1.110   .     S
C439   H440    1.112   .     S
N443   H444    1.032   .     S
N443   C445    1.448   .     S
C445   H446    1.111   .     S
C445   H447    1.110   .     S
C445   H448    1.110   .     S
N449   H450    1.032   .     S
N449   C451    1.446   .     S
C451   H454    1.112   .     S
C451   H1004   1.111   1_554 S
C451   H1005   1.110   1_554 S
H452   C1003   1.111   .     S
H453   C1003   1.110   .     S
N455   H456    1.032   .     S
N455   C457    1.447   .     S
C457   H460    1.112   .     S
C457   H1010   1.111   .     S
C457   H1011   1.109   .     S
H458   C1009   1.111   1_554 S
H459   C1009   1.109   1_554 S
C461   C481    1.453   .     S
C461   O507    1.288   .     A
C461   O505    1.289   .     A
C462   O506    1.292   .     A
C462   C482    1.465   .     S
C462   O508    1.292   .     A
C463   C465    1.406   .     A
C463   C471    1.408   .     A
C463   H497    1.083   .     S
C464   C466    1.406   .     A
C464   C472    1.407   .     A
C464   H498    1.083   .     S
C465   H499    1.080   .     S
C465   N503    1.364   .     A
C466   N504    1.364   .     A
C466   H500    1.078   .     S
C467   N503    1.365   .     A
C467   H501    1.082   .     S
C467   C469    1.415   .     A
C468   N504    1.366   .     A
C468   H502    1.081   .     S
C468   C470    1.415   .     A
C469   C471    1.418   .     A
C469   N541    1.424   .     S
C470   N547    1.425   .     S
C470   C472    1.418   .     A
C471   C1024   1.512   1_554 S
C472   C1023   1.512   .     S
C473   O511    1.286   .     A
C473   O509    1.283   .     A
C473   C475    1.431   .     S
C474   O512    1.286   .     A
C474   C476    1.431   .     S
C474   O510    1.283   .     A
C476   C291    1.334   1_655 S
C476   H308    1.087   1_655 S
C477   H493    1.080   .     S
C477   C487    1.403   .     A
C477   C479    1.408   .     A
C478   C488    1.401   .     A
C478   H494    1.083   .     S
C478   C480    1.393   .     A
C479   C481    1.407   .     A
C479   O513    1.397   .     S
C480   O521    1.383   .     S
C480   C482    1.412   .     A
C481   C483    1.406   .     A
C482   C484    1.414   .     A
C483   N529    1.422   .     S
C483   C485    1.393   .     A
C484   C486    1.395   .     A
C484   N535    1.425   .     S
C485   H495    1.083   .     S
C485   C487    1.400   .     A
C486   H496    1.083   .     S
C486   C488    1.402   .     A
C488   C211    1.473   1_565 S
Cu489  O509    1.952   .     S
Cu489  Cu490   2.671   .     S
Cu489  O508    1.957   .     S
Cu489  O505    1.956   .     S
Cu489  N504    2.007   .     S
Cu489  O512    1.955   .     S
Cu490  O511    1.955   .     S
Cu490  O510    1.952   .     S
Cu490  O507    1.957   .     S
Cu490  N503    2.007   .     S
Cu490  O506    1.956   .     S
H491   C291    1.087   1_655 S
O513   C514    1.414   .     S
C514   H516    1.111   .     S
C514   H515    1.115   .     S
C514   C517    1.521   .     S
C517   H519    1.108   .     S
H518   C333    1.110   1_655 S
H520   C333    1.110   1_655 S
O521   C522    1.412   .     S
C522   H524    1.114   .     S
C522   H523    1.115   .     S
C522   C525    1.522   .     S
C525   H528    1.111   .     S
C525   H526    1.111   .     S
C525   H343    1.111   1_655 S
N529   C531    1.446   .     S
N529   H530    1.030   .     S
C531   H533    1.110   .     S
C531   H534    1.110   .     S
C531   H532    1.112   .     S
N535   H536    1.032   .     S
N535   C537    1.448   .     S
C537   H538    1.111   .     S
C537   H539    1.110   .     S
C537   H540    1.110   .     S
N541   H542    1.032   .     S
N541   C543    1.446   .     S
C543   H546    1.112   .     S
C543   H1096   1.111   1_554 S
C543   H1097   1.110   1_554 S
H544   C1095   1.111   .     S
H545   C1095   1.110   .     S
N547   H548    1.032   .     S
N547   C549    1.447   .     S
C549   H552    1.112   .     S
C549   H1102   1.111   .     S
C549   H1103   1.109   .     S
H550   C1101   1.111   1_554 S
H551   C1101   1.109   1_554 S
C553   C573    1.453   .     S
C553   O599    1.288   .     A
C553   O597    1.289   .     A
C554   O598    1.292   .     A
C554   C574    1.465   .     S
C554   O600    1.292   .     A
C555   C557    1.406   .     A
C555   C563    1.408   .     A
C555   H589    1.083   .     S
C556   C558    1.406   .     A
C556   C564    1.407   .     A
C556   H590    1.083   .     S
C557   H591    1.080   .     S
C557   N595    1.364   .     A
C558   N596    1.364   .     A
C558   H592    1.078   .     S
C559   N595    1.365   .     A
C559   H593    1.082   .     S
C559   C561    1.415   .     A
C560   N596    1.366   .     A
C560   H594    1.081   .     S
C560   C562    1.415   .     A
C561   C563    1.418   .     A
C561   N633    1.424   .     S
C562   N639    1.425   .     S
C562   C564    1.418   .     A
C564   C11     1.512   1_556 S
C565   O603    1.286   .     A
C565   O601    1.283   .     A
C565   C567    1.431   .     S
C566   O604    1.286   .     A
C566   C568    1.431   .     S
C566   O602    1.283   .     A
C567   C752    1.334   1_455 S
C567   H767    1.087   1_455 S
C568   C659    1.334   .     S
C568   H676    1.087   .     S
C569   H585    1.080   .     S
C569   C579    1.403   .     A
C569   C571    1.408   .     A
C570   C580    1.401   .     A
C570   H586    1.083   .     S
C570   C572    1.393   .     A
C571   C573    1.407   .     A
C571   O605    1.397   .     S
C572   O613    1.383   .     S
C572   C574    1.412   .     A
C573   C575    1.406   .     A
C574   C576    1.414   .     A
C575   N621    1.422   .     S
C575   C577    1.393   .     A
C576   C578    1.395   .     A
C576   N627    1.425   .     S
C577   H587    1.083   .     S
C577   C579    1.400   .     A
C578   H588    1.083   .     S
C578   C580    1.402   .     A
C579   C856    1.473   1_545 S
C580   C855    1.473   .     S
Cu581  O601    1.952   .     S
Cu581  Cu582   2.671   .     S
Cu581  O600    1.957   .     S
Cu581  O597    1.956   .     S
Cu581  N596    2.007   .     S
Cu581  O604    1.955   .     S
Cu582  O603    1.955   .     S
Cu582  O602    1.952   .     S
Cu582  O599    1.957   .     S
Cu582  N595    2.007   .     S
Cu582  O598    1.956   .     S
H583   C659    1.087   .     S
H584   C752    1.087   1_455 S
O605   C606    1.414   .     S
C606   H608    1.111   .     S
C606   H607    1.115   .     S
C606   C609    1.521   .     S
C609   H611    1.108   .     S
C609   H794    1.110   1_455 S
C609   H796    1.110   1_455 S
H610   C701    1.110   .     S
H612   C701    1.110   .     S
O613   C614    1.412   .     S
C614   H616    1.114   .     S
C614   H615    1.115   .     S
C614   C617    1.522   .     S
C617   H620    1.111   .     S
C617   H618    1.111   .     S
C617   H711    1.111   .     S
H619   C801    1.111   1_455 S
N621   C623    1.446   .     S
N621   H622    1.030   .     S
C623   H625    1.110   .     S
C623   H626    1.110   .     S
C623   H624    1.112   .     S
N627   H628    1.032   .     S
N627   C629    1.448   .     S
C629   H630    1.111   .     S
C629   H631    1.110   .     S
C629   H632    1.110   .     S
N633   H634    1.032   .     S
N633   C635    1.446   .     S
C635   H638    1.112   .     S
H636   C83     1.111   1_556 S
H637   C83     1.110   1_556 S
N639   H640    1.032   .     S
N639   C641    1.447   .     S
C641   H644    1.112   .     S
C641   H90     1.111   1_556 S
C641   H91     1.109   1_556 S
C645   C665    1.453   .     S
C645   O691    1.288   .     A
C645   O689    1.289   .     A
C646   O690    1.292   .     A
C646   C666    1.465   .     S
C646   O692    1.292   .     A
C647   C649    1.406   .     A
C647   C655    1.408   .     A
C647   H681    1.083   .     S
C648   C650    1.406   .     A
C648   C656    1.407   .     A
C648   H682    1.083   .     S
C649   H683    1.080   .     S
C649   N687    1.364   .     A
C650   N688    1.364   .     A
C650   H684    1.078   .     S
C651   N687    1.365   .     A
C651   H685    1.082   .     S
C651   C653    1.415   .     A
C652   N688    1.366   .     A
C652   H686    1.081   .     S
C652   C654    1.415   .     A
C653   C655    1.418   .     A
C653   N725    1.424   .     S
C654   N731    1.425   .     S
C654   C656    1.418   .     A
C656   C103    1.512   1_556 S
C657   O695    1.286   .     A
C657   O693    1.283   .     A
C657   C659    1.431   .     S
C658   O696    1.286   .     A
C658   C660    1.431   .     S
C658   O694    1.283   .     A
C660   C751    1.334   .     S
C660   H768    1.087   .     S
C661   H677    1.080   .     S
C661   C671    1.403   .     A
C661   C663    1.408   .     A
C662   C672    1.401   .     A
C662   H678    1.083   .     S
C662   C664    1.393   .     A
C663   C665    1.407   .     A
C663   O697    1.397   .     S
C664   O705    1.383   .     S
C664   C666    1.412   .     A
C665   C667    1.406   .     A
C666   C668    1.414   .     A
C667   N713    1.422   .     S
C667   C669    1.393   .     A
C668   C670    1.395   .     A
C668   N719    1.425   .     S
C669   H679    1.083   .     S
C669   C671    1.400   .     A
C670   H680    1.083   .     S
C670   C672    1.402   .     A
C671   C948    1.473   1_545 S
C672   C947    1.473   .     S
Cu673  O693    1.952   .     S
Cu673  Cu674   2.671   .     S
Cu673  O692    1.957   .     S
Cu673  O689    1.956   .     S
Cu673  N688    2.007   .     S
Cu673  O696    1.955   .     S
Cu674  O695    1.955   .     S
Cu674  O694    1.952   .     S
Cu674  O691    1.957   .     S
Cu674  N687    2.007   .     S
Cu674  O690    1.956   .     S
H675   C751    1.087   .     S
O697   C698    1.414   .     S
C698   H700    1.111   .     S
C698   H699    1.115   .     S
C698   C701    1.521   .     S
C701   H703    1.108   .     S
H702   C793    1.110   .     S
H704   C793    1.110   .     S
O705   C706    1.412   .     S
C706   H708    1.114   .     S
C706   H707    1.115   .     S
C706   C709    1.522   .     S
C709   H712    1.111   .     S
C709   H710    1.111   .     S
C709   H803    1.111   .     S
N713   C715    1.446   .     S
N713   H714    1.030   .     S
C715   H717    1.110   .     S
C715   H718    1.110   .     S
C715   H716    1.112   .     S
N719   H720    1.032   .     S
N719   C721    1.448   .     S
C721   H722    1.111   .     S
C721   H723    1.110   .     S
C721   H724    1.110   .     S
N725   H726    1.032   .     S
N725   C727    1.446   .     S
C727   H730    1.112   .     S
H728   C175    1.111   1_556 S
H729   C175    1.110   1_556 S
N731   H732    1.032   .     S
N731   C733    1.447   .     S
C733   H736    1.112   .     S
C733   H182    1.111   1_556 S
C733   H183    1.109   1_556 S
C737   C757    1.453   .     S
C737   O783    1.288   .     A
C737   O781    1.289   .     A
C738   O782    1.292   .     A
C738   C758    1.465   .     S
C738   O784    1.292   .     A
C739   C741    1.406   .     A
C739   C747    1.408   .     A
C739   H773    1.083   .     S
C740   C742    1.406   .     A
C740   C748    1.407   .     A
C740   H774    1.083   .     S
C741   H775    1.080   .     S
C741   N779    1.364   .     A
C742   N780    1.364   .     A
C742   H776    1.078   .     S
C743   N779    1.365   .     A
C743   H777    1.082   .     S
C743   C745    1.415   .     A
C744   N780    1.366   .     A
C744   H778    1.081   .     S
C744   C746    1.415   .     A
C745   C747    1.418   .     A
C745   N817    1.424   .     S
C746   N823    1.425   .     S
C746   C748    1.418   .     A
C748   C195    1.512   1_556 S
C749   O787    1.286   .     A
C749   O785    1.283   .     A
C749   C751    1.431   .     S
C750   O788    1.286   .     A
C750   C752    1.431   .     S
C750   O786    1.283   .     A
C752   C567    1.334   1_655 S
C752   H584    1.087   1_655 S
C753   H769    1.080   .     S
C753   C763    1.403   .     A
C753   C755    1.408   .     A
C754   C764    1.401   .     A
C754   H770    1.083   .     S
C754   C756    1.393   .     A
C755   C757    1.407   .     A
C755   O789    1.397   .     S
C756   O797    1.383   .     S
C756   C758    1.412   .     A
C757   C759    1.406   .     A
C758   C760    1.414   .     A
C759   N805    1.422   .     S
C759   C761    1.393   .     A
C760   C762    1.395   .     A
C760   N811    1.425   .     S
C761   H771    1.083   .     S
C761   C763    1.400   .     A
C762   H772    1.083   .     S
C762   C764    1.402   .     A
C763   C1040   1.473   1_545 S
C764   C1039   1.473   .     S
Cu765  O785    1.952   .     S
Cu765  Cu766   2.671   .     S
Cu765  O784    1.957   .     S
Cu765  O781    1.956   .     S
Cu765  N780    2.007   .     S
Cu765  O788    1.955   .     S
Cu766  O787    1.955   .     S
Cu766  O786    1.952   .     S
Cu766  O783    1.957   .     S
Cu766  N779    2.007   .     S
Cu766  O782    1.956   .     S
H767   C567    1.087   1_655 S
O789   C790    1.414   .     S
C790   H792    1.111   .     S
C790   H791    1.115   .     S
C790   C793    1.521   .     S
C793   H795    1.108   .     S
H794   C609    1.110   1_655 S
H796   C609    1.110   1_655 S
O797   C798    1.412   .     S
C798   H800    1.114   .     S
C798   H799    1.115   .     S
C798   C801    1.522   .     S
C801   H804    1.111   .     S
C801   H802    1.111   .     S
C801   H619    1.111   1_655 S
N805   C807    1.446   .     S
N805   H806    1.030   .     S
C807   H809    1.110   .     S
C807   H810    1.110   .     S
C807   H808    1.112   .     S
N811   H812    1.032   .     S
N811   C813    1.448   .     S
C813   H814    1.111   .     S
C813   H815    1.110   .     S
C813   H816    1.110   .     S
N817   H818    1.032   .     S
N817   C819    1.446   .     S
C819   H822    1.112   .     S
H820   C267    1.111   1_556 S
H821   C267    1.110   1_556 S
N823   H824    1.032   .     S
N823   C825    1.447   .     S
C825   H828    1.112   .     S
C825   H274    1.111   1_556 S
C825   H275    1.109   1_556 S
C829   C849    1.453   .     S
C829   O875    1.288   .     A
C829   O873    1.289   .     A
C830   O874    1.292   .     A
C830   C850    1.465   .     S
C830   O876    1.292   .     A
C831   C833    1.406   .     A
C831   C839    1.408   .     A
C831   H865    1.083   .     S
C832   C834    1.406   .     A
C832   C840    1.407   .     A
C832   H866    1.083   .     S
C833   H867    1.080   .     S
C833   N871    1.364   .     A
C834   N872    1.364   .     A
C834   H868    1.078   .     S
C835   N871    1.365   .     A
C835   H869    1.082   .     S
C835   C837    1.415   .     A
C836   N872    1.366   .     A
C836   H870    1.081   .     S
C836   C838    1.415   .     A
C837   C839    1.418   .     A
C837   N909    1.424   .     S
C838   N915    1.425   .     S
C838   C840    1.418   .     A
C840   C287    1.512   1_556 S
C841   O879    1.286   .     A
C841   O877    1.283   .     A
C841   C843    1.431   .     S
C842   O880    1.286   .     A
C842   C844    1.431   .     S
C842   O878    1.283   .     A
C843   C1028   1.334   1_455 S
C843   H1043   1.087   1_455 S
C844   C935    1.334   .     S
C844   H952    1.087   .     S
C845   H861    1.080   .     S
C845   C855    1.403   .     A
C845   C847    1.408   .     A
C846   C856    1.401   .     A
C846   H862    1.083   .     S
C846   C848    1.393   .     A
C847   C849    1.407   .     A
C847   O881    1.397   .     S
C848   O889    1.383   .     S
C848   C850    1.412   .     A
C849   C851    1.406   .     A
C850   C852    1.414   .     A
C851   N897    1.422   .     S
C851   C853    1.393   .     A
C852   C854    1.395   .     A
C852   N903    1.425   .     S
C853   H863    1.083   .     S
C853   C855    1.400   .     A
C854   H864    1.083   .     S
C854   C856    1.402   .     A
C856   C579    1.473   1_565 S
Cu857  O877    1.952   .     S
Cu857  Cu858   2.671   .     S
Cu857  O876    1.957   .     S
Cu857  O873    1.956   .     S
Cu857  N872    2.007   .     S
Cu857  O880    1.955   .     S
Cu858  O879    1.955   .     S
Cu858  O878    1.952   .     S
Cu858  O875    1.957   .     S
Cu858  N871    2.007   .     S
Cu858  O874    1.956   .     S
H859   C935    1.087   .     S
H860   C1028   1.087   1_455 S
O881   C882    1.414   .     S
C882   H884    1.111   .     S
C882   H883    1.115   .     S
C882   C885    1.521   .     S
C885   H887    1.108   .     S
C885   H1070   1.110   1_455 S
C885   H1072   1.110   1_455 S
H886   C977    1.110   .     S
H888   C977    1.110   .     S
O889   C890    1.412   .     S
C890   H892    1.114   .     S
C890   H891    1.115   .     S
C890   C893    1.522   .     S
C893   H896    1.111   .     S
C893   H894    1.111   .     S
C893   H987    1.111   .     S
H895   C1077   1.111   1_455 S
N897   C899    1.446   .     S
N897   H898    1.030   .     S
C899   H901    1.110   .     S
C899   H902    1.110   .     S
C899   H900    1.112   .     S
N903   H904    1.032   .     S
N903   C905    1.448   .     S
C905   H906    1.111   .     S
C905   H907    1.110   .     S
C905   H908    1.110   .     S
N909   H910    1.032   .     S
N909   C911    1.446   .     S
C911   H914    1.112   .     S
H912   C359    1.111   1_556 S
H913   C359    1.110   1_556 S
N915   H916    1.032   .     S
N915   C917    1.447   .     S
C917   H920    1.112   .     S
C917   H366    1.111   1_556 S
C917   H367    1.109   1_556 S
C921   C941    1.453   .     S
C921   O967    1.288   .     A
C921   O965    1.289   .     A
C922   O966    1.292   .     A
C922   C942    1.465   .     S
C922   O968    1.292   .     A
C923   C925    1.406   .     A
C923   C931    1.408   .     A
C923   H957    1.083   .     S
C924   C926    1.406   .     A
C924   C932    1.407   .     A
C924   H958    1.083   .     S
C925   H959    1.080   .     S
C925   N963    1.364   .     A
C926   N964    1.364   .     A
C926   H960    1.078   .     S
C927   N963    1.365   .     A
C927   H961    1.082   .     S
C927   C929    1.415   .     A
C928   N964    1.366   .     A
C928   H962    1.081   .     S
C928   C930    1.415   .     A
C929   C931    1.418   .     A
C929   N1001   1.424   .     S
C930   N1007   1.425   .     S
C930   C932    1.418   .     A
C932   C379    1.512   1_556 S
C933   O971    1.286   .     A
C933   O969    1.283   .     A
C933   C935    1.431   .     S
C934   O972    1.286   .     A
C934   C936    1.431   .     S
C934   O970    1.283   .     A
C936   C1027   1.334   .     S
C936   H1044   1.087   .     S
C937   H953    1.080   .     S
C937   C947    1.403   .     A
C937   C939    1.408   .     A
C938   C948    1.401   .     A
C938   H954    1.083   .     S
C938   C940    1.393   .     A
C939   C941    1.407   .     A
C939   O973    1.397   .     S
C940   O981    1.383   .     S
C940   C942    1.412   .     A
C941   C943    1.406   .     A
C942   C944    1.414   .     A
C943   N989    1.422   .     S
C943   C945    1.393   .     A
C944   C946    1.395   .     A
C944   N995    1.425   .     S
C945   H955    1.083   .     S
C945   C947    1.400   .     A
C946   H956    1.083   .     S
C946   C948    1.402   .     A
C948   C671    1.473   1_565 S
Cu949  O969    1.952   .     S
Cu949  Cu950   2.671   .     S
Cu949  O968    1.957   .     S
Cu949  O965    1.956   .     S
Cu949  N964    2.007   .     S
Cu949  O972    1.955   .     S
Cu950  O971    1.955   .     S
Cu950  O970    1.952   .     S
Cu950  O967    1.957   .     S
Cu950  N963    2.007   .     S
Cu950  O966    1.956   .     S
H951   C1027   1.087   .     S
O973   C974    1.414   .     S
C974   H976    1.111   .     S
C974   H975    1.115   .     S
C974   C977    1.521   .     S
C977   H979    1.108   .     S
H978   C1069   1.110   .     S
H980   C1069   1.110   .     S
O981   C982    1.412   .     S
C982   H984    1.114   .     S
C982   H983    1.115   .     S
C982   C985    1.522   .     S
C985   H988    1.111   .     S
C985   H986    1.111   .     S
C985   H1079   1.111   .     S
N989   C991    1.446   .     S
N989   H990    1.030   .     S
C991   H993    1.110   .     S
C991   H994    1.110   .     S
C991   H992    1.112   .     S
N995   H996    1.032   .     S
N995   C997    1.448   .     S
C997   H998    1.111   .     S
C997   H999    1.110   .     S
C997   H1000   1.110   .     S
N1001  H1002   1.032   .     S
N1001  C1003   1.446   .     S
C1003  H1006   1.112   .     S
H1004  C451    1.111   1_556 S
H1005  C451    1.110   1_556 S
N1007  H1008   1.032   .     S
N1007  C1009   1.447   .     S
C1009  H1012   1.112   .     S
C1009  H458    1.111   1_556 S
C1009  H459    1.109   1_556 S
C1013  C1033   1.453   .     S
C1013  O1059   1.288   .     A
C1013  O1057   1.289   .     A
C1014  O1058   1.292   .     A
C1014  C1034   1.465   .     S
C1014  O1060   1.292   .     A
C1015  C1017   1.406   .     A
C1015  C1023   1.408   .     A
C1015  H1049   1.083   .     S
C1016  C1018   1.406   .     A
C1016  C1024   1.407   .     A
C1016  H1050   1.083   .     S
C1017  H1051   1.080   .     S
C1017  N1055   1.364   .     A
C1018  N1056   1.364   .     A
C1018  H1052   1.078   .     S
C1019  N1055   1.365   .     A
C1019  H1053   1.082   .     S
C1019  C1021   1.415   .     A
C1020  N1056   1.366   .     A
C1020  H1054   1.081   .     S
C1020  C1022   1.415   .     A
C1021  C1023   1.418   .     A
C1021  N1093   1.424   .     S
C1022  N1099   1.425   .     S
C1022  C1024   1.418   .     A
C1024  C471    1.512   1_556 S
C1025  O1063   1.286   .     A
C1025  O1061   1.283   .     A
C1025  C1027   1.431   .     S
C1026  O1064   1.286   .     A
C1026  C1028   1.431   .     S
C1026  O1062   1.283   .     A
C1028  C843    1.334   1_655 S
C1028  H860    1.087   1_655 S
C1029  H1045   1.080   .     S
C1029  C1039   1.403   .     A
C1029  C1031   1.408   .     A
C1030  C1040   1.401   .     A
C1030  H1046   1.083   .     S
C1030  C1032   1.393   .     A
C1031  C1033   1.407   .     A
C1031  O1065   1.397   .     S
C1032  O1073   1.383   .     S
C1032  C1034   1.412   .     A
C1033  C1035   1.406   .     A
C1034  C1036   1.414   .     A
C1035  N1081   1.422   .     S
C1035  C1037   1.393   .     A
C1036  C1038   1.395   .     A
C1036  N1087   1.425   .     S
C1037  H1047   1.083   .     S
C1037  C1039   1.400   .     A
C1038  H1048   1.083   .     S
C1038  C1040   1.402   .     A
C1040  C763    1.473   1_565 S
Cu1041 O1061   1.952   .     S
Cu1041 Cu1042  2.671   .     S
Cu1041 O1060   1.957   .     S
Cu1041 O1057   1.956   .     S
Cu1041 N1056   2.007   .     S
Cu1041 O1064   1.955   .     S
Cu1042 O1063   1.955   .     S
Cu1042 O1062   1.952   .     S
Cu1042 O1059   1.957   .     S
Cu1042 N1055   2.007   .     S
Cu1042 O1058   1.956   .     S
H1043  C843    1.087   1_655 S
O1065  C1066   1.414   .     S
C1066  H1068   1.111   .     S
C1066  H1067   1.115   .     S
C1066  C1069   1.521   .     S
C1069  H1071   1.108   .     S
H1070  C885    1.110   1_655 S
H1072  C885    1.110   1_655 S
O1073  C1074   1.412   .     S
C1074  H1076   1.114   .     S
C1074  H1075   1.115   .     S
C1074  C1077   1.522   .     S
C1077  H1080   1.111   .     S
C1077  H1078   1.111   .     S
C1077  H895    1.111   1_655 S
N1081  C1083   1.446   .     S
N1081  H1082   1.030   .     S
C1083  H1085   1.110   .     S
C1083  H1086   1.110   .     S
C1083  H1084   1.112   .     S
N1087  H1088   1.032   .     S
N1087  C1089   1.448   .     S
C1089  H1090   1.111   .     S
C1089  H1091   1.110   .     S
C1089  H1092   1.110   .     S
N1093  H1094   1.032   .     S
N1093  C1095   1.446   .     S
C1095  H1098   1.112   .     S
H1096  C543    1.111   1_556 S
H1097  C543    1.110   1_556 S
N1099  H1100   1.032   .     S
N1099  C1101   1.447   .     S
C1101  H1104   1.112   .     S
C1101  H550    1.111   1_556 S
C1101  H551    1.109   1_556 S
