data_str_m2_o10_o18_pcu_sym.101
_audit_creation_date              2020-01-03
_audit_creation_method            'Materials Studio'
_symmetry_space_group_name_H-M    'P1'
_symmetry_Int_Tables_number       1
_symmetry_cell_setting            triclinic
loop_
_symmetry_equiv_pos_as_xyz
  x,y,z
_cell_length_a                    22.3990
_cell_length_b                    26.0795
_cell_length_c                    31.4264
_cell_angle_alpha                 94.2442
_cell_angle_beta                  74.8678
_cell_angle_gamma                 103.2269
loop_
_atom_site_label
_atom_site_type_symbol
_atom_site_fract_x
_atom_site_fract_y
_atom_site_fract_z
_atom_site_U_iso_or_equiv
_atom_site_adp_type
_atom_site_occupancy
O1     O     0.12815   0.23809   0.24686   0.00000  Uiso   1.00
O2     O     0.20518   0.09524   0.25314   0.00000  Uiso   1.00
O3     O     0.22829   0.24753   0.25503   0.00000  Uiso   1.00
O4     O     0.10504   0.08580   0.24498   0.00000  Uiso   1.00
C5     C     0.18169   0.26668   0.25130   0.00000  Uiso   1.00
C6     C     0.15164   0.06665   0.24870   0.00000  Uiso   1.00
O7     O     0.08851   0.15930   0.30854   0.00000  Uiso   1.00
O8     O     0.24482   0.17403   0.19146   0.00000  Uiso   1.00
O9     O     0.18866   0.16874   0.31671   0.00000  Uiso   1.00
O10    O     0.14468   0.16460   0.18329   0.00000  Uiso   1.00
C11    C     0.12791   0.16231   0.33317   0.00000  Uiso   1.00
C12    C     0.20542   0.17102   0.16683   0.00000  Uiso   1.00
Cu13   Cu    0.10737   0.16108   0.24517   0.00000  Uiso   1.00
Cu14   Cu    0.22596   0.17225   0.25484   0.00000  Uiso   1.00
C15    C     0.10393   0.15406   0.38074   0.00000  Uiso   1.00
C16    C     0.22940   0.17928   0.11926   0.00000  Uiso   1.00
C17    C     0.02872   0.10746   0.44297   0.00000  Uiso   1.00
C18    C     0.30458   0.22590   0.05703   0.00000  Uiso   1.00
C19    C     0.04708   0.11844   0.39808   0.00000  Uiso   1.00
C20    C     0.28624   0.21492   0.10192   0.00000  Uiso   1.00
C21    C     0.14305   0.17670   0.40825   0.00000  Uiso   1.00
C22    C     0.19027   0.15663   0.09175   0.00000  Uiso   1.00
C23    C     0.13123   0.15852   0.45130   0.00000  Uiso   1.00
C24    C     0.20208   0.17481   0.04871   0.00000  Uiso   1.00
C25    C     0.07038   0.12754   0.46974   0.00000  Uiso   1.00
C26    C     0.26292   0.20580   0.03026   0.00000  Uiso   1.00
C27    C     0.17702   0.17141   0.47680   0.00000  Uiso   1.00
C28    C     0.15630   0.16192   0.02320   0.00000  Uiso   1.00
C29    C     0.09050   0.14056   0.04221   0.00000  Uiso   1.00
C30    C     0.24283   0.19272   0.45778   0.00000  Uiso   1.00
C31    C     0.05053   0.11936   0.01490   0.00000  Uiso   1.00
C32    C     0.28278   0.21397   0.48511   0.00000  Uiso   1.00
H33    H     0.00164   0.10045   0.02947   0.00000  Uiso   1.00
H34    H     0.33167   0.23288   0.47055   0.00000  Uiso   1.00
H35    H     0.15003   0.12546   0.10496   0.00000  Uiso   1.00
H36    H     0.18332   0.20785   0.39504   0.00000  Uiso   1.00
H37    H     0.31606   0.23431   0.12307   0.00000  Uiso   1.00
H38    H     0.01726   0.09907   0.37693   0.00000  Uiso   1.00
H39    H     0.31607   0.08232   0.45654   0.00000  Uiso   1.00
H40    H     0.01722   0.25104   0.04347   0.00000  Uiso   1.00
C41    C     0.19009   0.32269   0.25191   0.00000  Uiso   1.00
C42    C     0.14324   0.01064   0.24809   0.00000  Uiso   1.00
H43    H     0.23523   0.01318   0.25552   0.00000  Uiso   1.00
H44    H     0.09811   0.32015   0.24448   0.00000  Uiso   1.00
N45    N     0.31506   0.18068   0.26212   0.00000  Uiso   1.00
N46    N     0.01827   0.15265   0.23788   0.00000  Uiso   1.00
H47    H     0.00105   0.20506   0.28463   0.00000  Uiso   1.00
H48    H     0.33228   0.12827   0.21537   0.00000  Uiso   1.00
N49    N     0.06145   0.14534   0.08845   0.00000  Uiso   1.00
O50    O     0.01537   0.10807   0.10839   0.00000  Uiso   1.00
O51    O     0.07558   0.18952   0.10948   0.00000  Uiso   1.00
N52    N     0.27191   0.18779   0.41155   0.00000  Uiso   1.00
O53    O     0.25748   0.14359   0.39061   0.00000  Uiso   1.00
O54    O     0.31879   0.22452   0.39175   0.00000  Uiso   1.00
O55    O     0.46148   0.23809   0.24686   0.00000  Uiso   1.00
O56    O     0.53852   0.09524   0.25314   0.00000  Uiso   1.00
O57    O     0.56163   0.24753   0.25503   0.00000  Uiso   1.00
O58    O     0.43837   0.08580   0.24498   0.00000  Uiso   1.00
C59    C     0.51502   0.26668   0.25130   0.00000  Uiso   1.00
C60    C     0.48498   0.06665   0.24870   0.00000  Uiso   1.00
O61    O     0.42185   0.15930   0.30854   0.00000  Uiso   1.00
O62    O     0.57815   0.17403   0.19146   0.00000  Uiso   1.00
O63    O     0.52199   0.16874   0.31671   0.00000  Uiso   1.00
O64    O     0.47801   0.16460   0.18329   0.00000  Uiso   1.00
C65    C     0.46124   0.16231   0.33317   0.00000  Uiso   1.00
C66    C     0.53875   0.17102   0.16683   0.00000  Uiso   1.00
Cu67   Cu    0.44071   0.16108   0.24517   0.00000  Uiso   1.00
Cu68   Cu    0.55929   0.17225   0.25484   0.00000  Uiso   1.00
C69    C     0.43726   0.15406   0.38074   0.00000  Uiso   1.00
C70    C     0.56273   0.17928   0.11926   0.00000  Uiso   1.00
C71    C     0.36205   0.10746   0.44297   0.00000  Uiso   1.00
C72    C     0.63792   0.22590   0.05703   0.00000  Uiso   1.00
C73    C     0.38041   0.11844   0.39808   0.00000  Uiso   1.00
C74    C     0.61957   0.21492   0.10192   0.00000  Uiso   1.00
C75    C     0.47639   0.17670   0.40825   0.00000  Uiso   1.00
C76    C     0.52360   0.15663   0.09175   0.00000  Uiso   1.00
C77    C     0.46456   0.15852   0.45130   0.00000  Uiso   1.00
C78    C     0.53542   0.17481   0.04871   0.00000  Uiso   1.00
C79    C     0.40371   0.12754   0.46974   0.00000  Uiso   1.00
C80    C     0.59626   0.20580   0.03026   0.00000  Uiso   1.00
C81    C     0.51035   0.17141   0.47680   0.00000  Uiso   1.00
C82    C     0.48963   0.16192   0.02320   0.00000  Uiso   1.00
C83    C     0.42383   0.14056   0.04221   0.00000  Uiso   1.00
C84    C     0.57616   0.19272   0.45778   0.00000  Uiso   1.00
C85    C     0.38386   0.11936   0.01490   0.00000  Uiso   1.00
C86    C     0.61611   0.21397   0.48511   0.00000  Uiso   1.00
H87    H     0.33497   0.10045   0.02947   0.00000  Uiso   1.00
H88    H     0.66501   0.23288   0.47055   0.00000  Uiso   1.00
H89    H     0.48336   0.12546   0.10496   0.00000  Uiso   1.00
H90    H     0.51665   0.20785   0.39504   0.00000  Uiso   1.00
H91    H     0.64939   0.23431   0.12307   0.00000  Uiso   1.00
H92    H     0.35060   0.09907   0.37693   0.00000  Uiso   1.00
H93    H     0.64941   0.08232   0.45654   0.00000  Uiso   1.00
H94    H     0.35055   0.25104   0.04347   0.00000  Uiso   1.00
C95    C     0.52343   0.32269   0.25191   0.00000  Uiso   1.00
C96    C     0.47657   0.01064   0.24809   0.00000  Uiso   1.00
H97    H     0.56856   0.01318   0.25552   0.00000  Uiso   1.00
H98    H     0.43144   0.32015   0.24448   0.00000  Uiso   1.00
N99    N     0.64839   0.18068   0.26212   0.00000  Uiso   1.00
N100   N     0.35161   0.15265   0.23788   0.00000  Uiso   1.00
H101   H     0.33438   0.20506   0.28463   0.00000  Uiso   1.00
H102   H     0.66562   0.12827   0.21537   0.00000  Uiso   1.00
N103   N     0.39478   0.14534   0.08845   0.00000  Uiso   1.00
O104   O     0.34870   0.10807   0.10839   0.00000  Uiso   1.00
O105   O     0.40891   0.18952   0.10948   0.00000  Uiso   1.00
N106   N     0.60524   0.18779   0.41155   0.00000  Uiso   1.00
O107   O     0.59081   0.14359   0.39061   0.00000  Uiso   1.00
O108   O     0.65212   0.22452   0.39175   0.00000  Uiso   1.00
O109   O     0.79482   0.23809   0.24686   0.00000  Uiso   1.00
O110   O     0.87185   0.09524   0.25314   0.00000  Uiso   1.00
O111   O     0.89496   0.24753   0.25503   0.00000  Uiso   1.00
O112   O     0.77171   0.08580   0.24498   0.00000  Uiso   1.00
C113   C     0.84836   0.26668   0.25130   0.00000  Uiso   1.00
C114   C     0.81831   0.06665   0.24870   0.00000  Uiso   1.00
O115   O     0.75518   0.15930   0.30854   0.00000  Uiso   1.00
O116   O     0.91149   0.17403   0.19146   0.00000  Uiso   1.00
O117   O     0.85532   0.16874   0.31671   0.00000  Uiso   1.00
O118   O     0.81134   0.16460   0.18329   0.00000  Uiso   1.00
C119   C     0.79458   0.16231   0.33317   0.00000  Uiso   1.00
C120   C     0.87209   0.17102   0.16683   0.00000  Uiso   1.00
Cu121  Cu    0.77404   0.16108   0.24517   0.00000  Uiso   1.00
Cu122  Cu    0.89263   0.17225   0.25484   0.00000  Uiso   1.00
C123   C     0.77060   0.15406   0.38074   0.00000  Uiso   1.00
C124   C     0.89607   0.17928   0.11926   0.00000  Uiso   1.00
C125   C     0.69538   0.10746   0.44297   0.00000  Uiso   1.00
C126   C     0.97125   0.22590   0.05703   0.00000  Uiso   1.00
C127   C     0.71375   0.11844   0.39808   0.00000  Uiso   1.00
C128   C     0.95291   0.21492   0.10192   0.00000  Uiso   1.00
C129   C     0.80972   0.17670   0.40825   0.00000  Uiso   1.00
C130   C     0.85693   0.15663   0.09175   0.00000  Uiso   1.00
C131   C     0.79789   0.15852   0.45130   0.00000  Uiso   1.00
C132   C     0.86875   0.17481   0.04871   0.00000  Uiso   1.00
C133   C     0.73704   0.12754   0.46974   0.00000  Uiso   1.00
C134   C     0.92959   0.20580   0.03026   0.00000  Uiso   1.00
C135   C     0.84368   0.17141   0.47680   0.00000  Uiso   1.00
C136   C     0.82296   0.16192   0.02320   0.00000  Uiso   1.00
C137   C     0.75717   0.14056   0.04221   0.00000  Uiso   1.00
C138   C     0.90950   0.19272   0.45778   0.00000  Uiso   1.00
C139   C     0.71720   0.11936   0.01490   0.00000  Uiso   1.00
C140   C     0.94944   0.21397   0.48511   0.00000  Uiso   1.00
H141   H     0.66831   0.10045   0.02947   0.00000  Uiso   1.00
H142   H     0.99834   0.23288   0.47055   0.00000  Uiso   1.00
H143   H     0.81669   0.12546   0.10496   0.00000  Uiso   1.00
H144   H     0.84999   0.20785   0.39504   0.00000  Uiso   1.00
H145   H     0.98272   0.23431   0.12307   0.00000  Uiso   1.00
H146   H     0.68393   0.09907   0.37693   0.00000  Uiso   1.00
H147   H     0.98274   0.08232   0.45654   0.00000  Uiso   1.00
H148   H     0.68389   0.25104   0.04347   0.00000  Uiso   1.00
C149   C     0.85676   0.32269   0.25191   0.00000  Uiso   1.00
C150   C     0.80991   0.01064   0.24809   0.00000  Uiso   1.00
H151   H     0.90189   0.01318   0.25552   0.00000  Uiso   1.00
H152   H     0.76477   0.32015   0.24448   0.00000  Uiso   1.00
N153   N     0.98173   0.18068   0.26212   0.00000  Uiso   1.00
N154   N     0.68494   0.15265   0.23788   0.00000  Uiso   1.00
H155   H     0.66772   0.20506   0.28463   0.00000  Uiso   1.00
H156   H     0.99895   0.12827   0.21537   0.00000  Uiso   1.00
N157   N     0.72812   0.14534   0.08845   0.00000  Uiso   1.00
O158   O     0.68203   0.10807   0.10839   0.00000  Uiso   1.00
O159   O     0.74225   0.18952   0.10948   0.00000  Uiso   1.00
N160   N     0.93857   0.18779   0.41155   0.00000  Uiso   1.00
O161   O     0.92415   0.14359   0.39061   0.00000  Uiso   1.00
O162   O     0.98545   0.22452   0.39175   0.00000  Uiso   1.00
O163   O     0.12815   0.57142   0.24686   0.00000  Uiso   1.00
O164   O     0.20518   0.42858   0.25314   0.00000  Uiso   1.00
O165   O     0.22829   0.58086   0.25503   0.00000  Uiso   1.00
O166   O     0.10504   0.41914   0.24498   0.00000  Uiso   1.00
C167   C     0.18169   0.60002   0.25130   0.00000  Uiso   1.00
C168   C     0.15164   0.39998   0.24870   0.00000  Uiso   1.00
O169   O     0.08851   0.49263   0.30854   0.00000  Uiso   1.00
O170   O     0.24482   0.50737   0.19146   0.00000  Uiso   1.00
O171   O     0.18866   0.50207   0.31671   0.00000  Uiso   1.00
O172   O     0.14468   0.49793   0.18329   0.00000  Uiso   1.00
C173   C     0.12791   0.49564   0.33317   0.00000  Uiso   1.00
C174   C     0.20542   0.50436   0.16683   0.00000  Uiso   1.00
Cu175  Cu    0.10737   0.49441   0.24517   0.00000  Uiso   1.00
Cu176  Cu    0.22596   0.50559   0.25484   0.00000  Uiso   1.00
C177   C     0.10393   0.48739   0.38074   0.00000  Uiso   1.00
C178   C     0.22940   0.51261   0.11926   0.00000  Uiso   1.00
C179   C     0.02872   0.44079   0.44297   0.00000  Uiso   1.00
C180   C     0.30458   0.55923   0.05703   0.00000  Uiso   1.00
C181   C     0.04708   0.45177   0.39808   0.00000  Uiso   1.00
C182   C     0.28624   0.54825   0.10192   0.00000  Uiso   1.00
C183   C     0.14305   0.51003   0.40825   0.00000  Uiso   1.00
C184   C     0.19027   0.48997   0.09175   0.00000  Uiso   1.00
C185   C     0.13123   0.49185   0.45130   0.00000  Uiso   1.00
C186   C     0.20208   0.50815   0.04871   0.00000  Uiso   1.00
C187   C     0.07038   0.46088   0.46974   0.00000  Uiso   1.00
C188   C     0.26292   0.53913   0.03026   0.00000  Uiso   1.00
C189   C     0.17702   0.50474   0.47680   0.00000  Uiso   1.00
C190   C     0.15630   0.49525   0.02320   0.00000  Uiso   1.00
C191   C     0.09050   0.47390   0.04221   0.00000  Uiso   1.00
C192   C     0.24283   0.52606   0.45778   0.00000  Uiso   1.00
C193   C     0.05053   0.45269   0.01490   0.00000  Uiso   1.00
C194   C     0.28278   0.54730   0.48511   0.00000  Uiso   1.00
H195   H     0.00164   0.43378   0.02947   0.00000  Uiso   1.00
H196   H     0.33167   0.56621   0.47055   0.00000  Uiso   1.00
H197   H     0.15003   0.45879   0.10496   0.00000  Uiso   1.00
H198   H     0.18332   0.54119   0.39504   0.00000  Uiso   1.00
H199   H     0.31606   0.56765   0.12307   0.00000  Uiso   1.00
H200   H     0.01726   0.43240   0.37693   0.00000  Uiso   1.00
H201   H     0.31607   0.41566   0.45654   0.00000  Uiso   1.00
H202   H     0.01722   0.58438   0.04347   0.00000  Uiso   1.00
C203   C     0.19009   0.65602   0.25191   0.00000  Uiso   1.00
C204   C     0.14324   0.34398   0.24809   0.00000  Uiso   1.00
H205   H     0.23523   0.34652   0.25552   0.00000  Uiso   1.00
H206   H     0.09811   0.65348   0.24448   0.00000  Uiso   1.00
N207   N     0.31506   0.51401   0.26212   0.00000  Uiso   1.00
N208   N     0.01827   0.48599   0.23788   0.00000  Uiso   1.00
H209   H     0.00105   0.53839   0.28463   0.00000  Uiso   1.00
H210   H     0.33228   0.46161   0.21537   0.00000  Uiso   1.00
N211   N     0.06145   0.47868   0.08845   0.00000  Uiso   1.00
O212   O     0.01537   0.44140   0.10839   0.00000  Uiso   1.00
O213   O     0.07558   0.52286   0.10948   0.00000  Uiso   1.00
N214   N     0.27191   0.52113   0.41155   0.00000  Uiso   1.00
O215   O     0.25748   0.47693   0.39061   0.00000  Uiso   1.00
O216   O     0.31879   0.55786   0.39175   0.00000  Uiso   1.00
O217   O     0.46148   0.57142   0.24686   0.00000  Uiso   1.00
O218   O     0.53852   0.42858   0.25314   0.00000  Uiso   1.00
O219   O     0.56163   0.58086   0.25503   0.00000  Uiso   1.00
O220   O     0.43837   0.41914   0.24498   0.00000  Uiso   1.00
C221   C     0.51502   0.60002   0.25130   0.00000  Uiso   1.00
C222   C     0.48498   0.39998   0.24870   0.00000  Uiso   1.00
O223   O     0.42185   0.49263   0.30854   0.00000  Uiso   1.00
O224   O     0.57815   0.50737   0.19146   0.00000  Uiso   1.00
O225   O     0.52199   0.50207   0.31671   0.00000  Uiso   1.00
O226   O     0.47801   0.49793   0.18329   0.00000  Uiso   1.00
C227   C     0.46124   0.49564   0.33317   0.00000  Uiso   1.00
C228   C     0.53875   0.50436   0.16683   0.00000  Uiso   1.00
Cu229  Cu    0.44071   0.49441   0.24517   0.00000  Uiso   1.00
Cu230  Cu    0.55929   0.50559   0.25484   0.00000  Uiso   1.00
C231   C     0.43726   0.48739   0.38074   0.00000  Uiso   1.00
C232   C     0.56273   0.51261   0.11926   0.00000  Uiso   1.00
C233   C     0.36205   0.44079   0.44297   0.00000  Uiso   1.00
C234   C     0.63792   0.55923   0.05703   0.00000  Uiso   1.00
C235   C     0.38041   0.45177   0.39808   0.00000  Uiso   1.00
C236   C     0.61957   0.54825   0.10192   0.00000  Uiso   1.00
C237   C     0.47639   0.51003   0.40825   0.00000  Uiso   1.00
C238   C     0.52360   0.48997   0.09175   0.00000  Uiso   1.00
C239   C     0.46456   0.49185   0.45130   0.00000  Uiso   1.00
C240   C     0.53542   0.50815   0.04871   0.00000  Uiso   1.00
C241   C     0.40371   0.46088   0.46974   0.00000  Uiso   1.00
C242   C     0.59626   0.53913   0.03026   0.00000  Uiso   1.00
C243   C     0.51035   0.50474   0.47680   0.00000  Uiso   1.00
C244   C     0.48963   0.49525   0.02320   0.00000  Uiso   1.00
C245   C     0.42383   0.47390   0.04221   0.00000  Uiso   1.00
C246   C     0.57616   0.52606   0.45778   0.00000  Uiso   1.00
C247   C     0.38386   0.45269   0.01490   0.00000  Uiso   1.00
C248   C     0.61611   0.54730   0.48511   0.00000  Uiso   1.00
H249   H     0.33497   0.43378   0.02947   0.00000  Uiso   1.00
H250   H     0.66501   0.56621   0.47055   0.00000  Uiso   1.00
H251   H     0.48336   0.45879   0.10496   0.00000  Uiso   1.00
H252   H     0.51665   0.54119   0.39504   0.00000  Uiso   1.00
H253   H     0.64939   0.56765   0.12307   0.00000  Uiso   1.00
H254   H     0.35060   0.43240   0.37693   0.00000  Uiso   1.00
H255   H     0.64941   0.41566   0.45654   0.00000  Uiso   1.00
H256   H     0.35055   0.58438   0.04347   0.00000  Uiso   1.00
C257   C     0.52343   0.65602   0.25191   0.00000  Uiso   1.00
C258   C     0.47657   0.34398   0.24809   0.00000  Uiso   1.00
H259   H     0.56856   0.34652   0.25552   0.00000  Uiso   1.00
H260   H     0.43144   0.65348   0.24448   0.00000  Uiso   1.00
N261   N     0.64839   0.51401   0.26212   0.00000  Uiso   1.00
N262   N     0.35161   0.48599   0.23788   0.00000  Uiso   1.00
H263   H     0.33438   0.53839   0.28463   0.00000  Uiso   1.00
H264   H     0.66562   0.46161   0.21537   0.00000  Uiso   1.00
N265   N     0.39478   0.47868   0.08845   0.00000  Uiso   1.00
O266   O     0.34870   0.44140   0.10839   0.00000  Uiso   1.00
O267   O     0.40891   0.52286   0.10948   0.00000  Uiso   1.00
N268   N     0.60524   0.52113   0.41155   0.00000  Uiso   1.00
O269   O     0.59081   0.47693   0.39061   0.00000  Uiso   1.00
O270   O     0.65212   0.55786   0.39175   0.00000  Uiso   1.00
O271   O     0.79482   0.57142   0.24686   0.00000  Uiso   1.00
O272   O     0.87185   0.42858   0.25314   0.00000  Uiso   1.00
O273   O     0.89496   0.58086   0.25503   0.00000  Uiso   1.00
O274   O     0.77171   0.41914   0.24498   0.00000  Uiso   1.00
C275   C     0.84836   0.60002   0.25130   0.00000  Uiso   1.00
C276   C     0.81831   0.39998   0.24870   0.00000  Uiso   1.00
O277   O     0.75518   0.49263   0.30854   0.00000  Uiso   1.00
O278   O     0.91149   0.50737   0.19146   0.00000  Uiso   1.00
O279   O     0.85532   0.50207   0.31671   0.00000  Uiso   1.00
O280   O     0.81134   0.49793   0.18329   0.00000  Uiso   1.00
C281   C     0.79458   0.49564   0.33317   0.00000  Uiso   1.00
C282   C     0.87209   0.50436   0.16683   0.00000  Uiso   1.00
Cu283  Cu    0.77404   0.49441   0.24517   0.00000  Uiso   1.00
Cu284  Cu    0.89263   0.50559   0.25484   0.00000  Uiso   1.00
C285   C     0.77060   0.48739   0.38074   0.00000  Uiso   1.00
C286   C     0.89607   0.51261   0.11926   0.00000  Uiso   1.00
C287   C     0.69538   0.44079   0.44297   0.00000  Uiso   1.00
C288   C     0.97125   0.55923   0.05703   0.00000  Uiso   1.00
C289   C     0.71375   0.45177   0.39808   0.00000  Uiso   1.00
C290   C     0.95291   0.54825   0.10192   0.00000  Uiso   1.00
C291   C     0.80972   0.51003   0.40825   0.00000  Uiso   1.00
C292   C     0.85693   0.48997   0.09175   0.00000  Uiso   1.00
C293   C     0.79789   0.49185   0.45130   0.00000  Uiso   1.00
C294   C     0.86875   0.50815   0.04871   0.00000  Uiso   1.00
C295   C     0.73704   0.46088   0.46974   0.00000  Uiso   1.00
C296   C     0.92959   0.53913   0.03026   0.00000  Uiso   1.00
C297   C     0.84368   0.50474   0.47680   0.00000  Uiso   1.00
C298   C     0.82296   0.49525   0.02320   0.00000  Uiso   1.00
C299   C     0.75717   0.47390   0.04221   0.00000  Uiso   1.00
C300   C     0.90950   0.52606   0.45778   0.00000  Uiso   1.00
C301   C     0.71720   0.45269   0.01490   0.00000  Uiso   1.00
C302   C     0.94944   0.54730   0.48511   0.00000  Uiso   1.00
H303   H     0.66831   0.43378   0.02947   0.00000  Uiso   1.00
H304   H     0.99834   0.56621   0.47055   0.00000  Uiso   1.00
H305   H     0.81669   0.45879   0.10496   0.00000  Uiso   1.00
H306   H     0.84999   0.54119   0.39504   0.00000  Uiso   1.00
H307   H     0.98272   0.56765   0.12307   0.00000  Uiso   1.00
H308   H     0.68393   0.43240   0.37693   0.00000  Uiso   1.00
H309   H     0.98274   0.41566   0.45654   0.00000  Uiso   1.00
H310   H     0.68389   0.58438   0.04347   0.00000  Uiso   1.00
C311   C     0.85676   0.65602   0.25191   0.00000  Uiso   1.00
C312   C     0.80991   0.34398   0.24809   0.00000  Uiso   1.00
H313   H     0.90189   0.34652   0.25552   0.00000  Uiso   1.00
H314   H     0.76477   0.65348   0.24448   0.00000  Uiso   1.00
N315   N     0.98173   0.51401   0.26212   0.00000  Uiso   1.00
N316   N     0.68494   0.48599   0.23788   0.00000  Uiso   1.00
H317   H     0.66772   0.53839   0.28463   0.00000  Uiso   1.00
H318   H     0.99895   0.46161   0.21537   0.00000  Uiso   1.00
N319   N     0.72812   0.47868   0.08845   0.00000  Uiso   1.00
O320   O     0.68203   0.44140   0.10839   0.00000  Uiso   1.00
O321   O     0.74225   0.52286   0.10948   0.00000  Uiso   1.00
N322   N     0.93857   0.52113   0.41155   0.00000  Uiso   1.00
O323   O     0.92415   0.47693   0.39061   0.00000  Uiso   1.00
O324   O     0.98545   0.55786   0.39175   0.00000  Uiso   1.00
O325   O     0.12815   0.90476   0.24686   0.00000  Uiso   1.00
O326   O     0.20518   0.76191   0.25314   0.00000  Uiso   1.00
O327   O     0.22829   0.91420   0.25503   0.00000  Uiso   1.00
O328   O     0.10504   0.75247   0.24498   0.00000  Uiso   1.00
C329   C     0.18169   0.93335   0.25130   0.00000  Uiso   1.00
C330   C     0.15164   0.73332   0.24870   0.00000  Uiso   1.00
O331   O     0.08851   0.82597   0.30854   0.00000  Uiso   1.00
O332   O     0.24482   0.84070   0.19146   0.00000  Uiso   1.00
O333   O     0.18866   0.83540   0.31671   0.00000  Uiso   1.00
O334   O     0.14468   0.83126   0.18329   0.00000  Uiso   1.00
C335   C     0.12791   0.82898   0.33317   0.00000  Uiso   1.00
C336   C     0.20542   0.83769   0.16683   0.00000  Uiso   1.00
Cu337  Cu    0.10737   0.82775   0.24517   0.00000  Uiso   1.00
Cu338  Cu    0.22596   0.83892   0.25484   0.00000  Uiso   1.00
C339   C     0.10393   0.82072   0.38074   0.00000  Uiso   1.00
C340   C     0.22940   0.84595   0.11926   0.00000  Uiso   1.00
C341   C     0.02872   0.77413   0.44297   0.00000  Uiso   1.00
C342   C     0.30458   0.89257   0.05703   0.00000  Uiso   1.00
C343   C     0.04708   0.78511   0.39808   0.00000  Uiso   1.00
C344   C     0.28624   0.88158   0.10192   0.00000  Uiso   1.00
C345   C     0.14305   0.84337   0.40825   0.00000  Uiso   1.00
C346   C     0.19027   0.82330   0.09175   0.00000  Uiso   1.00
C347   C     0.13123   0.82519   0.45130   0.00000  Uiso   1.00
C348   C     0.20208   0.84148   0.04871   0.00000  Uiso   1.00
C349   C     0.07038   0.79421   0.46974   0.00000  Uiso   1.00
C350   C     0.26292   0.87247   0.03026   0.00000  Uiso   1.00
C351   C     0.17702   0.83807   0.47680   0.00000  Uiso   1.00
C352   C     0.15630   0.82858   0.02320   0.00000  Uiso   1.00
C353   C     0.09050   0.80723   0.04221   0.00000  Uiso   1.00
C354   C     0.24283   0.85939   0.45778   0.00000  Uiso   1.00
C355   C     0.05053   0.78603   0.01490   0.00000  Uiso   1.00
C356   C     0.28278   0.88064   0.48511   0.00000  Uiso   1.00
H357   H     0.00164   0.76712   0.02947   0.00000  Uiso   1.00
H358   H     0.33167   0.89955   0.47055   0.00000  Uiso   1.00
H359   H     0.15003   0.79212   0.10496   0.00000  Uiso   1.00
H360   H     0.18332   0.87452   0.39504   0.00000  Uiso   1.00
H361   H     0.31606   0.90098   0.12307   0.00000  Uiso   1.00
H362   H     0.01726   0.76573   0.37693   0.00000  Uiso   1.00
H363   H     0.31607   0.74899   0.45654   0.00000  Uiso   1.00
H364   H     0.01722   0.91771   0.04347   0.00000  Uiso   1.00
C365   C     0.19009   0.98936   0.25191   0.00000  Uiso   1.00
C366   C     0.14324   0.67731   0.24809   0.00000  Uiso   1.00
H367   H     0.23523   0.67985   0.25552   0.00000  Uiso   1.00
H368   H     0.09811   0.98682   0.24448   0.00000  Uiso   1.00
N369   N     0.31506   0.84735   0.26212   0.00000  Uiso   1.00
N370   N     0.01827   0.81932   0.23788   0.00000  Uiso   1.00
H371   H     0.00105   0.87173   0.28463   0.00000  Uiso   1.00
H372   H     0.33228   0.79494   0.21537   0.00000  Uiso   1.00
N373   N     0.06145   0.81201   0.08845   0.00000  Uiso   1.00
O374   O     0.01537   0.77474   0.10839   0.00000  Uiso   1.00
O375   O     0.07558   0.85619   0.10948   0.00000  Uiso   1.00
N376   N     0.27191   0.85446   0.41155   0.00000  Uiso   1.00
O377   O     0.25748   0.81026   0.39061   0.00000  Uiso   1.00
O378   O     0.31879   0.89119   0.39175   0.00000  Uiso   1.00
O379   O     0.46148   0.90476   0.24686   0.00000  Uiso   1.00
O380   O     0.53852   0.76191   0.25314   0.00000  Uiso   1.00
O381   O     0.56163   0.91420   0.25503   0.00000  Uiso   1.00
O382   O     0.43837   0.75247   0.24498   0.00000  Uiso   1.00
C383   C     0.51502   0.93335   0.25130   0.00000  Uiso   1.00
C384   C     0.48498   0.73332   0.24870   0.00000  Uiso   1.00
O385   O     0.42185   0.82597   0.30854   0.00000  Uiso   1.00
O386   O     0.57815   0.84070   0.19146   0.00000  Uiso   1.00
O387   O     0.52199   0.83540   0.31671   0.00000  Uiso   1.00
O388   O     0.47801   0.83126   0.18329   0.00000  Uiso   1.00
C389   C     0.46124   0.82898   0.33317   0.00000  Uiso   1.00
C390   C     0.53875   0.83769   0.16683   0.00000  Uiso   1.00
Cu391  Cu    0.44071   0.82775   0.24517   0.00000  Uiso   1.00
Cu392  Cu    0.55929   0.83892   0.25484   0.00000  Uiso   1.00
C393   C     0.43726   0.82072   0.38074   0.00000  Uiso   1.00
C394   C     0.56273   0.84595   0.11926   0.00000  Uiso   1.00
C395   C     0.36205   0.77413   0.44297   0.00000  Uiso   1.00
C396   C     0.63792   0.89257   0.05703   0.00000  Uiso   1.00
C397   C     0.38041   0.78511   0.39808   0.00000  Uiso   1.00
C398   C     0.61957   0.88158   0.10192   0.00000  Uiso   1.00
C399   C     0.47639   0.84337   0.40825   0.00000  Uiso   1.00
C400   C     0.52360   0.82330   0.09175   0.00000  Uiso   1.00
C401   C     0.46456   0.82519   0.45130   0.00000  Uiso   1.00
C402   C     0.53542   0.84148   0.04871   0.00000  Uiso   1.00
C403   C     0.40371   0.79421   0.46974   0.00000  Uiso   1.00
C404   C     0.59626   0.87247   0.03026   0.00000  Uiso   1.00
C405   C     0.51035   0.83807   0.47680   0.00000  Uiso   1.00
C406   C     0.48963   0.82858   0.02320   0.00000  Uiso   1.00
C407   C     0.42383   0.80723   0.04221   0.00000  Uiso   1.00
C408   C     0.57616   0.85939   0.45778   0.00000  Uiso   1.00
C409   C     0.38386   0.78603   0.01490   0.00000  Uiso   1.00
C410   C     0.61611   0.88064   0.48511   0.00000  Uiso   1.00
H411   H     0.33497   0.76712   0.02947   0.00000  Uiso   1.00
H412   H     0.66501   0.89955   0.47055   0.00000  Uiso   1.00
H413   H     0.48336   0.79212   0.10496   0.00000  Uiso   1.00
H414   H     0.51665   0.87452   0.39504   0.00000  Uiso   1.00
H415   H     0.64939   0.90098   0.12307   0.00000  Uiso   1.00
H416   H     0.35060   0.76573   0.37693   0.00000  Uiso   1.00
H417   H     0.64941   0.74899   0.45654   0.00000  Uiso   1.00
H418   H     0.35055   0.91771   0.04347   0.00000  Uiso   1.00
C419   C     0.52343   0.98936   0.25191   0.00000  Uiso   1.00
C420   C     0.47657   0.67731   0.24809   0.00000  Uiso   1.00
H421   H     0.56856   0.67985   0.25552   0.00000  Uiso   1.00
H422   H     0.43144   0.98682   0.24448   0.00000  Uiso   1.00
N423   N     0.64839   0.84735   0.26212   0.00000  Uiso   1.00
N424   N     0.35161   0.81932   0.23788   0.00000  Uiso   1.00
H425   H     0.33438   0.87173   0.28463   0.00000  Uiso   1.00
H426   H     0.66562   0.79494   0.21537   0.00000  Uiso   1.00
N427   N     0.39478   0.81201   0.08845   0.00000  Uiso   1.00
O428   O     0.34870   0.77474   0.10839   0.00000  Uiso   1.00
O429   O     0.40891   0.85619   0.10948   0.00000  Uiso   1.00
N430   N     0.60524   0.85446   0.41155   0.00000  Uiso   1.00
O431   O     0.59081   0.81026   0.39061   0.00000  Uiso   1.00
O432   O     0.65212   0.89119   0.39175   0.00000  Uiso   1.00
O433   O     0.79482   0.90476   0.24686   0.00000  Uiso   1.00
O434   O     0.87185   0.76191   0.25314   0.00000  Uiso   1.00
O435   O     0.89496   0.91420   0.25503   0.00000  Uiso   1.00
O436   O     0.77171   0.75247   0.24498   0.00000  Uiso   1.00
C437   C     0.84836   0.93335   0.25130   0.00000  Uiso   1.00
C438   C     0.81831   0.73332   0.24870   0.00000  Uiso   1.00
O439   O     0.75518   0.82597   0.30854   0.00000  Uiso   1.00
O440   O     0.91149   0.84070   0.19146   0.00000  Uiso   1.00
O441   O     0.85532   0.83540   0.31671   0.00000  Uiso   1.00
O442   O     0.81134   0.83126   0.18329   0.00000  Uiso   1.00
C443   C     0.79458   0.82898   0.33317   0.00000  Uiso   1.00
C444   C     0.87209   0.83769   0.16683   0.00000  Uiso   1.00
Cu445  Cu    0.77404   0.82775   0.24517   0.00000  Uiso   1.00
Cu446  Cu    0.89263   0.83892   0.25484   0.00000  Uiso   1.00
C447   C     0.77060   0.82072   0.38074   0.00000  Uiso   1.00
C448   C     0.89607   0.84595   0.11926   0.00000  Uiso   1.00
C449   C     0.69538   0.77413   0.44297   0.00000  Uiso   1.00
C450   C     0.97125   0.89257   0.05703   0.00000  Uiso   1.00
C451   C     0.71375   0.78511   0.39808   0.00000  Uiso   1.00
C452   C     0.95291   0.88158   0.10192   0.00000  Uiso   1.00
C453   C     0.80972   0.84337   0.40825   0.00000  Uiso   1.00
C454   C     0.85693   0.82330   0.09175   0.00000  Uiso   1.00
C455   C     0.79789   0.82519   0.45130   0.00000  Uiso   1.00
C456   C     0.86875   0.84148   0.04871   0.00000  Uiso   1.00
C457   C     0.73704   0.79421   0.46974   0.00000  Uiso   1.00
C458   C     0.92959   0.87247   0.03026   0.00000  Uiso   1.00
C459   C     0.84368   0.83807   0.47680   0.00000  Uiso   1.00
C460   C     0.82296   0.82858   0.02320   0.00000  Uiso   1.00
C461   C     0.75717   0.80723   0.04221   0.00000  Uiso   1.00
C462   C     0.90950   0.85939   0.45778   0.00000  Uiso   1.00
C463   C     0.71720   0.78603   0.01490   0.00000  Uiso   1.00
C464   C     0.94944   0.88064   0.48511   0.00000  Uiso   1.00
H465   H     0.66831   0.76712   0.02947   0.00000  Uiso   1.00
H466   H     0.99834   0.89955   0.47055   0.00000  Uiso   1.00
H467   H     0.81669   0.79212   0.10496   0.00000  Uiso   1.00
H468   H     0.84999   0.87452   0.39504   0.00000  Uiso   1.00
H469   H     0.98272   0.90098   0.12307   0.00000  Uiso   1.00
H470   H     0.68393   0.76573   0.37693   0.00000  Uiso   1.00
H471   H     0.98274   0.74899   0.45654   0.00000  Uiso   1.00
H472   H     0.68389   0.91771   0.04347   0.00000  Uiso   1.00
C473   C     0.85676   0.98936   0.25191   0.00000  Uiso   1.00
C474   C     0.80991   0.67731   0.24809   0.00000  Uiso   1.00
H475   H     0.90189   0.67985   0.25552   0.00000  Uiso   1.00
H476   H     0.76477   0.98682   0.24448   0.00000  Uiso   1.00
N477   N     0.98173   0.84735   0.26212   0.00000  Uiso   1.00
N478   N     0.68494   0.81932   0.23788   0.00000  Uiso   1.00
H479   H     0.66772   0.87173   0.28463   0.00000  Uiso   1.00
H480   H     0.99895   0.79494   0.21537   0.00000  Uiso   1.00
N481   N     0.72812   0.81201   0.08845   0.00000  Uiso   1.00
O482   O     0.68203   0.77474   0.10839   0.00000  Uiso   1.00
O483   O     0.74225   0.85619   0.10948   0.00000  Uiso   1.00
N484   N     0.93857   0.85446   0.41155   0.00000  Uiso   1.00
O485   O     0.92415   0.81026   0.39061   0.00000  Uiso   1.00
O486   O     0.98545   0.89119   0.39175   0.00000  Uiso   1.00
O487   O     0.12815   0.23809   0.74686   0.00000  Uiso   1.00
O488   O     0.20518   0.09524   0.75314   0.00000  Uiso   1.00
O489   O     0.22829   0.24753   0.75503   0.00000  Uiso   1.00
O490   O     0.10504   0.08580   0.74498   0.00000  Uiso   1.00
C491   C     0.18169   0.26668   0.75130   0.00000  Uiso   1.00
C492   C     0.15164   0.06665   0.74870   0.00000  Uiso   1.00
O493   O     0.08851   0.15930   0.80854   0.00000  Uiso   1.00
O494   O     0.24482   0.17403   0.69146   0.00000  Uiso   1.00
O495   O     0.18866   0.16874   0.81671   0.00000  Uiso   1.00
O496   O     0.14468   0.16460   0.68329   0.00000  Uiso   1.00
C497   C     0.12791   0.16231   0.83317   0.00000  Uiso   1.00
C498   C     0.20542   0.17102   0.66683   0.00000  Uiso   1.00
Cu499  Cu    0.10737   0.16108   0.74517   0.00000  Uiso   1.00
Cu500  Cu    0.22596   0.17225   0.75484   0.00000  Uiso   1.00
C501   C     0.10393   0.15406   0.88074   0.00000  Uiso   1.00
C502   C     0.22940   0.17928   0.61926   0.00000  Uiso   1.00
C503   C     0.02872   0.10746   0.94297   0.00000  Uiso   1.00
C504   C     0.30458   0.22590   0.55703   0.00000  Uiso   1.00
C505   C     0.04708   0.11844   0.89808   0.00000  Uiso   1.00
C506   C     0.28624   0.21492   0.60192   0.00000  Uiso   1.00
C507   C     0.14305   0.17670   0.90825   0.00000  Uiso   1.00
C508   C     0.19027   0.15663   0.59175   0.00000  Uiso   1.00
C509   C     0.13123   0.15852   0.95130   0.00000  Uiso   1.00
C510   C     0.20208   0.17481   0.54871   0.00000  Uiso   1.00
C511   C     0.07038   0.12754   0.96974   0.00000  Uiso   1.00
C512   C     0.26292   0.20580   0.53026   0.00000  Uiso   1.00
C513   C     0.17702   0.17141   0.97680   0.00000  Uiso   1.00
C514   C     0.15630   0.16192   0.52320   0.00000  Uiso   1.00
C515   C     0.09050   0.14056   0.54221   0.00000  Uiso   1.00
C516   C     0.24283   0.19272   0.95778   0.00000  Uiso   1.00
C517   C     0.05053   0.11936   0.51490   0.00000  Uiso   1.00
C518   C     0.28278   0.21397   0.98511   0.00000  Uiso   1.00
H519   H     0.00164   0.10045   0.52947   0.00000  Uiso   1.00
H520   H     0.33167   0.23288   0.97055   0.00000  Uiso   1.00
H521   H     0.15003   0.12546   0.60496   0.00000  Uiso   1.00
H522   H     0.18332   0.20785   0.89504   0.00000  Uiso   1.00
H523   H     0.31606   0.23431   0.62307   0.00000  Uiso   1.00
H524   H     0.01726   0.09907   0.87693   0.00000  Uiso   1.00
H525   H     0.31607   0.08232   0.95654   0.00000  Uiso   1.00
H526   H     0.01722   0.25104   0.54347   0.00000  Uiso   1.00
C527   C     0.19009   0.32269   0.75191   0.00000  Uiso   1.00
C528   C     0.14324   0.01064   0.74809   0.00000  Uiso   1.00
H529   H     0.23523   0.01318   0.75552   0.00000  Uiso   1.00
H530   H     0.09811   0.32015   0.74448   0.00000  Uiso   1.00
N531   N     0.31506   0.18068   0.76212   0.00000  Uiso   1.00
N532   N     0.01827   0.15265   0.73788   0.00000  Uiso   1.00
H533   H     0.00105   0.20506   0.78463   0.00000  Uiso   1.00
H534   H     0.33228   0.12827   0.71537   0.00000  Uiso   1.00
N535   N     0.06145   0.14534   0.58845   0.00000  Uiso   1.00
O536   O     0.01537   0.10807   0.60839   0.00000  Uiso   1.00
O537   O     0.07558   0.18952   0.60948   0.00000  Uiso   1.00
N538   N     0.27191   0.18779   0.91155   0.00000  Uiso   1.00
O539   O     0.25748   0.14359   0.89061   0.00000  Uiso   1.00
O540   O     0.31879   0.22452   0.89175   0.00000  Uiso   1.00
O541   O     0.46148   0.23809   0.74686   0.00000  Uiso   1.00
O542   O     0.53852   0.09524   0.75314   0.00000  Uiso   1.00
O543   O     0.56163   0.24753   0.75503   0.00000  Uiso   1.00
O544   O     0.43837   0.08580   0.74498   0.00000  Uiso   1.00
C545   C     0.51502   0.26668   0.75130   0.00000  Uiso   1.00
C546   C     0.48498   0.06665   0.74870   0.00000  Uiso   1.00
O547   O     0.42185   0.15930   0.80854   0.00000  Uiso   1.00
O548   O     0.57815   0.17403   0.69146   0.00000  Uiso   1.00
O549   O     0.52199   0.16874   0.81671   0.00000  Uiso   1.00
O550   O     0.47801   0.16460   0.68329   0.00000  Uiso   1.00
C551   C     0.46124   0.16231   0.83317   0.00000  Uiso   1.00
C552   C     0.53875   0.17102   0.66683   0.00000  Uiso   1.00
Cu553  Cu    0.44071   0.16108   0.74517   0.00000  Uiso   1.00
Cu554  Cu    0.55929   0.17225   0.75484   0.00000  Uiso   1.00
C555   C     0.43726   0.15406   0.88074   0.00000  Uiso   1.00
C556   C     0.56273   0.17928   0.61926   0.00000  Uiso   1.00
C557   C     0.36205   0.10746   0.94297   0.00000  Uiso   1.00
C558   C     0.63792   0.22590   0.55703   0.00000  Uiso   1.00
C559   C     0.38041   0.11844   0.89808   0.00000  Uiso   1.00
C560   C     0.61957   0.21492   0.60192   0.00000  Uiso   1.00
C561   C     0.47639   0.17670   0.90825   0.00000  Uiso   1.00
C562   C     0.52360   0.15663   0.59175   0.00000  Uiso   1.00
C563   C     0.46456   0.15852   0.95130   0.00000  Uiso   1.00
C564   C     0.53542   0.17481   0.54871   0.00000  Uiso   1.00
C565   C     0.40371   0.12754   0.96974   0.00000  Uiso   1.00
C566   C     0.59626   0.20580   0.53026   0.00000  Uiso   1.00
C567   C     0.51035   0.17141   0.97680   0.00000  Uiso   1.00
C568   C     0.48963   0.16192   0.52320   0.00000  Uiso   1.00
C569   C     0.42383   0.14056   0.54221   0.00000  Uiso   1.00
C570   C     0.57616   0.19272   0.95778   0.00000  Uiso   1.00
C571   C     0.38386   0.11936   0.51490   0.00000  Uiso   1.00
C572   C     0.61611   0.21397   0.98511   0.00000  Uiso   1.00
H573   H     0.33497   0.10045   0.52947   0.00000  Uiso   1.00
H574   H     0.66501   0.23288   0.97055   0.00000  Uiso   1.00
H575   H     0.48336   0.12546   0.60496   0.00000  Uiso   1.00
H576   H     0.51665   0.20785   0.89504   0.00000  Uiso   1.00
H577   H     0.64939   0.23431   0.62307   0.00000  Uiso   1.00
H578   H     0.35060   0.09907   0.87693   0.00000  Uiso   1.00
H579   H     0.64941   0.08232   0.95654   0.00000  Uiso   1.00
H580   H     0.35055   0.25104   0.54347   0.00000  Uiso   1.00
C581   C     0.52343   0.32269   0.75191   0.00000  Uiso   1.00
C582   C     0.47657   0.01064   0.74809   0.00000  Uiso   1.00
H583   H     0.56856   0.01318   0.75552   0.00000  Uiso   1.00
H584   H     0.43144   0.32015   0.74448   0.00000  Uiso   1.00
N585   N     0.64839   0.18068   0.76212   0.00000  Uiso   1.00
N586   N     0.35161   0.15265   0.73788   0.00000  Uiso   1.00
H587   H     0.33438   0.20506   0.78463   0.00000  Uiso   1.00
H588   H     0.66562   0.12827   0.71537   0.00000  Uiso   1.00
N589   N     0.39478   0.14534   0.58845   0.00000  Uiso   1.00
O590   O     0.34870   0.10807   0.60839   0.00000  Uiso   1.00
O591   O     0.40891   0.18952   0.60948   0.00000  Uiso   1.00
N592   N     0.60524   0.18779   0.91155   0.00000  Uiso   1.00
O593   O     0.59081   0.14359   0.89061   0.00000  Uiso   1.00
O594   O     0.65212   0.22452   0.89175   0.00000  Uiso   1.00
O595   O     0.79482   0.23809   0.74686   0.00000  Uiso   1.00
O596   O     0.87185   0.09524   0.75314   0.00000  Uiso   1.00
O597   O     0.89496   0.24753   0.75503   0.00000  Uiso   1.00
O598   O     0.77171   0.08580   0.74498   0.00000  Uiso   1.00
C599   C     0.84836   0.26668   0.75130   0.00000  Uiso   1.00
C600   C     0.81831   0.06665   0.74870   0.00000  Uiso   1.00
O601   O     0.75518   0.15930   0.80854   0.00000  Uiso   1.00
O602   O     0.91149   0.17403   0.69146   0.00000  Uiso   1.00
O603   O     0.85532   0.16874   0.81671   0.00000  Uiso   1.00
O604   O     0.81134   0.16460   0.68329   0.00000  Uiso   1.00
C605   C     0.79458   0.16231   0.83317   0.00000  Uiso   1.00
C606   C     0.87209   0.17102   0.66683   0.00000  Uiso   1.00
Cu607  Cu    0.77404   0.16108   0.74517   0.00000  Uiso   1.00
Cu608  Cu    0.89263   0.17225   0.75484   0.00000  Uiso   1.00
C609   C     0.77060   0.15406   0.88074   0.00000  Uiso   1.00
C610   C     0.89607   0.17928   0.61926   0.00000  Uiso   1.00
C611   C     0.69538   0.10746   0.94297   0.00000  Uiso   1.00
C612   C     0.97125   0.22590   0.55703   0.00000  Uiso   1.00
C613   C     0.71375   0.11844   0.89808   0.00000  Uiso   1.00
C614   C     0.95291   0.21492   0.60192   0.00000  Uiso   1.00
C615   C     0.80972   0.17670   0.90825   0.00000  Uiso   1.00
C616   C     0.85693   0.15663   0.59175   0.00000  Uiso   1.00
C617   C     0.79789   0.15852   0.95130   0.00000  Uiso   1.00
C618   C     0.86875   0.17481   0.54871   0.00000  Uiso   1.00
C619   C     0.73704   0.12754   0.96974   0.00000  Uiso   1.00
C620   C     0.92959   0.20580   0.53026   0.00000  Uiso   1.00
C621   C     0.84368   0.17141   0.97680   0.00000  Uiso   1.00
C622   C     0.82296   0.16192   0.52320   0.00000  Uiso   1.00
C623   C     0.75717   0.14056   0.54221   0.00000  Uiso   1.00
C624   C     0.90950   0.19272   0.95778   0.00000  Uiso   1.00
C625   C     0.71720   0.11936   0.51490   0.00000  Uiso   1.00
C626   C     0.94944   0.21397   0.98511   0.00000  Uiso   1.00
H627   H     0.66831   0.10045   0.52947   0.00000  Uiso   1.00
H628   H     0.99834   0.23288   0.97055   0.00000  Uiso   1.00
H629   H     0.81669   0.12546   0.60496   0.00000  Uiso   1.00
H630   H     0.84999   0.20785   0.89504   0.00000  Uiso   1.00
H631   H     0.98272   0.23431   0.62307   0.00000  Uiso   1.00
H632   H     0.68393   0.09907   0.87693   0.00000  Uiso   1.00
H633   H     0.98274   0.08232   0.95654   0.00000  Uiso   1.00
H634   H     0.68389   0.25104   0.54347   0.00000  Uiso   1.00
C635   C     0.85676   0.32269   0.75191   0.00000  Uiso   1.00
C636   C     0.80991   0.01064   0.74809   0.00000  Uiso   1.00
H637   H     0.90189   0.01318   0.75552   0.00000  Uiso   1.00
H638   H     0.76477   0.32015   0.74448   0.00000  Uiso   1.00
N639   N     0.98173   0.18068   0.76212   0.00000  Uiso   1.00
N640   N     0.68494   0.15265   0.73788   0.00000  Uiso   1.00
H641   H     0.66772   0.20506   0.78463   0.00000  Uiso   1.00
H642   H     0.99895   0.12827   0.71537   0.00000  Uiso   1.00
N643   N     0.72812   0.14534   0.58845   0.00000  Uiso   1.00
O644   O     0.68203   0.10807   0.60839   0.00000  Uiso   1.00
O645   O     0.74225   0.18952   0.60948   0.00000  Uiso   1.00
N646   N     0.93857   0.18779   0.91155   0.00000  Uiso   1.00
O647   O     0.92415   0.14359   0.89061   0.00000  Uiso   1.00
O648   O     0.98545   0.22452   0.89175   0.00000  Uiso   1.00
O649   O     0.12815   0.57142   0.74686   0.00000  Uiso   1.00
O650   O     0.20518   0.42858   0.75314   0.00000  Uiso   1.00
O651   O     0.22829   0.58086   0.75503   0.00000  Uiso   1.00
O652   O     0.10504   0.41914   0.74498   0.00000  Uiso   1.00
C653   C     0.18169   0.60002   0.75130   0.00000  Uiso   1.00
C654   C     0.15164   0.39998   0.74870   0.00000  Uiso   1.00
O655   O     0.08851   0.49263   0.80854   0.00000  Uiso   1.00
O656   O     0.24482   0.50737   0.69146   0.00000  Uiso   1.00
O657   O     0.18866   0.50207   0.81671   0.00000  Uiso   1.00
O658   O     0.14468   0.49793   0.68329   0.00000  Uiso   1.00
C659   C     0.12791   0.49564   0.83317   0.00000  Uiso   1.00
C660   C     0.20542   0.50436   0.66683   0.00000  Uiso   1.00
Cu661  Cu    0.10737   0.49441   0.74517   0.00000  Uiso   1.00
Cu662  Cu    0.22596   0.50559   0.75484   0.00000  Uiso   1.00
C663   C     0.10393   0.48739   0.88074   0.00000  Uiso   1.00
C664   C     0.22940   0.51261   0.61926   0.00000  Uiso   1.00
C665   C     0.02872   0.44079   0.94297   0.00000  Uiso   1.00
C666   C     0.30458   0.55923   0.55703   0.00000  Uiso   1.00
C667   C     0.04708   0.45177   0.89808   0.00000  Uiso   1.00
C668   C     0.28624   0.54825   0.60192   0.00000  Uiso   1.00
C669   C     0.14305   0.51003   0.90825   0.00000  Uiso   1.00
C670   C     0.19027   0.48997   0.59175   0.00000  Uiso   1.00
C671   C     0.13123   0.49185   0.95130   0.00000  Uiso   1.00
C672   C     0.20208   0.50815   0.54871   0.00000  Uiso   1.00
C673   C     0.07038   0.46088   0.96974   0.00000  Uiso   1.00
C674   C     0.26292   0.53913   0.53026   0.00000  Uiso   1.00
C675   C     0.17702   0.50474   0.97680   0.00000  Uiso   1.00
C676   C     0.15630   0.49525   0.52320   0.00000  Uiso   1.00
C677   C     0.09050   0.47390   0.54221   0.00000  Uiso   1.00
C678   C     0.24283   0.52606   0.95778   0.00000  Uiso   1.00
C679   C     0.05053   0.45269   0.51490   0.00000  Uiso   1.00
C680   C     0.28278   0.54730   0.98511   0.00000  Uiso   1.00
H681   H     0.00164   0.43378   0.52947   0.00000  Uiso   1.00
H682   H     0.33167   0.56621   0.97055   0.00000  Uiso   1.00
H683   H     0.15003   0.45879   0.60496   0.00000  Uiso   1.00
H684   H     0.18332   0.54119   0.89504   0.00000  Uiso   1.00
H685   H     0.31606   0.56765   0.62307   0.00000  Uiso   1.00
H686   H     0.01726   0.43240   0.87693   0.00000  Uiso   1.00
H687   H     0.31607   0.41566   0.95654   0.00000  Uiso   1.00
H688   H     0.01722   0.58438   0.54347   0.00000  Uiso   1.00
C689   C     0.19009   0.65602   0.75191   0.00000  Uiso   1.00
C690   C     0.14324   0.34398   0.74809   0.00000  Uiso   1.00
H691   H     0.23523   0.34652   0.75552   0.00000  Uiso   1.00
H692   H     0.09811   0.65348   0.74448   0.00000  Uiso   1.00
N693   N     0.31506   0.51401   0.76212   0.00000  Uiso   1.00
N694   N     0.01827   0.48599   0.73788   0.00000  Uiso   1.00
H695   H     0.00105   0.53839   0.78463   0.00000  Uiso   1.00
H696   H     0.33228   0.46161   0.71537   0.00000  Uiso   1.00
N697   N     0.06145   0.47868   0.58845   0.00000  Uiso   1.00
O698   O     0.01537   0.44140   0.60839   0.00000  Uiso   1.00
O699   O     0.07558   0.52286   0.60948   0.00000  Uiso   1.00
N700   N     0.27191   0.52113   0.91155   0.00000  Uiso   1.00
O701   O     0.25748   0.47693   0.89061   0.00000  Uiso   1.00
O702   O     0.31879   0.55786   0.89175   0.00000  Uiso   1.00
O703   O     0.46148   0.57142   0.74686   0.00000  Uiso   1.00
O704   O     0.53852   0.42858   0.75314   0.00000  Uiso   1.00
O705   O     0.56163   0.58086   0.75503   0.00000  Uiso   1.00
O706   O     0.43837   0.41914   0.74498   0.00000  Uiso   1.00
C707   C     0.51502   0.60002   0.75130   0.00000  Uiso   1.00
C708   C     0.48498   0.39998   0.74870   0.00000  Uiso   1.00
O709   O     0.42185   0.49263   0.80854   0.00000  Uiso   1.00
O710   O     0.57815   0.50737   0.69146   0.00000  Uiso   1.00
O711   O     0.52199   0.50207   0.81671   0.00000  Uiso   1.00
O712   O     0.47801   0.49793   0.68329   0.00000  Uiso   1.00
C713   C     0.46124   0.49564   0.83317   0.00000  Uiso   1.00
C714   C     0.53875   0.50436   0.66683   0.00000  Uiso   1.00
Cu715  Cu    0.44071   0.49441   0.74517   0.00000  Uiso   1.00
Cu716  Cu    0.55929   0.50559   0.75484   0.00000  Uiso   1.00
C717   C     0.43726   0.48739   0.88074   0.00000  Uiso   1.00
C718   C     0.56273   0.51261   0.61926   0.00000  Uiso   1.00
C719   C     0.36205   0.44079   0.94297   0.00000  Uiso   1.00
C720   C     0.63792   0.55923   0.55703   0.00000  Uiso   1.00
C721   C     0.38041   0.45177   0.89808   0.00000  Uiso   1.00
C722   C     0.61957   0.54825   0.60192   0.00000  Uiso   1.00
C723   C     0.47639   0.51003   0.90825   0.00000  Uiso   1.00
C724   C     0.52360   0.48997   0.59175   0.00000  Uiso   1.00
C725   C     0.46456   0.49185   0.95130   0.00000  Uiso   1.00
C726   C     0.53542   0.50815   0.54871   0.00000  Uiso   1.00
C727   C     0.40371   0.46088   0.96974   0.00000  Uiso   1.00
C728   C     0.59626   0.53913   0.53026   0.00000  Uiso   1.00
C729   C     0.51035   0.50474   0.97680   0.00000  Uiso   1.00
C730   C     0.48963   0.49525   0.52320   0.00000  Uiso   1.00
C731   C     0.42383   0.47390   0.54221   0.00000  Uiso   1.00
C732   C     0.57616   0.52606   0.95778   0.00000  Uiso   1.00
C733   C     0.38386   0.45269   0.51490   0.00000  Uiso   1.00
C734   C     0.61611   0.54730   0.98511   0.00000  Uiso   1.00
H735   H     0.33497   0.43378   0.52947   0.00000  Uiso   1.00
H736   H     0.66501   0.56621   0.97055   0.00000  Uiso   1.00
H737   H     0.48336   0.45879   0.60496   0.00000  Uiso   1.00
H738   H     0.51665   0.54119   0.89504   0.00000  Uiso   1.00
H739   H     0.64939   0.56765   0.62307   0.00000  Uiso   1.00
H740   H     0.35060   0.43240   0.87693   0.00000  Uiso   1.00
H741   H     0.64941   0.41566   0.95654   0.00000  Uiso   1.00
H742   H     0.35055   0.58438   0.54347   0.00000  Uiso   1.00
C743   C     0.52343   0.65602   0.75191   0.00000  Uiso   1.00
C744   C     0.47657   0.34398   0.74809   0.00000  Uiso   1.00
H745   H     0.56856   0.34652   0.75552   0.00000  Uiso   1.00
H746   H     0.43144   0.65348   0.74448   0.00000  Uiso   1.00
N747   N     0.64839   0.51401   0.76212   0.00000  Uiso   1.00
N748   N     0.35161   0.48599   0.73788   0.00000  Uiso   1.00
H749   H     0.33438   0.53839   0.78463   0.00000  Uiso   1.00
H750   H     0.66562   0.46161   0.71537   0.00000  Uiso   1.00
N751   N     0.39478   0.47868   0.58845   0.00000  Uiso   1.00
O752   O     0.34870   0.44140   0.60839   0.00000  Uiso   1.00
O753   O     0.40891   0.52286   0.60948   0.00000  Uiso   1.00
N754   N     0.60524   0.52113   0.91155   0.00000  Uiso   1.00
O755   O     0.59081   0.47693   0.89061   0.00000  Uiso   1.00
O756   O     0.65212   0.55786   0.89175   0.00000  Uiso   1.00
O757   O     0.79482   0.57142   0.74686   0.00000  Uiso   1.00
O758   O     0.87185   0.42858   0.75314   0.00000  Uiso   1.00
O759   O     0.89496   0.58086   0.75503   0.00000  Uiso   1.00
O760   O     0.77171   0.41914   0.74498   0.00000  Uiso   1.00
C761   C     0.84836   0.60002   0.75130   0.00000  Uiso   1.00
C762   C     0.81831   0.39998   0.74870   0.00000  Uiso   1.00
O763   O     0.75518   0.49263   0.80854   0.00000  Uiso   1.00
O764   O     0.91149   0.50737   0.69146   0.00000  Uiso   1.00
O765   O     0.85532   0.50207   0.81671   0.00000  Uiso   1.00
O766   O     0.81134   0.49793   0.68329   0.00000  Uiso   1.00
C767   C     0.79458   0.49564   0.83317   0.00000  Uiso   1.00
C768   C     0.87209   0.50436   0.66683   0.00000  Uiso   1.00
Cu769  Cu    0.77404   0.49441   0.74517   0.00000  Uiso   1.00
Cu770  Cu    0.89263   0.50559   0.75484   0.00000  Uiso   1.00
C771   C     0.77060   0.48739   0.88074   0.00000  Uiso   1.00
C772   C     0.89607   0.51261   0.61926   0.00000  Uiso   1.00
C773   C     0.69538   0.44079   0.94297   0.00000  Uiso   1.00
C774   C     0.97125   0.55923   0.55703   0.00000  Uiso   1.00
C775   C     0.71375   0.45177   0.89808   0.00000  Uiso   1.00
C776   C     0.95291   0.54825   0.60192   0.00000  Uiso   1.00
C777   C     0.80972   0.51003   0.90825   0.00000  Uiso   1.00
C778   C     0.85693   0.48997   0.59175   0.00000  Uiso   1.00
C779   C     0.79789   0.49185   0.95130   0.00000  Uiso   1.00
C780   C     0.86875   0.50815   0.54871   0.00000  Uiso   1.00
C781   C     0.73704   0.46088   0.96974   0.00000  Uiso   1.00
C782   C     0.92959   0.53913   0.53026   0.00000  Uiso   1.00
C783   C     0.84368   0.50474   0.97680   0.00000  Uiso   1.00
C784   C     0.82296   0.49525   0.52320   0.00000  Uiso   1.00
C785   C     0.75717   0.47390   0.54221   0.00000  Uiso   1.00
C786   C     0.90950   0.52606   0.95778   0.00000  Uiso   1.00
C787   C     0.71720   0.45269   0.51490   0.00000  Uiso   1.00
C788   C     0.94944   0.54730   0.98511   0.00000  Uiso   1.00
H789   H     0.66831   0.43378   0.52947   0.00000  Uiso   1.00
H790   H     0.99834   0.56621   0.97055   0.00000  Uiso   1.00
H791   H     0.81669   0.45879   0.60496   0.00000  Uiso   1.00
H792   H     0.84999   0.54119   0.89504   0.00000  Uiso   1.00
H793   H     0.98272   0.56765   0.62307   0.00000  Uiso   1.00
H794   H     0.68393   0.43240   0.87693   0.00000  Uiso   1.00
H795   H     0.98274   0.41566   0.95654   0.00000  Uiso   1.00
H796   H     0.68389   0.58438   0.54347   0.00000  Uiso   1.00
C797   C     0.85676   0.65602   0.75191   0.00000  Uiso   1.00
C798   C     0.80991   0.34398   0.74809   0.00000  Uiso   1.00
H799   H     0.90189   0.34652   0.75552   0.00000  Uiso   1.00
H800   H     0.76477   0.65348   0.74448   0.00000  Uiso   1.00
N801   N     0.98173   0.51401   0.76212   0.00000  Uiso   1.00
N802   N     0.68494   0.48599   0.73788   0.00000  Uiso   1.00
H803   H     0.66772   0.53839   0.78463   0.00000  Uiso   1.00
H804   H     0.99895   0.46161   0.71537   0.00000  Uiso   1.00
N805   N     0.72812   0.47868   0.58845   0.00000  Uiso   1.00
O806   O     0.68203   0.44140   0.60839   0.00000  Uiso   1.00
O807   O     0.74225   0.52286   0.60948   0.00000  Uiso   1.00
N808   N     0.93857   0.52113   0.91155   0.00000  Uiso   1.00
O809   O     0.92415   0.47693   0.89061   0.00000  Uiso   1.00
O810   O     0.98545   0.55786   0.89175   0.00000  Uiso   1.00
O811   O     0.12815   0.90476   0.74686   0.00000  Uiso   1.00
O812   O     0.20518   0.76191   0.75314   0.00000  Uiso   1.00
O813   O     0.22829   0.91420   0.75503   0.00000  Uiso   1.00
O814   O     0.10504   0.75247   0.74498   0.00000  Uiso   1.00
C815   C     0.18169   0.93335   0.75130   0.00000  Uiso   1.00
C816   C     0.15164   0.73332   0.74870   0.00000  Uiso   1.00
O817   O     0.08851   0.82597   0.80854   0.00000  Uiso   1.00
O818   O     0.24482   0.84070   0.69146   0.00000  Uiso   1.00
O819   O     0.18866   0.83540   0.81671   0.00000  Uiso   1.00
O820   O     0.14468   0.83126   0.68329   0.00000  Uiso   1.00
C821   C     0.12791   0.82898   0.83317   0.00000  Uiso   1.00
C822   C     0.20542   0.83769   0.66683   0.00000  Uiso   1.00
Cu823  Cu    0.10737   0.82775   0.74517   0.00000  Uiso   1.00
Cu824  Cu    0.22596   0.83892   0.75484   0.00000  Uiso   1.00
C825   C     0.10393   0.82072   0.88074   0.00000  Uiso   1.00
C826   C     0.22940   0.84595   0.61926   0.00000  Uiso   1.00
C827   C     0.02872   0.77413   0.94297   0.00000  Uiso   1.00
C828   C     0.30458   0.89257   0.55703   0.00000  Uiso   1.00
C829   C     0.04708   0.78511   0.89808   0.00000  Uiso   1.00
C830   C     0.28624   0.88158   0.60192   0.00000  Uiso   1.00
C831   C     0.14305   0.84337   0.90825   0.00000  Uiso   1.00
C832   C     0.19027   0.82330   0.59175   0.00000  Uiso   1.00
C833   C     0.13123   0.82519   0.95130   0.00000  Uiso   1.00
C834   C     0.20208   0.84148   0.54871   0.00000  Uiso   1.00
C835   C     0.07038   0.79421   0.96974   0.00000  Uiso   1.00
C836   C     0.26292   0.87247   0.53026   0.00000  Uiso   1.00
C837   C     0.17702   0.83807   0.97680   0.00000  Uiso   1.00
C838   C     0.15630   0.82858   0.52320   0.00000  Uiso   1.00
C839   C     0.09050   0.80723   0.54221   0.00000  Uiso   1.00
C840   C     0.24283   0.85939   0.95778   0.00000  Uiso   1.00
C841   C     0.05053   0.78603   0.51490   0.00000  Uiso   1.00
C842   C     0.28278   0.88064   0.98511   0.00000  Uiso   1.00
H843   H     0.00164   0.76712   0.52947   0.00000  Uiso   1.00
H844   H     0.33167   0.89955   0.97055   0.00000  Uiso   1.00
H845   H     0.15003   0.79212   0.60496   0.00000  Uiso   1.00
H846   H     0.18332   0.87452   0.89504   0.00000  Uiso   1.00
H847   H     0.31606   0.90098   0.62307   0.00000  Uiso   1.00
H848   H     0.01726   0.76573   0.87693   0.00000  Uiso   1.00
H849   H     0.31607   0.74899   0.95654   0.00000  Uiso   1.00
H850   H     0.01722   0.91771   0.54347   0.00000  Uiso   1.00
C851   C     0.19009   0.98936   0.75191   0.00000  Uiso   1.00
C852   C     0.14324   0.67731   0.74809   0.00000  Uiso   1.00
H853   H     0.23523   0.67985   0.75552   0.00000  Uiso   1.00
H854   H     0.09811   0.98682   0.74448   0.00000  Uiso   1.00
N855   N     0.31506   0.84735   0.76212   0.00000  Uiso   1.00
N856   N     0.01827   0.81932   0.73788   0.00000  Uiso   1.00
H857   H     0.00105   0.87173   0.78463   0.00000  Uiso   1.00
H858   H     0.33228   0.79494   0.71537   0.00000  Uiso   1.00
N859   N     0.06145   0.81201   0.58845   0.00000  Uiso   1.00
O860   O     0.01537   0.77474   0.60839   0.00000  Uiso   1.00
O861   O     0.07558   0.85619   0.60948   0.00000  Uiso   1.00
N862   N     0.27191   0.85446   0.91155   0.00000  Uiso   1.00
O863   O     0.25748   0.81026   0.89061   0.00000  Uiso   1.00
O864   O     0.31879   0.89119   0.89175   0.00000  Uiso   1.00
O865   O     0.46148   0.90476   0.74686   0.00000  Uiso   1.00
O866   O     0.53852   0.76191   0.75314   0.00000  Uiso   1.00
O867   O     0.56163   0.91420   0.75503   0.00000  Uiso   1.00
O868   O     0.43837   0.75247   0.74498   0.00000  Uiso   1.00
C869   C     0.51502   0.93335   0.75130   0.00000  Uiso   1.00
C870   C     0.48498   0.73332   0.74870   0.00000  Uiso   1.00
O871   O     0.42185   0.82597   0.80854   0.00000  Uiso   1.00
O872   O     0.57815   0.84070   0.69146   0.00000  Uiso   1.00
O873   O     0.52199   0.83540   0.81671   0.00000  Uiso   1.00
O874   O     0.47801   0.83126   0.68329   0.00000  Uiso   1.00
C875   C     0.46124   0.82898   0.83317   0.00000  Uiso   1.00
C876   C     0.53875   0.83769   0.66683   0.00000  Uiso   1.00
Cu877  Cu    0.44071   0.82775   0.74517   0.00000  Uiso   1.00
Cu878  Cu    0.55929   0.83892   0.75484   0.00000  Uiso   1.00
C879   C     0.43726   0.82072   0.88074   0.00000  Uiso   1.00
C880   C     0.56273   0.84595   0.61926   0.00000  Uiso   1.00
C881   C     0.36205   0.77413   0.94297   0.00000  Uiso   1.00
C882   C     0.63792   0.89257   0.55703   0.00000  Uiso   1.00
C883   C     0.38041   0.78511   0.89808   0.00000  Uiso   1.00
C884   C     0.61957   0.88158   0.60192   0.00000  Uiso   1.00
C885   C     0.47639   0.84337   0.90825   0.00000  Uiso   1.00
C886   C     0.52360   0.82330   0.59175   0.00000  Uiso   1.00
C887   C     0.46456   0.82519   0.95130   0.00000  Uiso   1.00
C888   C     0.53542   0.84148   0.54871   0.00000  Uiso   1.00
C889   C     0.40371   0.79421   0.96974   0.00000  Uiso   1.00
C890   C     0.59626   0.87247   0.53026   0.00000  Uiso   1.00
C891   C     0.51035   0.83807   0.97680   0.00000  Uiso   1.00
C892   C     0.48963   0.82858   0.52320   0.00000  Uiso   1.00
C893   C     0.42383   0.80723   0.54221   0.00000  Uiso   1.00
C894   C     0.57616   0.85939   0.95778   0.00000  Uiso   1.00
C895   C     0.38386   0.78603   0.51490   0.00000  Uiso   1.00
C896   C     0.61611   0.88064   0.98511   0.00000  Uiso   1.00
H897   H     0.33497   0.76712   0.52947   0.00000  Uiso   1.00
H898   H     0.66501   0.89955   0.97055   0.00000  Uiso   1.00
H899   H     0.48336   0.79212   0.60496   0.00000  Uiso   1.00
H900   H     0.51665   0.87452   0.89504   0.00000  Uiso   1.00
H901   H     0.64939   0.90098   0.62307   0.00000  Uiso   1.00
H902   H     0.35060   0.76573   0.87693   0.00000  Uiso   1.00
H903   H     0.64941   0.74899   0.95654   0.00000  Uiso   1.00
H904   H     0.35055   0.91771   0.54347   0.00000  Uiso   1.00
C905   C     0.52343   0.98936   0.75191   0.00000  Uiso   1.00
C906   C     0.47657   0.67731   0.74809   0.00000  Uiso   1.00
H907   H     0.56856   0.67985   0.75552   0.00000  Uiso   1.00
H908   H     0.43144   0.98682   0.74448   0.00000  Uiso   1.00
N909   N     0.64839   0.84735   0.76212   0.00000  Uiso   1.00
N910   N     0.35161   0.81932   0.73788   0.00000  Uiso   1.00
H911   H     0.33438   0.87173   0.78463   0.00000  Uiso   1.00
H912   H     0.66562   0.79494   0.71537   0.00000  Uiso   1.00
N913   N     0.39478   0.81201   0.58845   0.00000  Uiso   1.00
O914   O     0.34870   0.77474   0.60839   0.00000  Uiso   1.00
O915   O     0.40891   0.85619   0.60948   0.00000  Uiso   1.00
N916   N     0.60524   0.85446   0.91155   0.00000  Uiso   1.00
O917   O     0.59081   0.81026   0.89061   0.00000  Uiso   1.00
O918   O     0.65212   0.89119   0.89175   0.00000  Uiso   1.00
O919   O     0.79482   0.90476   0.74686   0.00000  Uiso   1.00
O920   O     0.87185   0.76191   0.75314   0.00000  Uiso   1.00
O921   O     0.89496   0.91420   0.75503   0.00000  Uiso   1.00
O922   O     0.77171   0.75247   0.74498   0.00000  Uiso   1.00
C923   C     0.84836   0.93335   0.75130   0.00000  Uiso   1.00
C924   C     0.81831   0.73332   0.74870   0.00000  Uiso   1.00
O925   O     0.75518   0.82597   0.80854   0.00000  Uiso   1.00
O926   O     0.91149   0.84070   0.69146   0.00000  Uiso   1.00
O927   O     0.85532   0.83540   0.81671   0.00000  Uiso   1.00
O928   O     0.81134   0.83126   0.68329   0.00000  Uiso   1.00
C929   C     0.79458   0.82898   0.83317   0.00000  Uiso   1.00
C930   C     0.87209   0.83769   0.66683   0.00000  Uiso   1.00
Cu931  Cu    0.77404   0.82775   0.74517   0.00000  Uiso   1.00
Cu932  Cu    0.89263   0.83892   0.75484   0.00000  Uiso   1.00
C933   C     0.77060   0.82072   0.88074   0.00000  Uiso   1.00
C934   C     0.89607   0.84595   0.61926   0.00000  Uiso   1.00
C935   C     0.69538   0.77413   0.94297   0.00000  Uiso   1.00
C936   C     0.97125   0.89257   0.55703   0.00000  Uiso   1.00
C937   C     0.71375   0.78511   0.89808   0.00000  Uiso   1.00
C938   C     0.95291   0.88158   0.60192   0.00000  Uiso   1.00
C939   C     0.80972   0.84337   0.90825   0.00000  Uiso   1.00
C940   C     0.85693   0.82330   0.59175   0.00000  Uiso   1.00
C941   C     0.79789   0.82519   0.95130   0.00000  Uiso   1.00
C942   C     0.86875   0.84148   0.54871   0.00000  Uiso   1.00
C943   C     0.73704   0.79421   0.96974   0.00000  Uiso   1.00
C944   C     0.92959   0.87247   0.53026   0.00000  Uiso   1.00
C945   C     0.84368   0.83807   0.97680   0.00000  Uiso   1.00
C946   C     0.82296   0.82858   0.52320   0.00000  Uiso   1.00
C947   C     0.75717   0.80723   0.54221   0.00000  Uiso   1.00
C948   C     0.90950   0.85939   0.95778   0.00000  Uiso   1.00
C949   C     0.71720   0.78603   0.51490   0.00000  Uiso   1.00
C950   C     0.94944   0.88064   0.98511   0.00000  Uiso   1.00
H951   H     0.66831   0.76712   0.52947   0.00000  Uiso   1.00
H952   H     0.99834   0.89955   0.97055   0.00000  Uiso   1.00
H953   H     0.81669   0.79212   0.60496   0.00000  Uiso   1.00
H954   H     0.84999   0.87452   0.89504   0.00000  Uiso   1.00
H955   H     0.98272   0.90098   0.62307   0.00000  Uiso   1.00
H956   H     0.68393   0.76573   0.87693   0.00000  Uiso   1.00
H957   H     0.98274   0.74899   0.95654   0.00000  Uiso   1.00
H958   H     0.68389   0.91771   0.54347   0.00000  Uiso   1.00
C959   C     0.85676   0.98936   0.75191   0.00000  Uiso   1.00
C960   C     0.80991   0.67731   0.74809   0.00000  Uiso   1.00
H961   H     0.90189   0.67985   0.75552   0.00000  Uiso   1.00
H962   H     0.76477   0.98682   0.74448   0.00000  Uiso   1.00
N963   N     0.98173   0.84735   0.76212   0.00000  Uiso   1.00
N964   N     0.68494   0.81932   0.73788   0.00000  Uiso   1.00
H965   H     0.66772   0.87173   0.78463   0.00000  Uiso   1.00
H966   H     0.99895   0.79494   0.71537   0.00000  Uiso   1.00
N967   N     0.72812   0.81201   0.58845   0.00000  Uiso   1.00
O968   O     0.68203   0.77474   0.60839   0.00000  Uiso   1.00
O969   O     0.74225   0.85619   0.60948   0.00000  Uiso   1.00
N970   N     0.93857   0.85446   0.91155   0.00000  Uiso   1.00
O971   O     0.92415   0.81026   0.89061   0.00000  Uiso   1.00
O972   O     0.98545   0.89119   0.89175   0.00000  Uiso   1.00
loop_
_geom_bond_atom_site_label_1
_geom_bond_atom_site_label_2
_geom_bond_distance
_geom_bond_site_symmetry_2
_ccdc_geom_bond_type
O1     C5      1.295   .     A
O1     Cu13    1.955   .     S
O2     C6      1.295   .     A
O2     Cu14    1.955   .     S
O3     C5      1.290   .     A
O3     Cu14    1.951   .     S
O4     C6      1.290   .     A
O4     Cu13    1.951   .     S
C5     C41     1.429   .     S
C6     C42     1.429   .     S
O7     Cu13    1.927   .     S
O7     C11     1.304   .     A
O8     C12     1.304   .     A
O8     Cu14    1.927   .     S
O9     Cu14    1.905   .     S
O9     C11     1.299   .     A
O10    C12     1.299   .     A
O10    Cu13    1.905   .     S
C11    C15     1.465   .     S
C12    C16     1.465   .     S
Cu13   N46     2.028   .     S
Cu13   Cu14    2.699   .     S
Cu14   N45     2.028   .     S
C15    C19     1.397   .     A
C15    C21     1.395   .     A
C16    C20     1.397   .     A
C16    C22     1.395   .     A
C17    C25     1.405   .     A
C17    C19     1.394   .     A
C17    H147    1.084   1_455 S
C18    C26     1.405   .     A
C18    C20     1.394   .     A
C18    H94     1.084   .     S
C19    H38     1.082   .     S
C20    H37     1.082   .     S
C21    H36     1.079   .     S
C21    C23     1.406   .     A
C22    H35     1.079   .     S
C22    C24     1.406   .     A
C23    C27     1.428   .     A
C23    C25     1.414   .     A
C24    C28     1.428   .     A
C24    C26     1.414   .     A
C25    C517    1.389   .     S
C26    C518    1.389   1_554 S
C27    C30     1.433   .     A
C27    C514    1.432   .     S
C28    C29     1.433   .     A
C28    C513    1.432   1_554 S
C29    C31     1.396   .     A
C29    N49     1.438   .     S
C30    C32     1.396   .     A
C30    N52     1.438   .     S
C31    H33     1.085   .     S
C31    C511    1.389   1_554 S
C32    H34     1.085   .     S
C32    C512    1.389   .     S
H39    C71     1.084   .     S
H40    C126    1.084   1_455 S
C41    C204    1.329   .     S
C41    H205    1.088   .     S
C42    C365    1.329   1_545 S
C42    H368    1.088   1_545 S
H43    C365    1.088   1_545 S
H44    C204    1.088   .     S
N45    N100    1.285   .     S
N45    H101    1.029   .     S
N46    N153    1.285   1_455 S
N46    H156    1.029   1_455 S
H47    N153    1.029   1_455 S
H48    N100    1.029   .     S
N49    O50     1.302   .     A
N49    O51     1.302   .     A
N52    O54     1.302   .     A
N52    O53     1.302   .     A
O55    C59     1.295   .     A
O55    Cu67    1.955   .     S
O56    C60     1.295   .     A
O56    Cu68    1.955   .     S
O57    C59     1.290   .     A
O57    Cu68    1.951   .     S
O58    C60     1.290   .     A
O58    Cu67    1.951   .     S
C59    C95     1.429   .     S
C60    C96     1.429   .     S
O61    Cu67    1.927   .     S
O61    C65     1.304   .     A
O62    C66     1.304   .     A
O62    Cu68    1.927   .     S
O63    Cu68    1.905   .     S
O63    C65     1.299   .     A
O64    C66     1.299   .     A
O64    Cu67    1.905   .     S
C65    C69     1.465   .     S
C66    C70     1.465   .     S
Cu67   N100    2.028   .     S
Cu67   Cu68    2.699   .     S
Cu68   N99     2.028   .     S
C69    C73     1.397   .     A
C69    C75     1.395   .     A
C70    C74     1.397   .     A
C70    C76     1.395   .     A
C71    C79     1.405   .     A
C71    C73     1.394   .     A
C72    C80     1.405   .     A
C72    C74     1.394   .     A
C72    H148    1.084   .     S
C73    H92     1.082   .     S
C74    H91     1.082   .     S
C75    H90     1.079   .     S
C75    C77     1.406   .     A
C76    H89     1.079   .     S
C76    C78     1.406   .     A
C77    C81     1.428   .     A
C77    C79     1.414   .     A
C78    C82     1.428   .     A
C78    C80     1.414   .     A
C79    C571    1.389   .     S
C80    C572    1.389   1_554 S
C81    C84     1.433   .     A
C81    C568    1.432   .     S
C82    C83     1.433   .     A
C82    C567    1.432   1_554 S
C83    C85     1.396   .     A
C83    N103    1.438   .     S
C84    C86     1.396   .     A
C84    N106    1.438   .     S
C85    H87     1.085   .     S
C85    C565    1.389   1_554 S
C86    H88     1.085   .     S
C86    C566    1.389   .     S
H93    C125    1.084   .     S
C95    C258    1.329   .     S
C95    H259    1.088   .     S
C96    C419    1.329   1_545 S
C96    H422    1.088   1_545 S
H97    C419    1.088   1_545 S
H98    C258    1.088   .     S
N99    N154    1.285   .     S
N99    H155    1.029   .     S
H102   N154    1.029   .     S
N103   O104    1.302   .     A
N103   O105    1.302   .     A
N106   O108    1.302   .     A
N106   O107    1.302   .     A
O109   C113    1.295   .     A
O109   Cu121   1.955   .     S
O110   C114    1.295   .     A
O110   Cu122   1.955   .     S
O111   C113    1.290   .     A
O111   Cu122   1.951   .     S
O112   C114    1.290   .     A
O112   Cu121   1.951   .     S
C113   C149    1.429   .     S
C114   C150    1.429   .     S
O115   Cu121   1.927   .     S
O115   C119    1.304   .     A
O116   C120    1.304   .     A
O116   Cu122   1.927   .     S
O117   Cu122   1.905   .     S
O117   C119    1.299   .     A
O118   C120    1.299   .     A
O118   Cu121   1.905   .     S
C119   C123    1.465   .     S
C120   C124    1.465   .     S
Cu121  N154    2.028   .     S
Cu121  Cu122   2.699   .     S
Cu122  N153    2.028   .     S
C123   C127    1.397   .     A
C123   C129    1.395   .     A
C124   C128    1.397   .     A
C124   C130    1.395   .     A
C125   C133    1.405   .     A
C125   C127    1.394   .     A
C126   C134    1.405   .     A
C126   C128    1.394   .     A
C126   H40     1.084   1_655 S
C127   H146    1.082   .     S
C128   H145    1.082   .     S
C129   H144    1.079   .     S
C129   C131    1.406   .     A
C130   H143    1.079   .     S
C130   C132    1.406   .     A
C131   C135    1.428   .     A
C131   C133    1.414   .     A
C132   C136    1.428   .     A
C132   C134    1.414   .     A
C133   C625    1.389   .     S
C134   C626    1.389   1_554 S
C135   C138    1.433   .     A
C135   C622    1.432   .     S
C136   C137    1.433   .     A
C136   C621    1.432   1_554 S
C137   C139    1.396   .     A
C137   N157    1.438   .     S
C138   C140    1.396   .     A
C138   N160    1.438   .     S
C139   H141    1.085   .     S
C139   C619    1.389   1_554 S
C140   H142    1.085   .     S
C140   C620    1.389   .     S
H147   C17     1.084   1_655 S
C149   C312    1.329   .     S
C149   H313    1.088   .     S
C150   C473    1.329   1_545 S
C150   H476    1.088   1_545 S
H151   C473    1.088   1_545 S
H152   C312    1.088   .     S
N153   N46     1.285   1_655 S
N153   H47     1.029   1_655 S
H156   N46     1.029   1_655 S
N157   O158    1.302   .     A
N157   O159    1.302   .     A
N160   O162    1.302   .     A
N160   O161    1.302   .     A
O163   C167    1.295   .     A
O163   Cu175   1.955   .     S
O164   C168    1.295   .     A
O164   Cu176   1.955   .     S
O165   C167    1.290   .     A
O165   Cu176   1.951   .     S
O166   C168    1.290   .     A
O166   Cu175   1.951   .     S
C167   C203    1.429   .     S
C168   C204    1.429   .     S
O169   Cu175   1.927   .     S
O169   C173    1.304   .     A
O170   C174    1.304   .     A
O170   Cu176   1.927   .     S
O171   Cu176   1.905   .     S
O171   C173    1.299   .     A
O172   C174    1.299   .     A
O172   Cu175   1.905   .     S
C173   C177    1.465   .     S
C174   C178    1.465   .     S
Cu175  N208    2.028   .     S
Cu175  Cu176   2.699   .     S
Cu176  N207    2.028   .     S
C177   C181    1.397   .     A
C177   C183    1.395   .     A
C178   C182    1.397   .     A
C178   C184    1.395   .     A
C179   C187    1.405   .     A
C179   C181    1.394   .     A
C179   H309    1.084   1_455 S
C180   C188    1.405   .     A
C180   C182    1.394   .     A
C180   H256    1.084   .     S
C181   H200    1.082   .     S
C182   H199    1.082   .     S
C183   H198    1.079   .     S
C183   C185    1.406   .     A
C184   H197    1.079   .     S
C184   C186    1.406   .     A
C185   C189    1.428   .     A
C185   C187    1.414   .     A
C186   C190    1.428   .     A
C186   C188    1.414   .     A
C187   C679    1.389   .     S
C188   C680    1.389   1_554 S
C189   C192    1.433   .     A
C189   C676    1.432   .     S
C190   C191    1.433   .     A
C190   C675    1.432   1_554 S
C191   C193    1.396   .     A
C191   N211    1.438   .     S
C192   C194    1.396   .     A
C192   N214    1.438   .     S
C193   H195    1.085   .     S
C193   C673    1.389   1_554 S
C194   H196    1.085   .     S
C194   C674    1.389   .     S
H201   C233    1.084   .     S
H202   C288    1.084   1_455 S
C203   C366    1.329   .     S
C203   H367    1.088   .     S
H206   C366    1.088   .     S
N207   N262    1.285   .     S
N207   H263    1.029   .     S
N208   N315    1.285   1_455 S
N208   H318    1.029   1_455 S
H209   N315    1.029   1_455 S
H210   N262    1.029   .     S
N211   O212    1.302   .     A
N211   O213    1.302   .     A
N214   O216    1.302   .     A
N214   O215    1.302   .     A
O217   C221    1.295   .     A
O217   Cu229   1.955   .     S
O218   C222    1.295   .     A
O218   Cu230   1.955   .     S
O219   C221    1.290   .     A
O219   Cu230   1.951   .     S
O220   C222    1.290   .     A
O220   Cu229   1.951   .     S
C221   C257    1.429   .     S
C222   C258    1.429   .     S
O223   Cu229   1.927   .     S
O223   C227    1.304   .     A
O224   C228    1.304   .     A
O224   Cu230   1.927   .     S
O225   Cu230   1.905   .     S
O225   C227    1.299   .     A
O226   C228    1.299   .     A
O226   Cu229   1.905   .     S
C227   C231    1.465   .     S
C228   C232    1.465   .     S
Cu229  N262    2.028   .     S
Cu229  Cu230   2.699   .     S
Cu230  N261    2.028   .     S
C231   C235    1.397   .     A
C231   C237    1.395   .     A
C232   C236    1.397   .     A
C232   C238    1.395   .     A
C233   C241    1.405   .     A
C233   C235    1.394   .     A
C234   C242    1.405   .     A
C234   C236    1.394   .     A
C234   H310    1.084   .     S
C235   H254    1.082   .     S
C236   H253    1.082   .     S
C237   H252    1.079   .     S
C237   C239    1.406   .     A
C238   H251    1.079   .     S
C238   C240    1.406   .     A
C239   C243    1.428   .     A
C239   C241    1.414   .     A
C240   C244    1.428   .     A
C240   C242    1.414   .     A
C241   C733    1.389   .     S
C242   C734    1.389   1_554 S
C243   C246    1.433   .     A
C243   C730    1.432   .     S
C244   C245    1.433   .     A
C244   C729    1.432   1_554 S
C245   C247    1.396   .     A
C245   N265    1.438   .     S
C246   C248    1.396   .     A
C246   N268    1.438   .     S
C247   H249    1.085   .     S
C247   C727    1.389   1_554 S
C248   H250    1.085   .     S
C248   C728    1.389   .     S
H255   C287    1.084   .     S
C257   C420    1.329   .     S
C257   H421    1.088   .     S
H260   C420    1.088   .     S
N261   N316    1.285   .     S
N261   H317    1.029   .     S
H264   N316    1.029   .     S
N265   O266    1.302   .     A
N265   O267    1.302   .     A
N268   O270    1.302   .     A
N268   O269    1.302   .     A
O271   C275    1.295   .     A
O271   Cu283   1.955   .     S
O272   C276    1.295   .     A
O272   Cu284   1.955   .     S
O273   C275    1.290   .     A
O273   Cu284   1.951   .     S
O274   C276    1.290   .     A
O274   Cu283   1.951   .     S
C275   C311    1.429   .     S
C276   C312    1.429   .     S
O277   Cu283   1.927   .     S
O277   C281    1.304   .     A
O278   C282    1.304   .     A
O278   Cu284   1.927   .     S
O279   Cu284   1.905   .     S
O279   C281    1.299   .     A
O280   C282    1.299   .     A
O280   Cu283   1.905   .     S
C281   C285    1.465   .     S
C282   C286    1.465   .     S
Cu283  N316    2.028   .     S
Cu283  Cu284   2.699   .     S
Cu284  N315    2.028   .     S
C285   C289    1.397   .     A
C285   C291    1.395   .     A
C286   C290    1.397   .     A
C286   C292    1.395   .     A
C287   C295    1.405   .     A
C287   C289    1.394   .     A
C288   C296    1.405   .     A
C288   C290    1.394   .     A
C288   H202    1.084   1_655 S
C289   H308    1.082   .     S
C290   H307    1.082   .     S
C291   H306    1.079   .     S
C291   C293    1.406   .     A
C292   H305    1.079   .     S
C292   C294    1.406   .     A
C293   C297    1.428   .     A
C293   C295    1.414   .     A
C294   C298    1.428   .     A
C294   C296    1.414   .     A
C295   C787    1.389   .     S
C296   C788    1.389   1_554 S
C297   C300    1.433   .     A
C297   C784    1.432   .     S
C298   C299    1.433   .     A
C298   C783    1.432   1_554 S
C299   C301    1.396   .     A
C299   N319    1.438   .     S
C300   C302    1.396   .     A
C300   N322    1.438   .     S
C301   H303    1.085   .     S
C301   C781    1.389   1_554 S
C302   H304    1.085   .     S
C302   C782    1.389   .     S
H309   C179    1.084   1_655 S
C311   C474    1.329   .     S
C311   H475    1.088   .     S
H314   C474    1.088   .     S
N315   N208    1.285   1_655 S
N315   H209    1.029   1_655 S
H318   N208    1.029   1_655 S
N319   O320    1.302   .     A
N319   O321    1.302   .     A
N322   O324    1.302   .     A
N322   O323    1.302   .     A
O325   C329    1.295   .     A
O325   Cu337   1.955   .     S
O326   C330    1.295   .     A
O326   Cu338   1.955   .     S
O327   C329    1.290   .     A
O327   Cu338   1.951   .     S
O328   C330    1.290   .     A
O328   Cu337   1.951   .     S
C329   C365    1.429   .     S
C330   C366    1.429   .     S
O331   Cu337   1.927   .     S
O331   C335    1.304   .     A
O332   C336    1.304   .     A
O332   Cu338   1.927   .     S
O333   Cu338   1.905   .     S
O333   C335    1.299   .     A
O334   C336    1.299   .     A
O334   Cu337   1.905   .     S
C335   C339    1.465   .     S
C336   C340    1.465   .     S
Cu337  N370    2.028   .     S
Cu337  Cu338   2.699   .     S
Cu338  N369    2.028   .     S
C339   C343    1.397   .     A
C339   C345    1.395   .     A
C340   C344    1.397   .     A
C340   C346    1.395   .     A
C341   C349    1.405   .     A
C341   C343    1.394   .     A
C341   H471    1.084   1_455 S
C342   C350    1.405   .     A
C342   C344    1.394   .     A
C342   H418    1.084   .     S
C343   H362    1.082   .     S
C344   H361    1.082   .     S
C345   H360    1.079   .     S
C345   C347    1.406   .     A
C346   H359    1.079   .     S
C346   C348    1.406   .     A
C347   C351    1.428   .     A
C347   C349    1.414   .     A
C348   C352    1.428   .     A
C348   C350    1.414   .     A
C349   C841    1.389   .     S
C350   C842    1.389   1_554 S
C351   C354    1.433   .     A
C351   C838    1.432   .     S
C352   C353    1.433   .     A
C352   C837    1.432   1_554 S
C353   C355    1.396   .     A
C353   N373    1.438   .     S
C354   C356    1.396   .     A
C354   N376    1.438   .     S
C355   H357    1.085   .     S
C355   C835    1.389   1_554 S
C356   H358    1.085   .     S
C356   C836    1.389   .     S
H363   C395    1.084   .     S
H364   C450    1.084   1_455 S
C365   C42     1.329   1_565 S
C365   H43     1.088   1_565 S
H368   C42     1.088   1_565 S
N369   N424    1.285   .     S
N369   H425    1.029   .     S
N370   N477    1.285   1_455 S
N370   H480    1.029   1_455 S
H371   N477    1.029   1_455 S
H372   N424    1.029   .     S
N373   O374    1.302   .     A
N373   O375    1.302   .     A
N376   O378    1.302   .     A
N376   O377    1.302   .     A
O379   C383    1.295   .     A
O379   Cu391   1.955   .     S
O380   C384    1.295   .     A
O380   Cu392   1.955   .     S
O381   C383    1.290   .     A
O381   Cu392   1.951   .     S
O382   C384    1.290   .     A
O382   Cu391   1.951   .     S
C383   C419    1.429   .     S
C384   C420    1.429   .     S
O385   Cu391   1.927   .     S
O385   C389    1.304   .     A
O386   C390    1.304   .     A
O386   Cu392   1.927   .     S
O387   Cu392   1.905   .     S
O387   C389    1.299   .     A
O388   C390    1.299   .     A
O388   Cu391   1.905   .     S
C389   C393    1.465   .     S
C390   C394    1.465   .     S
Cu391  N424    2.028   .     S
Cu391  Cu392   2.699   .     S
Cu392  N423    2.028   .     S
C393   C397    1.397   .     A
C393   C399    1.395   .     A
C394   C398    1.397   .     A
C394   C400    1.395   .     A
C395   C403    1.405   .     A
C395   C397    1.394   .     A
C396   C404    1.405   .     A
C396   C398    1.394   .     A
C396   H472    1.084   .     S
C397   H416    1.082   .     S
C398   H415    1.082   .     S
C399   H414    1.079   .     S
C399   C401    1.406   .     A
C400   H413    1.079   .     S
C400   C402    1.406   .     A
C401   C405    1.428   .     A
C401   C403    1.414   .     A
C402   C406    1.428   .     A
C402   C404    1.414   .     A
C403   C895    1.389   .     S
C404   C896    1.389   1_554 S
C405   C408    1.433   .     A
C405   C892    1.432   .     S
C406   C407    1.433   .     A
C406   C891    1.432   1_554 S
C407   C409    1.396   .     A
C407   N427    1.438   .     S
C408   C410    1.396   .     A
C408   N430    1.438   .     S
C409   H411    1.085   .     S
C409   C889    1.389   1_554 S
C410   H412    1.085   .     S
C410   C890    1.389   .     S
H417   C449    1.084   .     S
C419   C96     1.329   1_565 S
C419   H97     1.088   1_565 S
H422   C96     1.088   1_565 S
N423   N478    1.285   .     S
N423   H479    1.029   .     S
H426   N478    1.029   .     S
N427   O428    1.302   .     A
N427   O429    1.302   .     A
N430   O432    1.302   .     A
N430   O431    1.302   .     A
O433   C437    1.295   .     A
O433   Cu445   1.955   .     S
O434   C438    1.295   .     A
O434   Cu446   1.955   .     S
O435   C437    1.290   .     A
O435   Cu446   1.951   .     S
O436   C438    1.290   .     A
O436   Cu445   1.951   .     S
C437   C473    1.429   .     S
C438   C474    1.429   .     S
O439   Cu445   1.927   .     S
O439   C443    1.304   .     A
O440   C444    1.304   .     A
O440   Cu446   1.927   .     S
O441   Cu446   1.905   .     S
O441   C443    1.299   .     A
O442   C444    1.299   .     A
O442   Cu445   1.905   .     S
C443   C447    1.465   .     S
C444   C448    1.465   .     S
Cu445  N478    2.028   .     S
Cu445  Cu446   2.699   .     S
Cu446  N477    2.028   .     S
C447   C451    1.397   .     A
C447   C453    1.395   .     A
C448   C452    1.397   .     A
C448   C454    1.395   .     A
C449   C457    1.405   .     A
C449   C451    1.394   .     A
C450   C458    1.405   .     A
C450   C452    1.394   .     A
C450   H364    1.084   1_655 S
C451   H470    1.082   .     S
C452   H469    1.082   .     S
C453   H468    1.079   .     S
C453   C455    1.406   .     A
C454   H467    1.079   .     S
C454   C456    1.406   .     A
C455   C459    1.428   .     A
C455   C457    1.414   .     A
C456   C460    1.428   .     A
C456   C458    1.414   .     A
C457   C949    1.389   .     S
C458   C950    1.389   1_554 S
C459   C462    1.433   .     A
C459   C946    1.432   .     S
C460   C461    1.433   .     A
C460   C945    1.432   1_554 S
C461   C463    1.396   .     A
C461   N481    1.438   .     S
C462   C464    1.396   .     A
C462   N484    1.438   .     S
C463   H465    1.085   .     S
C463   C943    1.389   1_554 S
C464   H466    1.085   .     S
C464   C944    1.389   .     S
H471   C341    1.084   1_655 S
C473   C150    1.329   1_565 S
C473   H151    1.088   1_565 S
H476   C150    1.088   1_565 S
N477   N370    1.285   1_655 S
N477   H371    1.029   1_655 S
H480   N370    1.029   1_655 S
N481   O482    1.302   .     A
N481   O483    1.302   .     A
N484   O486    1.302   .     A
N484   O485    1.302   .     A
O487   C491    1.295   .     A
O487   Cu499   1.955   .     S
O488   C492    1.295   .     A
O488   Cu500   1.955   .     S
O489   C491    1.290   .     A
O489   Cu500   1.951   .     S
O490   C492    1.290   .     A
O490   Cu499   1.951   .     S
C491   C527    1.429   .     S
C492   C528    1.429   .     S
O493   Cu499   1.927   .     S
O493   C497    1.304   .     A
O494   C498    1.304   .     A
O494   Cu500   1.927   .     S
O495   Cu500   1.905   .     S
O495   C497    1.299   .     A
O496   C498    1.299   .     A
O496   Cu499   1.905   .     S
C497   C501    1.465   .     S
C498   C502    1.465   .     S
Cu499  N532    2.028   .     S
Cu499  Cu500   2.699   .     S
Cu500  N531    2.028   .     S
C501   C505    1.397   .     A
C501   C507    1.395   .     A
C502   C506    1.397   .     A
C502   C508    1.395   .     A
C503   C511    1.405   .     A
C503   C505    1.394   .     A
C503   H633    1.084   1_455 S
C504   C512    1.405   .     A
C504   C506    1.394   .     A
C504   H580    1.084   .     S
C505   H524    1.082   .     S
C506   H523    1.082   .     S
C507   H522    1.079   .     S
C507   C509    1.406   .     A
C508   H521    1.079   .     S
C508   C510    1.406   .     A
C509   C513    1.428   .     A
C509   C511    1.414   .     A
C510   C514    1.428   .     A
C510   C512    1.414   .     A
C511   C31     1.389   1_556 S
C513   C516    1.433   .     A
C513   C28     1.432   1_556 S
C514   C515    1.433   .     A
C515   C517    1.396   .     A
C515   N535    1.438   .     S
C516   C518    1.396   .     A
C516   N538    1.438   .     S
C517   H519    1.085   .     S
C518   H520    1.085   .     S
C518   C26     1.389   1_556 S
H525   C557    1.084   .     S
H526   C612    1.084   1_455 S
C527   C690    1.329   .     S
C527   H691    1.088   .     S
C528   C851    1.329   1_545 S
C528   H854    1.088   1_545 S
H529   C851    1.088   1_545 S
H530   C690    1.088   .     S
N531   N586    1.285   .     S
N531   H587    1.029   .     S
N532   N639    1.285   1_455 S
N532   H642    1.029   1_455 S
H533   N639    1.029   1_455 S
H534   N586    1.029   .     S
N535   O536    1.302   .     A
N535   O537    1.302   .     A
N538   O540    1.302   .     A
N538   O539    1.302   .     A
O541   C545    1.295   .     A
O541   Cu553   1.955   .     S
O542   C546    1.295   .     A
O542   Cu554   1.955   .     S
O543   C545    1.290   .     A
O543   Cu554   1.951   .     S
O544   C546    1.290   .     A
O544   Cu553   1.951   .     S
C545   C581    1.429   .     S
C546   C582    1.429   .     S
O547   Cu553   1.927   .     S
O547   C551    1.304   .     A
O548   C552    1.304   .     A
O548   Cu554   1.927   .     S
O549   Cu554   1.905   .     S
O549   C551    1.299   .     A
O550   C552    1.299   .     A
O550   Cu553   1.905   .     S
C551   C555    1.465   .     S
C552   C556    1.465   .     S
Cu553  N586    2.028   .     S
Cu553  Cu554   2.699   .     S
Cu554  N585    2.028   .     S
C555   C559    1.397   .     A
C555   C561    1.395   .     A
C556   C560    1.397   .     A
C556   C562    1.395   .     A
C557   C565    1.405   .     A
C557   C559    1.394   .     A
C558   C566    1.405   .     A
C558   C560    1.394   .     A
C558   H634    1.084   .     S
C559   H578    1.082   .     S
C560   H577    1.082   .     S
C561   H576    1.079   .     S
C561   C563    1.406   .     A
C562   H575    1.079   .     S
C562   C564    1.406   .     A
C563   C567    1.428   .     A
C563   C565    1.414   .     A
C564   C568    1.428   .     A
C564   C566    1.414   .     A
C565   C85     1.389   1_556 S
C567   C570    1.433   .     A
C567   C82     1.432   1_556 S
C568   C569    1.433   .     A
C569   C571    1.396   .     A
C569   N589    1.438   .     S
C570   C572    1.396   .     A
C570   N592    1.438   .     S
C571   H573    1.085   .     S
C572   H574    1.085   .     S
C572   C80     1.389   1_556 S
H579   C611    1.084   .     S
C581   C744    1.329   .     S
C581   H745    1.088   .     S
C582   C905    1.329   1_545 S
C582   H908    1.088   1_545 S
H583   C905    1.088   1_545 S
H584   C744    1.088   .     S
N585   N640    1.285   .     S
N585   H641    1.029   .     S
H588   N640    1.029   .     S
N589   O590    1.302   .     A
N589   O591    1.302   .     A
N592   O594    1.302   .     A
N592   O593    1.302   .     A
O595   C599    1.295   .     A
O595   Cu607   1.955   .     S
O596   C600    1.295   .     A
O596   Cu608   1.955   .     S
O597   C599    1.290   .     A
O597   Cu608   1.951   .     S
O598   C600    1.290   .     A
O598   Cu607   1.951   .     S
C599   C635    1.429   .     S
C600   C636    1.429   .     S
O601   Cu607   1.927   .     S
O601   C605    1.304   .     A
O602   C606    1.304   .     A
O602   Cu608   1.927   .     S
O603   Cu608   1.905   .     S
O603   C605    1.299   .     A
O604   C606    1.299   .     A
O604   Cu607   1.905   .     S
C605   C609    1.465   .     S
C606   C610    1.465   .     S
Cu607  N640    2.028   .     S
Cu607  Cu608   2.699   .     S
Cu608  N639    2.028   .     S
C609   C613    1.397   .     A
C609   C615    1.395   .     A
C610   C614    1.397   .     A
C610   C616    1.395   .     A
C611   C619    1.405   .     A
C611   C613    1.394   .     A
C612   C620    1.405   .     A
C612   C614    1.394   .     A
C612   H526    1.084   1_655 S
C613   H632    1.082   .     S
C614   H631    1.082   .     S
C615   H630    1.079   .     S
C615   C617    1.406   .     A
C616   H629    1.079   .     S
C616   C618    1.406   .     A
C617   C621    1.428   .     A
C617   C619    1.414   .     A
C618   C622    1.428   .     A
C618   C620    1.414   .     A
C619   C139    1.389   1_556 S
C621   C624    1.433   .     A
C621   C136    1.432   1_556 S
C622   C623    1.433   .     A
C623   C625    1.396   .     A
C623   N643    1.438   .     S
C624   C626    1.396   .     A
C624   N646    1.438   .     S
C625   H627    1.085   .     S
C626   H628    1.085   .     S
C626   C134    1.389   1_556 S
H633   C503    1.084   1_655 S
C635   C798    1.329   .     S
C635   H799    1.088   .     S
C636   C959    1.329   1_545 S
C636   H962    1.088   1_545 S
H637   C959    1.088   1_545 S
H638   C798    1.088   .     S
N639   N532    1.285   1_655 S
N639   H533    1.029   1_655 S
H642   N532    1.029   1_655 S
N643   O644    1.302   .     A
N643   O645    1.302   .     A
N646   O648    1.302   .     A
N646   O647    1.302   .     A
O649   C653    1.295   .     A
O649   Cu661   1.955   .     S
O650   C654    1.295   .     A
O650   Cu662   1.955   .     S
O651   C653    1.290   .     A
O651   Cu662   1.951   .     S
O652   C654    1.290   .     A
O652   Cu661   1.951   .     S
C653   C689    1.429   .     S
C654   C690    1.429   .     S
O655   Cu661   1.927   .     S
O655   C659    1.304   .     A
O656   C660    1.304   .     A
O656   Cu662   1.927   .     S
O657   Cu662   1.905   .     S
O657   C659    1.299   .     A
O658   C660    1.299   .     A
O658   Cu661   1.905   .     S
C659   C663    1.465   .     S
C660   C664    1.465   .     S
Cu661  N694    2.028   .     S
Cu661  Cu662   2.699   .     S
Cu662  N693    2.028   .     S
C663   C667    1.397   .     A
C663   C669    1.395   .     A
C664   C668    1.397   .     A
C664   C670    1.395   .     A
C665   C673    1.405   .     A
C665   C667    1.394   .     A
C665   H795    1.084   1_455 S
C666   C674    1.405   .     A
C666   C668    1.394   .     A
C666   H742    1.084   .     S
C667   H686    1.082   .     S
C668   H685    1.082   .     S
C669   H684    1.079   .     S
C669   C671    1.406   .     A
C670   H683    1.079   .     S
C670   C672    1.406   .     A
C671   C675    1.428   .     A
C671   C673    1.414   .     A
C672   C676    1.428   .     A
C672   C674    1.414   .     A
C673   C193    1.389   1_556 S
C675   C678    1.433   .     A
C675   C190    1.432   1_556 S
C676   C677    1.433   .     A
C677   C679    1.396   .     A
C677   N697    1.438   .     S
C678   C680    1.396   .     A
C678   N700    1.438   .     S
C679   H681    1.085   .     S
C680   H682    1.085   .     S
C680   C188    1.389   1_556 S
H687   C719    1.084   .     S
H688   C774    1.084   1_455 S
C689   C852    1.329   .     S
C689   H853    1.088   .     S
H692   C852    1.088   .     S
N693   N748    1.285   .     S
N693   H749    1.029   .     S
N694   N801    1.285   1_455 S
N694   H804    1.029   1_455 S
H695   N801    1.029   1_455 S
H696   N748    1.029   .     S
N697   O698    1.302   .     A
N697   O699    1.302   .     A
N700   O702    1.302   .     A
N700   O701    1.302   .     A
O703   C707    1.295   .     A
O703   Cu715   1.955   .     S
O704   C708    1.295   .     A
O704   Cu716   1.955   .     S
O705   C707    1.290   .     A
O705   Cu716   1.951   .     S
O706   C708    1.290   .     A
O706   Cu715   1.951   .     S
C707   C743    1.429   .     S
C708   C744    1.429   .     S
O709   Cu715   1.927   .     S
O709   C713    1.304   .     A
O710   C714    1.304   .     A
O710   Cu716   1.927   .     S
O711   Cu716   1.905   .     S
O711   C713    1.299   .     A
O712   C714    1.299   .     A
O712   Cu715   1.905   .     S
C713   C717    1.465   .     S
C714   C718    1.465   .     S
Cu715  N748    2.028   .     S
Cu715  Cu716   2.699   .     S
Cu716  N747    2.028   .     S
C717   C721    1.397   .     A
C717   C723    1.395   .     A
C718   C722    1.397   .     A
C718   C724    1.395   .     A
C719   C727    1.405   .     A
C719   C721    1.394   .     A
C720   C728    1.405   .     A
C720   C722    1.394   .     A
C720   H796    1.084   .     S
C721   H740    1.082   .     S
C722   H739    1.082   .     S
C723   H738    1.079   .     S
C723   C725    1.406   .     A
C724   H737    1.079   .     S
C724   C726    1.406   .     A
C725   C729    1.428   .     A
C725   C727    1.414   .     A
C726   C730    1.428   .     A
C726   C728    1.414   .     A
C727   C247    1.389   1_556 S
C729   C732    1.433   .     A
C729   C244    1.432   1_556 S
C730   C731    1.433   .     A
C731   C733    1.396   .     A
C731   N751    1.438   .     S
C732   C734    1.396   .     A
C732   N754    1.438   .     S
C733   H735    1.085   .     S
C734   H736    1.085   .     S
C734   C242    1.389   1_556 S
H741   C773    1.084   .     S
C743   C906    1.329   .     S
C743   H907    1.088   .     S
H746   C906    1.088   .     S
N747   N802    1.285   .     S
N747   H803    1.029   .     S
H750   N802    1.029   .     S
N751   O752    1.302   .     A
N751   O753    1.302   .     A
N754   O756    1.302   .     A
N754   O755    1.302   .     A
O757   C761    1.295   .     A
O757   Cu769   1.955   .     S
O758   C762    1.295   .     A
O758   Cu770   1.955   .     S
O759   C761    1.290   .     A
O759   Cu770   1.951   .     S
O760   C762    1.290   .     A
O760   Cu769   1.951   .     S
C761   C797    1.429   .     S
C762   C798    1.429   .     S
O763   Cu769   1.927   .     S
O763   C767    1.304   .     A
O764   C768    1.304   .     A
O764   Cu770   1.927   .     S
O765   Cu770   1.905   .     S
O765   C767    1.299   .     A
O766   C768    1.299   .     A
O766   Cu769   1.905   .     S
C767   C771    1.465   .     S
C768   C772    1.465   .     S
Cu769  N802    2.028   .     S
Cu769  Cu770   2.699   .     S
Cu770  N801    2.028   .     S
C771   C775    1.397   .     A
C771   C777    1.395   .     A
C772   C776    1.397   .     A
C772   C778    1.395   .     A
C773   C781    1.405   .     A
C773   C775    1.394   .     A
C774   C782    1.405   .     A
C774   C776    1.394   .     A
C774   H688    1.084   1_655 S
C775   H794    1.082   .     S
C776   H793    1.082   .     S
C777   H792    1.079   .     S
C777   C779    1.406   .     A
C778   H791    1.079   .     S
C778   C780    1.406   .     A
C779   C783    1.428   .     A
C779   C781    1.414   .     A
C780   C784    1.428   .     A
C780   C782    1.414   .     A
C781   C301    1.389   1_556 S
C783   C786    1.433   .     A
C783   C298    1.432   1_556 S
C784   C785    1.433   .     A
C785   C787    1.396   .     A
C785   N805    1.438   .     S
C786   C788    1.396   .     A
C786   N808    1.438   .     S
C787   H789    1.085   .     S
C788   H790    1.085   .     S
C788   C296    1.389   1_556 S
H795   C665    1.084   1_655 S
C797   C960    1.329   .     S
C797   H961    1.088   .     S
H800   C960    1.088   .     S
N801   N694    1.285   1_655 S
N801   H695    1.029   1_655 S
H804   N694    1.029   1_655 S
N805   O806    1.302   .     A
N805   O807    1.302   .     A
N808   O810    1.302   .     A
N808   O809    1.302   .     A
O811   C815    1.295   .     A
O811   Cu823   1.955   .     S
O812   C816    1.295   .     A
O812   Cu824   1.955   .     S
O813   C815    1.290   .     A
O813   Cu824   1.951   .     S
O814   C816    1.290   .     A
O814   Cu823   1.951   .     S
C815   C851    1.429   .     S
C816   C852    1.429   .     S
O817   Cu823   1.927   .     S
O817   C821    1.304   .     A
O818   C822    1.304   .     A
O818   Cu824   1.927   .     S
O819   Cu824   1.905   .     S
O819   C821    1.299   .     A
O820   C822    1.299   .     A
O820   Cu823   1.905   .     S
C821   C825    1.465   .     S
C822   C826    1.465   .     S
Cu823  N856    2.028   .     S
Cu823  Cu824   2.699   .     S
Cu824  N855    2.028   .     S
C825   C829    1.397   .     A
C825   C831    1.395   .     A
C826   C830    1.397   .     A
C826   C832    1.395   .     A
C827   C835    1.405   .     A
C827   C829    1.394   .     A
C827   H957    1.084   1_455 S
C828   C836    1.405   .     A
C828   C830    1.394   .     A
C828   H904    1.084   .     S
C829   H848    1.082   .     S
C830   H847    1.082   .     S
C831   H846    1.079   .     S
C831   C833    1.406   .     A
C832   H845    1.079   .     S
C832   C834    1.406   .     A
C833   C837    1.428   .     A
C833   C835    1.414   .     A
C834   C838    1.428   .     A
C834   C836    1.414   .     A
C835   C355    1.389   1_556 S
C837   C840    1.433   .     A
C837   C352    1.432   1_556 S
C838   C839    1.433   .     A
C839   C841    1.396   .     A
C839   N859    1.438   .     S
C840   C842    1.396   .     A
C840   N862    1.438   .     S
C841   H843    1.085   .     S
C842   H844    1.085   .     S
C842   C350    1.389   1_556 S
H849   C881    1.084   .     S
H850   C936    1.084   1_455 S
C851   C528    1.329   1_565 S
C851   H529    1.088   1_565 S
H854   C528    1.088   1_565 S
N855   N910    1.285   .     S
N855   H911    1.029   .     S
N856   N963    1.285   1_455 S
N856   H966    1.029   1_455 S
H857   N963    1.029   1_455 S
H858   N910    1.029   .     S
N859   O860    1.302   .     A
N859   O861    1.302   .     A
N862   O864    1.302   .     A
N862   O863    1.302   .     A
O865   C869    1.295   .     A
O865   Cu877   1.955   .     S
O866   C870    1.295   .     A
O866   Cu878   1.955   .     S
O867   C869    1.290   .     A
O867   Cu878   1.951   .     S
O868   C870    1.290   .     A
O868   Cu877   1.951   .     S
C869   C905    1.429   .     S
C870   C906    1.429   .     S
O871   Cu877   1.927   .     S
O871   C875    1.304   .     A
O872   C876    1.304   .     A
O872   Cu878   1.927   .     S
O873   Cu878   1.905   .     S
O873   C875    1.299   .     A
O874   C876    1.299   .     A
O874   Cu877   1.905   .     S
C875   C879    1.465   .     S
C876   C880    1.465   .     S
Cu877  N910    2.028   .     S
Cu877  Cu878   2.699   .     S
Cu878  N909    2.028   .     S
C879   C883    1.397   .     A
C879   C885    1.395   .     A
C880   C884    1.397   .     A
C880   C886    1.395   .     A
C881   C889    1.405   .     A
C881   C883    1.394   .     A
C882   C890    1.405   .     A
C882   C884    1.394   .     A
C882   H958    1.084   .     S
C883   H902    1.082   .     S
C884   H901    1.082   .     S
C885   H900    1.079   .     S
C885   C887    1.406   .     A
C886   H899    1.079   .     S
C886   C888    1.406   .     A
C887   C891    1.428   .     A
C887   C889    1.414   .     A
C888   C892    1.428   .     A
C888   C890    1.414   .     A
C889   C409    1.389   1_556 S
C891   C894    1.433   .     A
C891   C406    1.432   1_556 S
C892   C893    1.433   .     A
C893   C895    1.396   .     A
C893   N913    1.438   .     S
C894   C896    1.396   .     A
C894   N916    1.438   .     S
C895   H897    1.085   .     S
C896   H898    1.085   .     S
C896   C404    1.389   1_556 S
H903   C935    1.084   .     S
C905   C582    1.329   1_565 S
C905   H583    1.088   1_565 S
H908   C582    1.088   1_565 S
N909   N964    1.285   .     S
N909   H965    1.029   .     S
H912   N964    1.029   .     S
N913   O914    1.302   .     A
N913   O915    1.302   .     A
N916   O918    1.302   .     A
N916   O917    1.302   .     A
O919   C923    1.295   .     A
O919   Cu931   1.955   .     S
O920   C924    1.295   .     A
O920   Cu932   1.955   .     S
O921   C923    1.290   .     A
O921   Cu932   1.951   .     S
O922   C924    1.290   .     A
O922   Cu931   1.951   .     S
C923   C959    1.429   .     S
C924   C960    1.429   .     S
O925   Cu931   1.927   .     S
O925   C929    1.304   .     A
O926   C930    1.304   .     A
O926   Cu932   1.927   .     S
O927   Cu932   1.905   .     S
O927   C929    1.299   .     A
O928   C930    1.299   .     A
O928   Cu931   1.905   .     S
C929   C933    1.465   .     S
C930   C934    1.465   .     S
Cu931  N964    2.028   .     S
Cu931  Cu932   2.699   .     S
Cu932  N963    2.028   .     S
C933   C937    1.397   .     A
C933   C939    1.395   .     A
C934   C938    1.397   .     A
C934   C940    1.395   .     A
C935   C943    1.405   .     A
C935   C937    1.394   .     A
C936   C944    1.405   .     A
C936   C938    1.394   .     A
C936   H850    1.084   1_655 S
C937   H956    1.082   .     S
C938   H955    1.082   .     S
C939   H954    1.079   .     S
C939   C941    1.406   .     A
C940   H953    1.079   .     S
C940   C942    1.406   .     A
C941   C945    1.428   .     A
C941   C943    1.414   .     A
C942   C946    1.428   .     A
C942   C944    1.414   .     A
C943   C463    1.389   1_556 S
C945   C948    1.433   .     A
C945   C460    1.432   1_556 S
C946   C947    1.433   .     A
C947   C949    1.396   .     A
C947   N967    1.438   .     S
C948   C950    1.396   .     A
C948   N970    1.438   .     S
C949   H951    1.085   .     S
C950   H952    1.085   .     S
C950   C458    1.389   1_556 S
H957   C827    1.084   1_655 S
C959   C636    1.329   1_565 S
C959   H637    1.088   1_565 S
H962   C636    1.088   1_565 S
N963   N856    1.285   1_655 S
N963   H857    1.029   1_655 S
H966   N856    1.029   1_655 S
N967   O968    1.302   .     A
N967   O969    1.302   .     A
N970   O972    1.302   .     A
N970   O971    1.302   .     A
