data_str_m2_o1_o17_pcu_sym.139
_audit_creation_date              2020-01-03
_audit_creation_method            'Materials Studio'
_symmetry_space_group_name_H-M    'P1'
_symmetry_Int_Tables_number       1
_symmetry_cell_setting            triclinic
loop_
_symmetry_equiv_pos_as_xyz
  x,y,z
_cell_length_a                    32.6675
_cell_length_b                    28.6753
_cell_length_c                    30.0665
_cell_angle_alpha                 90.4785
_cell_angle_beta                  90.2299
_cell_angle_gamma                 90.2926
loop_
_atom_site_label
_atom_site_type_symbol
_atom_site_fract_x
_atom_site_fract_y
_atom_site_fract_z
_atom_site_U_iso_or_equiv
_atom_site_adp_type
_atom_site_occupancy
C1     C     0.08748   0.16665   0.25030   0.00000  Uiso   1.00
C2     C     0.24603   0.16687   0.25069   0.00000  Uiso   1.00
C3     C     0.09200   0.17782   0.02384   0.00000  Uiso   1.00
C4     C     0.23954   0.18435   0.47639   0.00000  Uiso   1.00
C5     C     0.02050   0.12581   0.24146   0.00000  Uiso   1.00
C6     C     0.31338   0.21001   0.25121   0.00000  Uiso   1.00
C7     C     0.31275   0.12479   0.25331   0.00000  Uiso   1.00
C8     C     0.02160   0.20827   0.26227   0.00000  Uiso   1.00
C9     C     0.29089   0.16735   0.25185   0.00000  Uiso   1.00
C10    C     0.04294   0.16688   0.25129   0.00000  Uiso   1.00
C11    C     0.15961   0.02435   0.21177   0.00000  Uiso   1.00
C12    C     0.17347   0.30903   0.28826   0.00000  Uiso   1.00
C13    C     0.17387   0.02503   0.28820   0.00000  Uiso   1.00
C14    C     0.15984   0.30835   0.21173   0.00000  Uiso   1.00
C15    C     0.16778   0.16651   0.16451   0.00000  Uiso   1.00
C16    C     0.16469   0.16666   0.33545   0.00000  Uiso   1.00
C17    C     0.20188   0.17691   0.40594   0.00000  Uiso   1.00
C18    C     0.13005   0.17484   0.09417   0.00000  Uiso   1.00
C19    C     0.16479   0.16680   0.38382   0.00000  Uiso   1.00
C20    C     0.16744   0.16671   0.11613   0.00000  Uiso   1.00
C21    C     0.12848   0.15778   0.40781   0.00000  Uiso   1.00
C22    C     0.20429   0.16192   0.09219   0.00000  Uiso   1.00
C23    C     0.12788   0.16930   0.45360   0.00000  Uiso   1.00
C24    C     0.20423   0.17334   0.04651   0.00000  Uiso   1.00
C25    C     0.16563   0.17436   0.47657   0.00000  Uiso   1.00
C26    C     0.16631   0.17453   0.02353   0.00000  Uiso   1.00
C27    C     0.20274   0.17781   0.45280   0.00000  Uiso   1.00
C28    C     0.12910   0.17506   0.04735   0.00000  Uiso   1.00
C29    C     0.09100   0.17555   0.47751   0.00000  Uiso   1.00
C30    C     0.24051   0.18362   0.02278   0.00000  Uiso   1.00
Cu31   Cu    0.16667   0.21355   0.25000   0.00000  Uiso   1.00
Cu32   Cu    0.16667   0.11978   0.25000   0.00000  Uiso   1.00
H33    H     0.06318   0.18211   0.04089   0.00000  Uiso   1.00
H34    H     0.26800   0.19091   0.45928   0.00000  Uiso   1.00
H35    H     0.15378   0.04219   0.18093   0.00000  Uiso   1.00
H36    H     0.17872   0.29131   0.31920   0.00000  Uiso   1.00
H37    H     0.18006   0.04335   0.31902   0.00000  Uiso   1.00
H38    H     0.15457   0.29012   0.18076   0.00000  Uiso   1.00
N39    N     0.16667   0.28402   0.25000   0.00000  Uiso   1.00
N40    N     0.16667   0.04931   0.25000   0.00000  Uiso   1.00
O41    O     0.10655   0.20625   0.25000   0.00000  Uiso   1.00
O42    O     0.22679   0.12709   0.25001   0.00000  Uiso   1.00
O43    O     0.22679   0.20625   0.25001   0.00000  Uiso   1.00
O44    O     0.10655   0.12709   0.25000   0.00000  Uiso   1.00
O45    O     0.16666   0.20627   0.18513   0.00000  Uiso   1.00
O46    O     0.16668   0.12707   0.31487   0.00000  Uiso   1.00
O47    O     0.16668   0.20627   0.31487   0.00000  Uiso   1.00
O48    O     0.16666   0.12707   0.18513   0.00000  Uiso   1.00
N49    N     0.23867   0.18031   0.38061   0.00000  Uiso   1.00
H50    H     0.26190   0.15891   0.39129   0.00000  Uiso   1.00
C51    C     0.25243   0.22724   0.37131   0.00000  Uiso   1.00
H52    H     0.26143   0.24576   0.40244   0.00000  Uiso   1.00
H53    H     0.22799   0.24715   0.35457   0.00000  Uiso   1.00
H54    H     0.27931   0.22580   0.34889   0.00000  Uiso   1.00
N55    N     0.09341   0.17857   0.11965   0.00000  Uiso   1.00
H56    H     0.07007   0.15669   0.10931   0.00000  Uiso   1.00
C57    C     0.07972   0.22566   0.12822   0.00000  Uiso   1.00
H58    H     0.07011   0.24263   0.09682   0.00000  Uiso   1.00
H59    H     0.10446   0.24661   0.14396   0.00000  Uiso   1.00
H60    H     0.05326   0.22486   0.15129   0.00000  Uiso   1.00
S61    S     0.08813   0.12247   0.38416   0.00000  Uiso   1.00
O62    O     0.06674   0.09599   0.42032   0.00000  Uiso   1.00
O63    O     0.05750   0.15268   0.36095   0.00000  Uiso   1.00
O64    O     0.10591   0.08279   0.34778   0.00000  Uiso   1.00
H65    H     0.08120   0.06893   0.33363   0.00000  Uiso   1.00
S66    S     0.24747   0.13382   0.11713   0.00000  Uiso   1.00
O67    O     0.27430   0.11230   0.08208   0.00000  Uiso   1.00
O68    O     0.27194   0.16879   0.14365   0.00000  Uiso   1.00
O69    O     0.23232   0.09071   0.15087   0.00000  Uiso   1.00
H70    H     0.25770   0.07377   0.15848   0.00000  Uiso   1.00
N71    N     0.05311   0.18361   0.45535   0.00000  Uiso   1.00
H72    H     0.02782   0.17138   0.47216   0.00000  Uiso   1.00
C73    C     0.04777   0.23102   0.44045   0.00000  Uiso   1.00
H74    H     0.01938   0.23329   0.42016   0.00000  Uiso   1.00
H75    H     0.07403   0.24203   0.41963   0.00000  Uiso   1.00
H76    H     0.04515   0.25500   0.46952   0.00000  Uiso   1.00
N77    N     0.27726   0.19755   0.04505   0.00000  Uiso   1.00
H78    H     0.30364   0.19172   0.02714   0.00000  Uiso   1.00
C79    C     0.27619   0.24397   0.06424   0.00000  Uiso   1.00
H80    H     0.30504   0.25079   0.08290   0.00000  Uiso   1.00
H81    H     0.25024   0.24743   0.08779   0.00000  Uiso   1.00
H82    H     0.27313   0.27034   0.03757   0.00000  Uiso   1.00
S83    S     0.04048   0.07848   0.20958   0.00000  Uiso   1.00
O84    O     0.06212   0.04535   0.23992   0.00000  Uiso   1.00
O85    O     0.00632   0.05336   0.18569   0.00000  Uiso   1.00
O86    O     0.07386   0.09784   0.17159   0.00000  Uiso   1.00
H87    H     0.08205   0.06972   0.15453   0.00000  Uiso   1.00
S88    S     0.29280   0.26413   0.23255   0.00000  Uiso   1.00
O89    O     0.26922   0.28627   0.26991   0.00000  Uiso   1.00
O90    O     0.32644   0.29650   0.21841   0.00000  Uiso   1.00
O91    O     0.26165   0.25575   0.18847   0.00000  Uiso   1.00
H92    H     0.24986   0.28682   0.18235   0.00000  Uiso   1.00
S93    S     0.29272   0.07249   0.27669   0.00000  Uiso   1.00
O94    O     0.26842   0.04624   0.24206   0.00000  Uiso   1.00
O95    O     0.32672   0.04194   0.29302   0.00000  Uiso   1.00
O96    O     0.26216   0.08510   0.31999   0.00000  Uiso   1.00
H97    H     0.28113   0.09379   0.34448   0.00000  Uiso   1.00
S98    S     0.04422   0.25548   0.29324   0.00000  Uiso   1.00
O99    O     0.06522   0.28799   0.26169   0.00000  Uiso   1.00
O100   O     0.01199   0.28158   0.31862   0.00000  Uiso   1.00
O101   O     0.07913   0.23612   0.32977   0.00000  Uiso   1.00
H102   H     0.09423   0.26435   0.33985   0.00000  Uiso   1.00
C103   C     0.42081   0.16665   0.25030   0.00000  Uiso   1.00
C104   C     0.57936   0.16687   0.25069   0.00000  Uiso   1.00
C105   C     0.42533   0.17782   0.02384   0.00000  Uiso   1.00
C106   C     0.57288   0.18435   0.47639   0.00000  Uiso   1.00
C107   C     0.35384   0.12581   0.24146   0.00000  Uiso   1.00
C108   C     0.64671   0.21001   0.25121   0.00000  Uiso   1.00
C109   C     0.64608   0.12479   0.25331   0.00000  Uiso   1.00
C110   C     0.35493   0.20827   0.26227   0.00000  Uiso   1.00
C111   C     0.62422   0.16735   0.25185   0.00000  Uiso   1.00
C112   C     0.37628   0.16688   0.25129   0.00000  Uiso   1.00
C113   C     0.49295   0.02435   0.21177   0.00000  Uiso   1.00
C114   C     0.50681   0.30903   0.28826   0.00000  Uiso   1.00
C115   C     0.50720   0.02503   0.28820   0.00000  Uiso   1.00
C116   C     0.49317   0.30835   0.21173   0.00000  Uiso   1.00
C117   C     0.50111   0.16651   0.16451   0.00000  Uiso   1.00
C118   C     0.49803   0.16666   0.33545   0.00000  Uiso   1.00
C119   C     0.53522   0.17691   0.40594   0.00000  Uiso   1.00
C120   C     0.46339   0.17484   0.09417   0.00000  Uiso   1.00
C121   C     0.49812   0.16680   0.38382   0.00000  Uiso   1.00
C122   C     0.50077   0.16671   0.11613   0.00000  Uiso   1.00
C123   C     0.46181   0.15778   0.40781   0.00000  Uiso   1.00
C124   C     0.53762   0.16192   0.09219   0.00000  Uiso   1.00
C125   C     0.46122   0.16930   0.45360   0.00000  Uiso   1.00
C126   C     0.53757   0.17334   0.04651   0.00000  Uiso   1.00
C127   C     0.49896   0.17436   0.47657   0.00000  Uiso   1.00
C128   C     0.49964   0.17453   0.02353   0.00000  Uiso   1.00
C129   C     0.53608   0.17781   0.45280   0.00000  Uiso   1.00
C130   C     0.46243   0.17506   0.04735   0.00000  Uiso   1.00
C131   C     0.42434   0.17555   0.47751   0.00000  Uiso   1.00
C132   C     0.57384   0.18362   0.02278   0.00000  Uiso   1.00
Cu133  Cu    0.50000   0.21355   0.25000   0.00000  Uiso   1.00
Cu134  Cu    0.50000   0.11978   0.25000   0.00000  Uiso   1.00
H135   H     0.39652   0.18211   0.04089   0.00000  Uiso   1.00
H136   H     0.60134   0.19091   0.45928   0.00000  Uiso   1.00
H137   H     0.48711   0.04219   0.18093   0.00000  Uiso   1.00
H138   H     0.51205   0.29131   0.31920   0.00000  Uiso   1.00
H139   H     0.51339   0.04335   0.31902   0.00000  Uiso   1.00
H140   H     0.48790   0.29012   0.18076   0.00000  Uiso   1.00
N141   N     0.50000   0.28402   0.25000   0.00000  Uiso   1.00
N142   N     0.50000   0.04931   0.25000   0.00000  Uiso   1.00
O143   O     0.43988   0.20625   0.25000   0.00000  Uiso   1.00
O144   O     0.56012   0.12709   0.25001   0.00000  Uiso   1.00
O145   O     0.56012   0.20625   0.25001   0.00000  Uiso   1.00
O146   O     0.43988   0.12709   0.25000   0.00000  Uiso   1.00
O147   O     0.49999   0.20627   0.18513   0.00000  Uiso   1.00
O148   O     0.50001   0.12707   0.31487   0.00000  Uiso   1.00
O149   O     0.50001   0.20627   0.31487   0.00000  Uiso   1.00
O150   O     0.49999   0.12707   0.18513   0.00000  Uiso   1.00
N151   N     0.57200   0.18031   0.38061   0.00000  Uiso   1.00
H152   H     0.59523   0.15891   0.39129   0.00000  Uiso   1.00
C153   C     0.58577   0.22724   0.37131   0.00000  Uiso   1.00
H154   H     0.59476   0.24576   0.40244   0.00000  Uiso   1.00
H155   H     0.56133   0.24715   0.35457   0.00000  Uiso   1.00
H156   H     0.61265   0.22580   0.34889   0.00000  Uiso   1.00
N157   N     0.42674   0.17857   0.11965   0.00000  Uiso   1.00
H158   H     0.40340   0.15669   0.10931   0.00000  Uiso   1.00
C159   C     0.41305   0.22566   0.12822   0.00000  Uiso   1.00
H160   H     0.40344   0.24263   0.09682   0.00000  Uiso   1.00
H161   H     0.43779   0.24661   0.14396   0.00000  Uiso   1.00
H162   H     0.38659   0.22486   0.15129   0.00000  Uiso   1.00
S163   S     0.42146   0.12247   0.38416   0.00000  Uiso   1.00
O164   O     0.40007   0.09599   0.42032   0.00000  Uiso   1.00
O165   O     0.39083   0.15268   0.36095   0.00000  Uiso   1.00
O166   O     0.43924   0.08279   0.34778   0.00000  Uiso   1.00
H167   H     0.41453   0.06893   0.33363   0.00000  Uiso   1.00
S168   S     0.58081   0.13382   0.11713   0.00000  Uiso   1.00
O169   O     0.60764   0.11230   0.08208   0.00000  Uiso   1.00
O170   O     0.60528   0.16879   0.14365   0.00000  Uiso   1.00
O171   O     0.56565   0.09071   0.15087   0.00000  Uiso   1.00
H172   H     0.59104   0.07377   0.15848   0.00000  Uiso   1.00
N173   N     0.38645   0.18361   0.45535   0.00000  Uiso   1.00
H174   H     0.36115   0.17138   0.47216   0.00000  Uiso   1.00
C175   C     0.38111   0.23102   0.44045   0.00000  Uiso   1.00
H176   H     0.35271   0.23329   0.42016   0.00000  Uiso   1.00
H177   H     0.40737   0.24203   0.41963   0.00000  Uiso   1.00
H178   H     0.37848   0.25500   0.46952   0.00000  Uiso   1.00
N179   N     0.61059   0.19755   0.04505   0.00000  Uiso   1.00
H180   H     0.63698   0.19172   0.02714   0.00000  Uiso   1.00
C181   C     0.60952   0.24397   0.06424   0.00000  Uiso   1.00
H182   H     0.63838   0.25079   0.08290   0.00000  Uiso   1.00
H183   H     0.58357   0.24743   0.08779   0.00000  Uiso   1.00
H184   H     0.60646   0.27034   0.03757   0.00000  Uiso   1.00
S185   S     0.37381   0.07848   0.20958   0.00000  Uiso   1.00
O186   O     0.39546   0.04535   0.23992   0.00000  Uiso   1.00
O187   O     0.33965   0.05336   0.18569   0.00000  Uiso   1.00
O188   O     0.40719   0.09784   0.17159   0.00000  Uiso   1.00
H189   H     0.41538   0.06972   0.15453   0.00000  Uiso   1.00
S190   S     0.62613   0.26413   0.23255   0.00000  Uiso   1.00
O191   O     0.60255   0.28627   0.26991   0.00000  Uiso   1.00
O192   O     0.65977   0.29650   0.21841   0.00000  Uiso   1.00
O193   O     0.59498   0.25575   0.18847   0.00000  Uiso   1.00
H194   H     0.58319   0.28682   0.18235   0.00000  Uiso   1.00
S195   S     0.62605   0.07249   0.27669   0.00000  Uiso   1.00
O196   O     0.60176   0.04624   0.24206   0.00000  Uiso   1.00
O197   O     0.66005   0.04194   0.29302   0.00000  Uiso   1.00
O198   O     0.59549   0.08510   0.31999   0.00000  Uiso   1.00
H199   H     0.61447   0.09379   0.34448   0.00000  Uiso   1.00
S200   S     0.37755   0.25548   0.29324   0.00000  Uiso   1.00
O201   O     0.39855   0.28799   0.26169   0.00000  Uiso   1.00
O202   O     0.34532   0.28158   0.31862   0.00000  Uiso   1.00
O203   O     0.41246   0.23612   0.32977   0.00000  Uiso   1.00
H204   H     0.42756   0.26435   0.33985   0.00000  Uiso   1.00
C205   C     0.75414   0.16665   0.25030   0.00000  Uiso   1.00
C206   C     0.91269   0.16687   0.25069   0.00000  Uiso   1.00
C207   C     0.75866   0.17782   0.02384   0.00000  Uiso   1.00
C208   C     0.90621   0.18435   0.47639   0.00000  Uiso   1.00
C209   C     0.68717   0.12581   0.24146   0.00000  Uiso   1.00
C210   C     0.98004   0.21001   0.25121   0.00000  Uiso   1.00
C211   C     0.97942   0.12479   0.25331   0.00000  Uiso   1.00
C212   C     0.68826   0.20827   0.26227   0.00000  Uiso   1.00
C213   C     0.95756   0.16735   0.25185   0.00000  Uiso   1.00
C214   C     0.70961   0.16688   0.25129   0.00000  Uiso   1.00
C215   C     0.82628   0.02435   0.21177   0.00000  Uiso   1.00
C216   C     0.84014   0.30903   0.28826   0.00000  Uiso   1.00
C217   C     0.84054   0.02503   0.28820   0.00000  Uiso   1.00
C218   C     0.82650   0.30835   0.21173   0.00000  Uiso   1.00
C219   C     0.83445   0.16651   0.16451   0.00000  Uiso   1.00
C220   C     0.83136   0.16666   0.33545   0.00000  Uiso   1.00
C221   C     0.86855   0.17691   0.40594   0.00000  Uiso   1.00
C222   C     0.79672   0.17484   0.09417   0.00000  Uiso   1.00
C223   C     0.83146   0.16680   0.38382   0.00000  Uiso   1.00
C224   C     0.83410   0.16671   0.11613   0.00000  Uiso   1.00
C225   C     0.79514   0.15778   0.40781   0.00000  Uiso   1.00
C226   C     0.87095   0.16192   0.09219   0.00000  Uiso   1.00
C227   C     0.79455   0.16930   0.45360   0.00000  Uiso   1.00
C228   C     0.87090   0.17334   0.04651   0.00000  Uiso   1.00
C229   C     0.83230   0.17436   0.47657   0.00000  Uiso   1.00
C230   C     0.83297   0.17453   0.02353   0.00000  Uiso   1.00
C231   C     0.86941   0.17781   0.45280   0.00000  Uiso   1.00
C232   C     0.79576   0.17506   0.04735   0.00000  Uiso   1.00
C233   C     0.75767   0.17555   0.47751   0.00000  Uiso   1.00
C234   C     0.90717   0.18362   0.02278   0.00000  Uiso   1.00
Cu235  Cu    0.83333   0.21355   0.25000   0.00000  Uiso   1.00
Cu236  Cu    0.83333   0.11978   0.25000   0.00000  Uiso   1.00
H237   H     0.72985   0.18211   0.04089   0.00000  Uiso   1.00
H238   H     0.93467   0.19091   0.45928   0.00000  Uiso   1.00
H239   H     0.82045   0.04219   0.18093   0.00000  Uiso   1.00
H240   H     0.84538   0.29131   0.31920   0.00000  Uiso   1.00
H241   H     0.84673   0.04335   0.31902   0.00000  Uiso   1.00
H242   H     0.82123   0.29012   0.18076   0.00000  Uiso   1.00
N243   N     0.83333   0.28402   0.25000   0.00000  Uiso   1.00
N244   N     0.83333   0.04931   0.25000   0.00000  Uiso   1.00
O245   O     0.77321   0.20625   0.25000   0.00000  Uiso   1.00
O246   O     0.89345   0.12709   0.25001   0.00000  Uiso   1.00
O247   O     0.89345   0.20625   0.25001   0.00000  Uiso   1.00
O248   O     0.77321   0.12709   0.25000   0.00000  Uiso   1.00
O249   O     0.83332   0.20627   0.18513   0.00000  Uiso   1.00
O250   O     0.83334   0.12707   0.31487   0.00000  Uiso   1.00
O251   O     0.83334   0.20627   0.31487   0.00000  Uiso   1.00
O252   O     0.83332   0.12707   0.18513   0.00000  Uiso   1.00
N253   N     0.90533   0.18031   0.38061   0.00000  Uiso   1.00
H254   H     0.92856   0.15891   0.39129   0.00000  Uiso   1.00
C255   C     0.91910   0.22724   0.37131   0.00000  Uiso   1.00
H256   H     0.92810   0.24576   0.40244   0.00000  Uiso   1.00
H257   H     0.89466   0.24715   0.35457   0.00000  Uiso   1.00
H258   H     0.94598   0.22580   0.34889   0.00000  Uiso   1.00
N259   N     0.76007   0.17857   0.11965   0.00000  Uiso   1.00
H260   H     0.73673   0.15669   0.10931   0.00000  Uiso   1.00
C261   C     0.74639   0.22566   0.12822   0.00000  Uiso   1.00
H262   H     0.73677   0.24263   0.09682   0.00000  Uiso   1.00
H263   H     0.77112   0.24661   0.14396   0.00000  Uiso   1.00
H264   H     0.71992   0.22486   0.15129   0.00000  Uiso   1.00
S265   S     0.75479   0.12247   0.38416   0.00000  Uiso   1.00
O266   O     0.73341   0.09599   0.42032   0.00000  Uiso   1.00
O267   O     0.72416   0.15268   0.36095   0.00000  Uiso   1.00
O268   O     0.77258   0.08279   0.34778   0.00000  Uiso   1.00
H269   H     0.74787   0.06893   0.33363   0.00000  Uiso   1.00
S270   S     0.91414   0.13382   0.11713   0.00000  Uiso   1.00
O271   O     0.94097   0.11230   0.08208   0.00000  Uiso   1.00
O272   O     0.93861   0.16879   0.14365   0.00000  Uiso   1.00
O273   O     0.89898   0.09071   0.15087   0.00000  Uiso   1.00
H274   H     0.92437   0.07377   0.15848   0.00000  Uiso   1.00
N275   N     0.71978   0.18361   0.45535   0.00000  Uiso   1.00
H276   H     0.69449   0.17138   0.47216   0.00000  Uiso   1.00
C277   C     0.71444   0.23102   0.44045   0.00000  Uiso   1.00
H278   H     0.68605   0.23329   0.42016   0.00000  Uiso   1.00
H279   H     0.74070   0.24203   0.41963   0.00000  Uiso   1.00
H280   H     0.71181   0.25500   0.46952   0.00000  Uiso   1.00
N281   N     0.94393   0.19755   0.04505   0.00000  Uiso   1.00
H282   H     0.97031   0.19172   0.02714   0.00000  Uiso   1.00
C283   C     0.94285   0.24397   0.06424   0.00000  Uiso   1.00
H284   H     0.97171   0.25079   0.08290   0.00000  Uiso   1.00
H285   H     0.91691   0.24743   0.08779   0.00000  Uiso   1.00
H286   H     0.93980   0.27034   0.03757   0.00000  Uiso   1.00
S287   S     0.70714   0.07848   0.20958   0.00000  Uiso   1.00
O288   O     0.72879   0.04535   0.23992   0.00000  Uiso   1.00
O289   O     0.67299   0.05336   0.18569   0.00000  Uiso   1.00
O290   O     0.74052   0.09784   0.17159   0.00000  Uiso   1.00
H291   H     0.74872   0.06972   0.15453   0.00000  Uiso   1.00
S292   S     0.95947   0.26413   0.23255   0.00000  Uiso   1.00
O293   O     0.93589   0.28627   0.26991   0.00000  Uiso   1.00
O294   O     0.99311   0.29650   0.21841   0.00000  Uiso   1.00
O295   O     0.92832   0.25575   0.18847   0.00000  Uiso   1.00
H296   H     0.91652   0.28682   0.18235   0.00000  Uiso   1.00
S297   S     0.95938   0.07249   0.27669   0.00000  Uiso   1.00
O298   O     0.93509   0.04624   0.24206   0.00000  Uiso   1.00
O299   O     0.99339   0.04194   0.29302   0.00000  Uiso   1.00
O300   O     0.92883   0.08510   0.31999   0.00000  Uiso   1.00
H301   H     0.94780   0.09379   0.34448   0.00000  Uiso   1.00
S302   S     0.71089   0.25548   0.29324   0.00000  Uiso   1.00
O303   O     0.73188   0.28799   0.26169   0.00000  Uiso   1.00
O304   O     0.67866   0.28158   0.31862   0.00000  Uiso   1.00
O305   O     0.74579   0.23612   0.32977   0.00000  Uiso   1.00
H306   H     0.76090   0.26435   0.33985   0.00000  Uiso   1.00
C307   C     0.08748   0.49998   0.25030   0.00000  Uiso   1.00
C308   C     0.24603   0.50020   0.25069   0.00000  Uiso   1.00
C309   C     0.09200   0.51115   0.02384   0.00000  Uiso   1.00
C310   C     0.23954   0.51768   0.47639   0.00000  Uiso   1.00
C311   C     0.02050   0.45914   0.24146   0.00000  Uiso   1.00
C312   C     0.31338   0.54335   0.25121   0.00000  Uiso   1.00
C313   C     0.31275   0.45812   0.25331   0.00000  Uiso   1.00
C314   C     0.02160   0.54160   0.26227   0.00000  Uiso   1.00
C315   C     0.29089   0.50068   0.25185   0.00000  Uiso   1.00
C316   C     0.04294   0.50021   0.25129   0.00000  Uiso   1.00
C317   C     0.15961   0.35769   0.21177   0.00000  Uiso   1.00
C318   C     0.17347   0.64237   0.28826   0.00000  Uiso   1.00
C319   C     0.17387   0.35836   0.28820   0.00000  Uiso   1.00
C320   C     0.15984   0.64168   0.21173   0.00000  Uiso   1.00
C321   C     0.16778   0.49984   0.16451   0.00000  Uiso   1.00
C322   C     0.16469   0.49999   0.33545   0.00000  Uiso   1.00
C323   C     0.20188   0.51024   0.40594   0.00000  Uiso   1.00
C324   C     0.13005   0.50817   0.09417   0.00000  Uiso   1.00
C325   C     0.16479   0.50014   0.38382   0.00000  Uiso   1.00
C326   C     0.16744   0.50005   0.11613   0.00000  Uiso   1.00
C327   C     0.12848   0.49111   0.40781   0.00000  Uiso   1.00
C328   C     0.20429   0.49526   0.09219   0.00000  Uiso   1.00
C329   C     0.12788   0.50263   0.45360   0.00000  Uiso   1.00
C330   C     0.20423   0.50667   0.04651   0.00000  Uiso   1.00
C331   C     0.16563   0.50770   0.47657   0.00000  Uiso   1.00
C332   C     0.16631   0.50787   0.02353   0.00000  Uiso   1.00
C333   C     0.20274   0.51114   0.45280   0.00000  Uiso   1.00
C334   C     0.12910   0.50839   0.04735   0.00000  Uiso   1.00
C335   C     0.09100   0.50888   0.47751   0.00000  Uiso   1.00
C336   C     0.24051   0.51696   0.02278   0.00000  Uiso   1.00
Cu337  Cu    0.16667   0.54689   0.25000   0.00000  Uiso   1.00
Cu338  Cu    0.16667   0.45311   0.25000   0.00000  Uiso   1.00
H339   H     0.06318   0.51545   0.04089   0.00000  Uiso   1.00
H340   H     0.26800   0.52424   0.45928   0.00000  Uiso   1.00
H341   H     0.15378   0.37552   0.18093   0.00000  Uiso   1.00
H342   H     0.17872   0.62464   0.31920   0.00000  Uiso   1.00
H343   H     0.18006   0.37668   0.31902   0.00000  Uiso   1.00
H344   H     0.15457   0.62345   0.18076   0.00000  Uiso   1.00
N345   N     0.16667   0.61736   0.25000   0.00000  Uiso   1.00
N346   N     0.16667   0.38264   0.25000   0.00000  Uiso   1.00
O347   O     0.10655   0.53958   0.25000   0.00000  Uiso   1.00
O348   O     0.22679   0.46042   0.25001   0.00000  Uiso   1.00
O349   O     0.22679   0.53958   0.25001   0.00000  Uiso   1.00
O350   O     0.10655   0.46042   0.25000   0.00000  Uiso   1.00
O351   O     0.16666   0.53960   0.18513   0.00000  Uiso   1.00
O352   O     0.16668   0.46040   0.31487   0.00000  Uiso   1.00
O353   O     0.16668   0.53960   0.31487   0.00000  Uiso   1.00
O354   O     0.16666   0.46040   0.18513   0.00000  Uiso   1.00
N355   N     0.23867   0.51365   0.38061   0.00000  Uiso   1.00
H356   H     0.26190   0.49224   0.39129   0.00000  Uiso   1.00
C357   C     0.25243   0.56057   0.37131   0.00000  Uiso   1.00
H358   H     0.26143   0.57909   0.40244   0.00000  Uiso   1.00
H359   H     0.22799   0.58049   0.35457   0.00000  Uiso   1.00
H360   H     0.27931   0.55913   0.34889   0.00000  Uiso   1.00
N361   N     0.09341   0.51190   0.11965   0.00000  Uiso   1.00
H362   H     0.07007   0.49002   0.10931   0.00000  Uiso   1.00
C363   C     0.07972   0.55900   0.12822   0.00000  Uiso   1.00
H364   H     0.07011   0.57597   0.09682   0.00000  Uiso   1.00
H365   H     0.10446   0.57994   0.14396   0.00000  Uiso   1.00
H366   H     0.05326   0.55819   0.15129   0.00000  Uiso   1.00
S367   S     0.08813   0.45580   0.38416   0.00000  Uiso   1.00
O368   O     0.06674   0.42933   0.42032   0.00000  Uiso   1.00
O369   O     0.05750   0.48602   0.36095   0.00000  Uiso   1.00
O370   O     0.10591   0.41612   0.34778   0.00000  Uiso   1.00
H371   H     0.08120   0.40227   0.33363   0.00000  Uiso   1.00
S372   S     0.24747   0.46716   0.11713   0.00000  Uiso   1.00
O373   O     0.27430   0.44563   0.08208   0.00000  Uiso   1.00
O374   O     0.27194   0.50213   0.14365   0.00000  Uiso   1.00
O375   O     0.23232   0.42405   0.15087   0.00000  Uiso   1.00
H376   H     0.25770   0.40711   0.15848   0.00000  Uiso   1.00
N377   N     0.05311   0.51695   0.45535   0.00000  Uiso   1.00
H378   H     0.02782   0.50472   0.47216   0.00000  Uiso   1.00
C379   C     0.04777   0.56435   0.44045   0.00000  Uiso   1.00
H380   H     0.01938   0.56662   0.42016   0.00000  Uiso   1.00
H381   H     0.07403   0.57536   0.41963   0.00000  Uiso   1.00
H382   H     0.04515   0.58834   0.46952   0.00000  Uiso   1.00
N383   N     0.27726   0.53089   0.04505   0.00000  Uiso   1.00
H384   H     0.30364   0.52506   0.02714   0.00000  Uiso   1.00
C385   C     0.27619   0.57731   0.06424   0.00000  Uiso   1.00
H386   H     0.30504   0.58412   0.08290   0.00000  Uiso   1.00
H387   H     0.25024   0.58076   0.08779   0.00000  Uiso   1.00
H388   H     0.27313   0.60368   0.03757   0.00000  Uiso   1.00
S389   S     0.04048   0.41182   0.20958   0.00000  Uiso   1.00
O390   O     0.06212   0.37869   0.23992   0.00000  Uiso   1.00
O391   O     0.00632   0.38670   0.18569   0.00000  Uiso   1.00
O392   O     0.07386   0.43117   0.17159   0.00000  Uiso   1.00
H393   H     0.08205   0.40306   0.15453   0.00000  Uiso   1.00
S394   S     0.29280   0.59746   0.23255   0.00000  Uiso   1.00
O395   O     0.26922   0.61961   0.26991   0.00000  Uiso   1.00
O396   O     0.32644   0.62984   0.21841   0.00000  Uiso   1.00
O397   O     0.26165   0.58909   0.18847   0.00000  Uiso   1.00
H398   H     0.24986   0.62015   0.18235   0.00000  Uiso   1.00
S399   S     0.29272   0.40583   0.27669   0.00000  Uiso   1.00
O400   O     0.26842   0.37957   0.24206   0.00000  Uiso   1.00
O401   O     0.32672   0.37528   0.29302   0.00000  Uiso   1.00
O402   O     0.26216   0.41843   0.31999   0.00000  Uiso   1.00
H403   H     0.28113   0.42712   0.34448   0.00000  Uiso   1.00
S404   S     0.04422   0.58881   0.29324   0.00000  Uiso   1.00
O405   O     0.06522   0.62132   0.26169   0.00000  Uiso   1.00
O406   O     0.01199   0.61491   0.31862   0.00000  Uiso   1.00
O407   O     0.07913   0.56945   0.32977   0.00000  Uiso   1.00
H408   H     0.09423   0.59768   0.33985   0.00000  Uiso   1.00
C409   C     0.42081   0.49998   0.25030   0.00000  Uiso   1.00
C410   C     0.57936   0.50020   0.25069   0.00000  Uiso   1.00
C411   C     0.42533   0.51115   0.02384   0.00000  Uiso   1.00
C412   C     0.57288   0.51768   0.47639   0.00000  Uiso   1.00
C413   C     0.35384   0.45914   0.24146   0.00000  Uiso   1.00
C414   C     0.64671   0.54335   0.25121   0.00000  Uiso   1.00
C415   C     0.64608   0.45812   0.25331   0.00000  Uiso   1.00
C416   C     0.35493   0.54160   0.26227   0.00000  Uiso   1.00
C417   C     0.62422   0.50068   0.25185   0.00000  Uiso   1.00
C418   C     0.37628   0.50021   0.25129   0.00000  Uiso   1.00
C419   C     0.49295   0.35769   0.21177   0.00000  Uiso   1.00
C420   C     0.50681   0.64237   0.28826   0.00000  Uiso   1.00
C421   C     0.50720   0.35836   0.28820   0.00000  Uiso   1.00
C422   C     0.49317   0.64168   0.21173   0.00000  Uiso   1.00
C423   C     0.50111   0.49984   0.16451   0.00000  Uiso   1.00
C424   C     0.49803   0.49999   0.33545   0.00000  Uiso   1.00
C425   C     0.53522   0.51024   0.40594   0.00000  Uiso   1.00
C426   C     0.46339   0.50817   0.09417   0.00000  Uiso   1.00
C427   C     0.49812   0.50014   0.38382   0.00000  Uiso   1.00
C428   C     0.50077   0.50005   0.11613   0.00000  Uiso   1.00
C429   C     0.46181   0.49111   0.40781   0.00000  Uiso   1.00
C430   C     0.53762   0.49526   0.09219   0.00000  Uiso   1.00
C431   C     0.46122   0.50263   0.45360   0.00000  Uiso   1.00
C432   C     0.53757   0.50667   0.04651   0.00000  Uiso   1.00
C433   C     0.49896   0.50770   0.47657   0.00000  Uiso   1.00
C434   C     0.49964   0.50787   0.02353   0.00000  Uiso   1.00
C435   C     0.53608   0.51114   0.45280   0.00000  Uiso   1.00
C436   C     0.46243   0.50839   0.04735   0.00000  Uiso   1.00
C437   C     0.42434   0.50888   0.47751   0.00000  Uiso   1.00
C438   C     0.57384   0.51696   0.02278   0.00000  Uiso   1.00
Cu439  Cu    0.50000   0.54689   0.25000   0.00000  Uiso   1.00
Cu440  Cu    0.50000   0.45311   0.25000   0.00000  Uiso   1.00
H441   H     0.39652   0.51545   0.04089   0.00000  Uiso   1.00
H442   H     0.60134   0.52424   0.45928   0.00000  Uiso   1.00
H443   H     0.48711   0.37552   0.18093   0.00000  Uiso   1.00
H444   H     0.51205   0.62464   0.31920   0.00000  Uiso   1.00
H445   H     0.51339   0.37668   0.31902   0.00000  Uiso   1.00
H446   H     0.48790   0.62345   0.18076   0.00000  Uiso   1.00
N447   N     0.50000   0.61736   0.25000   0.00000  Uiso   1.00
N448   N     0.50000   0.38264   0.25000   0.00000  Uiso   1.00
O449   O     0.43988   0.53958   0.25000   0.00000  Uiso   1.00
O450   O     0.56012   0.46042   0.25001   0.00000  Uiso   1.00
O451   O     0.56012   0.53958   0.25001   0.00000  Uiso   1.00
O452   O     0.43988   0.46042   0.25000   0.00000  Uiso   1.00
O453   O     0.49999   0.53960   0.18513   0.00000  Uiso   1.00
O454   O     0.50001   0.46040   0.31487   0.00000  Uiso   1.00
O455   O     0.50001   0.53960   0.31487   0.00000  Uiso   1.00
O456   O     0.49999   0.46040   0.18513   0.00000  Uiso   1.00
N457   N     0.57200   0.51365   0.38061   0.00000  Uiso   1.00
H458   H     0.59523   0.49224   0.39129   0.00000  Uiso   1.00
C459   C     0.58577   0.56057   0.37131   0.00000  Uiso   1.00
H460   H     0.59476   0.57909   0.40244   0.00000  Uiso   1.00
H461   H     0.56133   0.58049   0.35457   0.00000  Uiso   1.00
H462   H     0.61265   0.55913   0.34889   0.00000  Uiso   1.00
N463   N     0.42674   0.51190   0.11965   0.00000  Uiso   1.00
H464   H     0.40340   0.49002   0.10931   0.00000  Uiso   1.00
C465   C     0.41305   0.55900   0.12822   0.00000  Uiso   1.00
H466   H     0.40344   0.57597   0.09682   0.00000  Uiso   1.00
H467   H     0.43779   0.57994   0.14396   0.00000  Uiso   1.00
H468   H     0.38659   0.55819   0.15129   0.00000  Uiso   1.00
S469   S     0.42146   0.45580   0.38416   0.00000  Uiso   1.00
O470   O     0.40007   0.42933   0.42032   0.00000  Uiso   1.00
O471   O     0.39083   0.48602   0.36095   0.00000  Uiso   1.00
O472   O     0.43924   0.41612   0.34778   0.00000  Uiso   1.00
H473   H     0.41453   0.40227   0.33363   0.00000  Uiso   1.00
S474   S     0.58081   0.46716   0.11713   0.00000  Uiso   1.00
O475   O     0.60764   0.44563   0.08208   0.00000  Uiso   1.00
O476   O     0.60528   0.50213   0.14365   0.00000  Uiso   1.00
O477   O     0.56565   0.42405   0.15087   0.00000  Uiso   1.00
H478   H     0.59104   0.40711   0.15848   0.00000  Uiso   1.00
N479   N     0.38645   0.51695   0.45535   0.00000  Uiso   1.00
H480   H     0.36115   0.50472   0.47216   0.00000  Uiso   1.00
C481   C     0.38111   0.56435   0.44045   0.00000  Uiso   1.00
H482   H     0.35271   0.56662   0.42016   0.00000  Uiso   1.00
H483   H     0.40737   0.57536   0.41963   0.00000  Uiso   1.00
H484   H     0.37848   0.58834   0.46952   0.00000  Uiso   1.00
N485   N     0.61059   0.53089   0.04505   0.00000  Uiso   1.00
H486   H     0.63698   0.52506   0.02714   0.00000  Uiso   1.00
C487   C     0.60952   0.57731   0.06424   0.00000  Uiso   1.00
H488   H     0.63838   0.58412   0.08290   0.00000  Uiso   1.00
H489   H     0.58357   0.58076   0.08779   0.00000  Uiso   1.00
H490   H     0.60646   0.60368   0.03757   0.00000  Uiso   1.00
S491   S     0.37381   0.41182   0.20958   0.00000  Uiso   1.00
O492   O     0.39546   0.37869   0.23992   0.00000  Uiso   1.00
O493   O     0.33965   0.38670   0.18569   0.00000  Uiso   1.00
O494   O     0.40719   0.43117   0.17159   0.00000  Uiso   1.00
H495   H     0.41538   0.40306   0.15453   0.00000  Uiso   1.00
S496   S     0.62613   0.59746   0.23255   0.00000  Uiso   1.00
O497   O     0.60255   0.61961   0.26991   0.00000  Uiso   1.00
O498   O     0.65977   0.62984   0.21841   0.00000  Uiso   1.00
O499   O     0.59498   0.58909   0.18847   0.00000  Uiso   1.00
H500   H     0.58319   0.62015   0.18235   0.00000  Uiso   1.00
S501   S     0.62605   0.40583   0.27669   0.00000  Uiso   1.00
O502   O     0.60176   0.37957   0.24206   0.00000  Uiso   1.00
O503   O     0.66005   0.37528   0.29302   0.00000  Uiso   1.00
O504   O     0.59549   0.41843   0.31999   0.00000  Uiso   1.00
H505   H     0.61447   0.42712   0.34448   0.00000  Uiso   1.00
S506   S     0.37755   0.58881   0.29324   0.00000  Uiso   1.00
O507   O     0.39855   0.62132   0.26169   0.00000  Uiso   1.00
O508   O     0.34532   0.61491   0.31862   0.00000  Uiso   1.00
O509   O     0.41246   0.56945   0.32977   0.00000  Uiso   1.00
H510   H     0.42756   0.59768   0.33985   0.00000  Uiso   1.00
C511   C     0.75414   0.49998   0.25030   0.00000  Uiso   1.00
C512   C     0.91269   0.50020   0.25069   0.00000  Uiso   1.00
C513   C     0.75866   0.51115   0.02384   0.00000  Uiso   1.00
C514   C     0.90621   0.51768   0.47639   0.00000  Uiso   1.00
C515   C     0.68717   0.45914   0.24146   0.00000  Uiso   1.00
C516   C     0.98004   0.54335   0.25121   0.00000  Uiso   1.00
C517   C     0.97942   0.45812   0.25331   0.00000  Uiso   1.00
C518   C     0.68826   0.54160   0.26227   0.00000  Uiso   1.00
C519   C     0.95756   0.50068   0.25185   0.00000  Uiso   1.00
C520   C     0.70961   0.50021   0.25129   0.00000  Uiso   1.00
C521   C     0.82628   0.35769   0.21177   0.00000  Uiso   1.00
C522   C     0.84014   0.64237   0.28826   0.00000  Uiso   1.00
C523   C     0.84054   0.35836   0.28820   0.00000  Uiso   1.00
C524   C     0.82650   0.64168   0.21173   0.00000  Uiso   1.00
C525   C     0.83445   0.49984   0.16451   0.00000  Uiso   1.00
C526   C     0.83136   0.49999   0.33545   0.00000  Uiso   1.00
C527   C     0.86855   0.51024   0.40594   0.00000  Uiso   1.00
C528   C     0.79672   0.50817   0.09417   0.00000  Uiso   1.00
C529   C     0.83146   0.50014   0.38382   0.00000  Uiso   1.00
C530   C     0.83410   0.50005   0.11613   0.00000  Uiso   1.00
C531   C     0.79514   0.49111   0.40781   0.00000  Uiso   1.00
C532   C     0.87095   0.49526   0.09219   0.00000  Uiso   1.00
C533   C     0.79455   0.50263   0.45360   0.00000  Uiso   1.00
C534   C     0.87090   0.50667   0.04651   0.00000  Uiso   1.00
C535   C     0.83230   0.50770   0.47657   0.00000  Uiso   1.00
C536   C     0.83297   0.50787   0.02353   0.00000  Uiso   1.00
C537   C     0.86941   0.51114   0.45280   0.00000  Uiso   1.00
C538   C     0.79576   0.50839   0.04735   0.00000  Uiso   1.00
C539   C     0.75767   0.50888   0.47751   0.00000  Uiso   1.00
C540   C     0.90717   0.51696   0.02278   0.00000  Uiso   1.00
Cu541  Cu    0.83333   0.54689   0.25000   0.00000  Uiso   1.00
Cu542  Cu    0.83333   0.45311   0.25000   0.00000  Uiso   1.00
H543   H     0.72985   0.51545   0.04089   0.00000  Uiso   1.00
H544   H     0.93467   0.52424   0.45928   0.00000  Uiso   1.00
H545   H     0.82045   0.37552   0.18093   0.00000  Uiso   1.00
H546   H     0.84538   0.62464   0.31920   0.00000  Uiso   1.00
H547   H     0.84673   0.37668   0.31902   0.00000  Uiso   1.00
H548   H     0.82123   0.62345   0.18076   0.00000  Uiso   1.00
N549   N     0.83333   0.61736   0.25000   0.00000  Uiso   1.00
N550   N     0.83333   0.38264   0.25000   0.00000  Uiso   1.00
O551   O     0.77321   0.53958   0.25000   0.00000  Uiso   1.00
O552   O     0.89345   0.46042   0.25001   0.00000  Uiso   1.00
O553   O     0.89345   0.53958   0.25001   0.00000  Uiso   1.00
O554   O     0.77321   0.46042   0.25000   0.00000  Uiso   1.00
O555   O     0.83332   0.53960   0.18513   0.00000  Uiso   1.00
O556   O     0.83334   0.46040   0.31487   0.00000  Uiso   1.00
O557   O     0.83334   0.53960   0.31487   0.00000  Uiso   1.00
O558   O     0.83332   0.46040   0.18513   0.00000  Uiso   1.00
N559   N     0.90533   0.51365   0.38061   0.00000  Uiso   1.00
H560   H     0.92856   0.49224   0.39129   0.00000  Uiso   1.00
C561   C     0.91910   0.56057   0.37131   0.00000  Uiso   1.00
H562   H     0.92810   0.57909   0.40244   0.00000  Uiso   1.00
H563   H     0.89466   0.58049   0.35457   0.00000  Uiso   1.00
H564   H     0.94598   0.55913   0.34889   0.00000  Uiso   1.00
N565   N     0.76007   0.51190   0.11965   0.00000  Uiso   1.00
H566   H     0.73673   0.49002   0.10931   0.00000  Uiso   1.00
C567   C     0.74639   0.55900   0.12822   0.00000  Uiso   1.00
H568   H     0.73677   0.57597   0.09682   0.00000  Uiso   1.00
H569   H     0.77112   0.57994   0.14396   0.00000  Uiso   1.00
H570   H     0.71992   0.55819   0.15129   0.00000  Uiso   1.00
S571   S     0.75479   0.45580   0.38416   0.00000  Uiso   1.00
O572   O     0.73341   0.42933   0.42032   0.00000  Uiso   1.00
O573   O     0.72416   0.48602   0.36095   0.00000  Uiso   1.00
O574   O     0.77258   0.41612   0.34778   0.00000  Uiso   1.00
H575   H     0.74787   0.40227   0.33363   0.00000  Uiso   1.00
S576   S     0.91414   0.46716   0.11713   0.00000  Uiso   1.00
O577   O     0.94097   0.44563   0.08208   0.00000  Uiso   1.00
O578   O     0.93861   0.50213   0.14365   0.00000  Uiso   1.00
O579   O     0.89898   0.42405   0.15087   0.00000  Uiso   1.00
H580   H     0.92437   0.40711   0.15848   0.00000  Uiso   1.00
N581   N     0.71978   0.51695   0.45535   0.00000  Uiso   1.00
H582   H     0.69449   0.50472   0.47216   0.00000  Uiso   1.00
C583   C     0.71444   0.56435   0.44045   0.00000  Uiso   1.00
H584   H     0.68605   0.56662   0.42016   0.00000  Uiso   1.00
H585   H     0.74070   0.57536   0.41963   0.00000  Uiso   1.00
H586   H     0.71181   0.58834   0.46952   0.00000  Uiso   1.00
N587   N     0.94393   0.53089   0.04505   0.00000  Uiso   1.00
H588   H     0.97031   0.52506   0.02714   0.00000  Uiso   1.00
C589   C     0.94285   0.57731   0.06424   0.00000  Uiso   1.00
H590   H     0.97171   0.58412   0.08290   0.00000  Uiso   1.00
H591   H     0.91691   0.58076   0.08779   0.00000  Uiso   1.00
H592   H     0.93980   0.60368   0.03757   0.00000  Uiso   1.00
S593   S     0.70714   0.41182   0.20958   0.00000  Uiso   1.00
O594   O     0.72879   0.37869   0.23992   0.00000  Uiso   1.00
O595   O     0.67299   0.38670   0.18569   0.00000  Uiso   1.00
O596   O     0.74052   0.43117   0.17159   0.00000  Uiso   1.00
H597   H     0.74872   0.40306   0.15453   0.00000  Uiso   1.00
S598   S     0.95947   0.59746   0.23255   0.00000  Uiso   1.00
O599   O     0.93589   0.61961   0.26991   0.00000  Uiso   1.00
O600   O     0.99311   0.62984   0.21841   0.00000  Uiso   1.00
O601   O     0.92832   0.58909   0.18847   0.00000  Uiso   1.00
H602   H     0.91652   0.62015   0.18235   0.00000  Uiso   1.00
S603   S     0.95938   0.40583   0.27669   0.00000  Uiso   1.00
O604   O     0.93509   0.37957   0.24206   0.00000  Uiso   1.00
O605   O     0.99339   0.37528   0.29302   0.00000  Uiso   1.00
O606   O     0.92883   0.41843   0.31999   0.00000  Uiso   1.00
H607   H     0.94780   0.42712   0.34448   0.00000  Uiso   1.00
S608   S     0.71089   0.58881   0.29324   0.00000  Uiso   1.00
O609   O     0.73188   0.62132   0.26169   0.00000  Uiso   1.00
O610   O     0.67866   0.61491   0.31862   0.00000  Uiso   1.00
O611   O     0.74579   0.56945   0.32977   0.00000  Uiso   1.00
H612   H     0.76090   0.59768   0.33985   0.00000  Uiso   1.00
C613   C     0.08748   0.83331   0.25030   0.00000  Uiso   1.00
C614   C     0.24603   0.83353   0.25069   0.00000  Uiso   1.00
C615   C     0.09200   0.84449   0.02384   0.00000  Uiso   1.00
C616   C     0.23954   0.85101   0.47639   0.00000  Uiso   1.00
C617   C     0.02050   0.79248   0.24146   0.00000  Uiso   1.00
C618   C     0.31338   0.87668   0.25121   0.00000  Uiso   1.00
C619   C     0.31275   0.79146   0.25331   0.00000  Uiso   1.00
C620   C     0.02160   0.87493   0.26227   0.00000  Uiso   1.00
C621   C     0.29089   0.83402   0.25185   0.00000  Uiso   1.00
C622   C     0.04294   0.83354   0.25129   0.00000  Uiso   1.00
C623   C     0.15961   0.69102   0.21177   0.00000  Uiso   1.00
C624   C     0.17347   0.97570   0.28826   0.00000  Uiso   1.00
C625   C     0.17387   0.69170   0.28820   0.00000  Uiso   1.00
C626   C     0.15984   0.97502   0.21173   0.00000  Uiso   1.00
C627   C     0.16778   0.83318   0.16451   0.00000  Uiso   1.00
C628   C     0.16469   0.83332   0.33545   0.00000  Uiso   1.00
C629   C     0.20188   0.84357   0.40594   0.00000  Uiso   1.00
C630   C     0.13005   0.84151   0.09417   0.00000  Uiso   1.00
C631   C     0.16479   0.83347   0.38382   0.00000  Uiso   1.00
C632   C     0.16744   0.83338   0.11613   0.00000  Uiso   1.00
C633   C     0.12848   0.82444   0.40781   0.00000  Uiso   1.00
C634   C     0.20429   0.82859   0.09219   0.00000  Uiso   1.00
C635   C     0.12788   0.83596   0.45360   0.00000  Uiso   1.00
C636   C     0.20423   0.84001   0.04651   0.00000  Uiso   1.00
C637   C     0.16563   0.84103   0.47657   0.00000  Uiso   1.00
C638   C     0.16631   0.84120   0.02353   0.00000  Uiso   1.00
C639   C     0.20274   0.84448   0.45280   0.00000  Uiso   1.00
C640   C     0.12910   0.84173   0.04735   0.00000  Uiso   1.00
C641   C     0.09100   0.84221   0.47751   0.00000  Uiso   1.00
C642   C     0.24051   0.85029   0.02278   0.00000  Uiso   1.00
Cu643  Cu    0.16667   0.88022   0.25000   0.00000  Uiso   1.00
Cu644  Cu    0.16667   0.78645   0.25000   0.00000  Uiso   1.00
H645   H     0.06318   0.84878   0.04089   0.00000  Uiso   1.00
H646   H     0.26800   0.85758   0.45928   0.00000  Uiso   1.00
H647   H     0.15378   0.70885   0.18093   0.00000  Uiso   1.00
H648   H     0.17872   0.95797   0.31920   0.00000  Uiso   1.00
H649   H     0.18006   0.71001   0.31902   0.00000  Uiso   1.00
H650   H     0.15457   0.95678   0.18076   0.00000  Uiso   1.00
N651   N     0.16667   0.95069   0.25000   0.00000  Uiso   1.00
N652   N     0.16667   0.71598   0.25000   0.00000  Uiso   1.00
O653   O     0.10655   0.87291   0.25000   0.00000  Uiso   1.00
O654   O     0.22679   0.79375   0.25001   0.00000  Uiso   1.00
O655   O     0.22679   0.87291   0.25001   0.00000  Uiso   1.00
O656   O     0.10655   0.79375   0.25000   0.00000  Uiso   1.00
O657   O     0.16666   0.87293   0.18513   0.00000  Uiso   1.00
O658   O     0.16668   0.79373   0.31487   0.00000  Uiso   1.00
O659   O     0.16668   0.87293   0.31487   0.00000  Uiso   1.00
O660   O     0.16666   0.79373   0.18513   0.00000  Uiso   1.00
N661   N     0.23867   0.84698   0.38061   0.00000  Uiso   1.00
H662   H     0.26190   0.82557   0.39129   0.00000  Uiso   1.00
C663   C     0.25243   0.89390   0.37131   0.00000  Uiso   1.00
H664   H     0.26143   0.91243   0.40244   0.00000  Uiso   1.00
H665   H     0.22799   0.91382   0.35457   0.00000  Uiso   1.00
H666   H     0.27931   0.89246   0.34889   0.00000  Uiso   1.00
N667   N     0.09341   0.84523   0.11965   0.00000  Uiso   1.00
H668   H     0.07007   0.82335   0.10931   0.00000  Uiso   1.00
C669   C     0.07972   0.89233   0.12822   0.00000  Uiso   1.00
H670   H     0.07011   0.90930   0.09682   0.00000  Uiso   1.00
H671   H     0.10446   0.91327   0.14396   0.00000  Uiso   1.00
H672   H     0.05326   0.89153   0.15129   0.00000  Uiso   1.00
S673   S     0.08813   0.78914   0.38416   0.00000  Uiso   1.00
O674   O     0.06674   0.76266   0.42032   0.00000  Uiso   1.00
O675   O     0.05750   0.81935   0.36095   0.00000  Uiso   1.00
O676   O     0.10591   0.74945   0.34778   0.00000  Uiso   1.00
H677   H     0.08120   0.73560   0.33363   0.00000  Uiso   1.00
S678   S     0.24747   0.80049   0.11713   0.00000  Uiso   1.00
O679   O     0.27430   0.77897   0.08208   0.00000  Uiso   1.00
O680   O     0.27194   0.83546   0.14365   0.00000  Uiso   1.00
O681   O     0.23232   0.75738   0.15087   0.00000  Uiso   1.00
H682   H     0.25770   0.74044   0.15848   0.00000  Uiso   1.00
N683   N     0.05311   0.85028   0.45535   0.00000  Uiso   1.00
H684   H     0.02782   0.83805   0.47216   0.00000  Uiso   1.00
C685   C     0.04777   0.89768   0.44045   0.00000  Uiso   1.00
H686   H     0.01938   0.89996   0.42016   0.00000  Uiso   1.00
H687   H     0.07403   0.90870   0.41963   0.00000  Uiso   1.00
H688   H     0.04515   0.92167   0.46952   0.00000  Uiso   1.00
N689   N     0.27726   0.86422   0.04505   0.00000  Uiso   1.00
H690   H     0.30364   0.85839   0.02714   0.00000  Uiso   1.00
C691   C     0.27619   0.91064   0.06424   0.00000  Uiso   1.00
H692   H     0.30504   0.91746   0.08290   0.00000  Uiso   1.00
H693   H     0.25024   0.91410   0.08779   0.00000  Uiso   1.00
H694   H     0.27313   0.93701   0.03757   0.00000  Uiso   1.00
S695   S     0.04048   0.74515   0.20958   0.00000  Uiso   1.00
O696   O     0.06212   0.71202   0.23992   0.00000  Uiso   1.00
O697   O     0.00632   0.72003   0.18569   0.00000  Uiso   1.00
O698   O     0.07386   0.76450   0.17159   0.00000  Uiso   1.00
H699   H     0.08205   0.73639   0.15453   0.00000  Uiso   1.00
S700   S     0.29280   0.93080   0.23255   0.00000  Uiso   1.00
O701   O     0.26922   0.95294   0.26991   0.00000  Uiso   1.00
O702   O     0.32644   0.96317   0.21841   0.00000  Uiso   1.00
O703   O     0.26165   0.92242   0.18847   0.00000  Uiso   1.00
H704   H     0.24986   0.95348   0.18235   0.00000  Uiso   1.00
S705   S     0.29272   0.73916   0.27669   0.00000  Uiso   1.00
O706   O     0.26842   0.71290   0.24206   0.00000  Uiso   1.00
O707   O     0.32672   0.70861   0.29302   0.00000  Uiso   1.00
O708   O     0.26216   0.75176   0.31999   0.00000  Uiso   1.00
H709   H     0.28113   0.76045   0.34448   0.00000  Uiso   1.00
S710   S     0.04422   0.92214   0.29324   0.00000  Uiso   1.00
O711   O     0.06522   0.95466   0.26169   0.00000  Uiso   1.00
O712   O     0.01199   0.94825   0.31862   0.00000  Uiso   1.00
O713   O     0.07913   0.90279   0.32977   0.00000  Uiso   1.00
H714   H     0.09423   0.93101   0.33985   0.00000  Uiso   1.00
C715   C     0.42081   0.83331   0.25030   0.00000  Uiso   1.00
C716   C     0.57936   0.83353   0.25069   0.00000  Uiso   1.00
C717   C     0.42533   0.84449   0.02384   0.00000  Uiso   1.00
C718   C     0.57288   0.85101   0.47639   0.00000  Uiso   1.00
C719   C     0.35384   0.79248   0.24146   0.00000  Uiso   1.00
C720   C     0.64671   0.87668   0.25121   0.00000  Uiso   1.00
C721   C     0.64608   0.79146   0.25331   0.00000  Uiso   1.00
C722   C     0.35493   0.87493   0.26227   0.00000  Uiso   1.00
C723   C     0.62422   0.83402   0.25185   0.00000  Uiso   1.00
C724   C     0.37628   0.83354   0.25129   0.00000  Uiso   1.00
C725   C     0.49295   0.69102   0.21177   0.00000  Uiso   1.00
C726   C     0.50681   0.97570   0.28826   0.00000  Uiso   1.00
C727   C     0.50720   0.69170   0.28820   0.00000  Uiso   1.00
C728   C     0.49317   0.97502   0.21173   0.00000  Uiso   1.00
C729   C     0.50111   0.83318   0.16451   0.00000  Uiso   1.00
C730   C     0.49803   0.83332   0.33545   0.00000  Uiso   1.00
C731   C     0.53522   0.84357   0.40594   0.00000  Uiso   1.00
C732   C     0.46339   0.84151   0.09417   0.00000  Uiso   1.00
C733   C     0.49812   0.83347   0.38382   0.00000  Uiso   1.00
C734   C     0.50077   0.83338   0.11613   0.00000  Uiso   1.00
C735   C     0.46181   0.82444   0.40781   0.00000  Uiso   1.00
C736   C     0.53762   0.82859   0.09219   0.00000  Uiso   1.00
C737   C     0.46122   0.83596   0.45360   0.00000  Uiso   1.00
C738   C     0.53757   0.84001   0.04651   0.00000  Uiso   1.00
C739   C     0.49896   0.84103   0.47657   0.00000  Uiso   1.00
C740   C     0.49964   0.84120   0.02353   0.00000  Uiso   1.00
C741   C     0.53608   0.84448   0.45280   0.00000  Uiso   1.00
C742   C     0.46243   0.84173   0.04735   0.00000  Uiso   1.00
C743   C     0.42434   0.84221   0.47751   0.00000  Uiso   1.00
C744   C     0.57384   0.85029   0.02278   0.00000  Uiso   1.00
Cu745  Cu    0.50000   0.88022   0.25000   0.00000  Uiso   1.00
Cu746  Cu    0.50000   0.78645   0.25000   0.00000  Uiso   1.00
H747   H     0.39652   0.84878   0.04089   0.00000  Uiso   1.00
H748   H     0.60134   0.85758   0.45928   0.00000  Uiso   1.00
H749   H     0.48711   0.70885   0.18093   0.00000  Uiso   1.00
H750   H     0.51205   0.95797   0.31920   0.00000  Uiso   1.00
H751   H     0.51339   0.71001   0.31902   0.00000  Uiso   1.00
H752   H     0.48790   0.95678   0.18076   0.00000  Uiso   1.00
N753   N     0.50000   0.95069   0.25000   0.00000  Uiso   1.00
N754   N     0.50000   0.71598   0.25000   0.00000  Uiso   1.00
O755   O     0.43988   0.87291   0.25000   0.00000  Uiso   1.00
O756   O     0.56012   0.79375   0.25001   0.00000  Uiso   1.00
O757   O     0.56012   0.87291   0.25001   0.00000  Uiso   1.00
O758   O     0.43988   0.79375   0.25000   0.00000  Uiso   1.00
O759   O     0.49999   0.87293   0.18513   0.00000  Uiso   1.00
O760   O     0.50001   0.79373   0.31487   0.00000  Uiso   1.00
O761   O     0.50001   0.87293   0.31487   0.00000  Uiso   1.00
O762   O     0.49999   0.79373   0.18513   0.00000  Uiso   1.00
N763   N     0.57200   0.84698   0.38061   0.00000  Uiso   1.00
H764   H     0.59523   0.82557   0.39129   0.00000  Uiso   1.00
C765   C     0.58577   0.89390   0.37131   0.00000  Uiso   1.00
H766   H     0.59476   0.91243   0.40244   0.00000  Uiso   1.00
H767   H     0.56133   0.91382   0.35457   0.00000  Uiso   1.00
H768   H     0.61265   0.89246   0.34889   0.00000  Uiso   1.00
N769   N     0.42674   0.84523   0.11965   0.00000  Uiso   1.00
H770   H     0.40340   0.82335   0.10931   0.00000  Uiso   1.00
C771   C     0.41305   0.89233   0.12822   0.00000  Uiso   1.00
H772   H     0.40344   0.90930   0.09682   0.00000  Uiso   1.00
H773   H     0.43779   0.91327   0.14396   0.00000  Uiso   1.00
H774   H     0.38659   0.89153   0.15129   0.00000  Uiso   1.00
S775   S     0.42146   0.78914   0.38416   0.00000  Uiso   1.00
O776   O     0.40007   0.76266   0.42032   0.00000  Uiso   1.00
O777   O     0.39083   0.81935   0.36095   0.00000  Uiso   1.00
O778   O     0.43924   0.74945   0.34778   0.00000  Uiso   1.00
H779   H     0.41453   0.73560   0.33363   0.00000  Uiso   1.00
S780   S     0.58081   0.80049   0.11713   0.00000  Uiso   1.00
O781   O     0.60764   0.77897   0.08208   0.00000  Uiso   1.00
O782   O     0.60528   0.83546   0.14365   0.00000  Uiso   1.00
O783   O     0.56565   0.75738   0.15087   0.00000  Uiso   1.00
H784   H     0.59104   0.74044   0.15848   0.00000  Uiso   1.00
N785   N     0.38645   0.85028   0.45535   0.00000  Uiso   1.00
H786   H     0.36115   0.83805   0.47216   0.00000  Uiso   1.00
C787   C     0.38111   0.89768   0.44045   0.00000  Uiso   1.00
H788   H     0.35271   0.89996   0.42016   0.00000  Uiso   1.00
H789   H     0.40737   0.90870   0.41963   0.00000  Uiso   1.00
H790   H     0.37848   0.92167   0.46952   0.00000  Uiso   1.00
N791   N     0.61059   0.86422   0.04505   0.00000  Uiso   1.00
H792   H     0.63698   0.85839   0.02714   0.00000  Uiso   1.00
C793   C     0.60952   0.91064   0.06424   0.00000  Uiso   1.00
H794   H     0.63838   0.91746   0.08290   0.00000  Uiso   1.00
H795   H     0.58357   0.91410   0.08779   0.00000  Uiso   1.00
H796   H     0.60646   0.93701   0.03757   0.00000  Uiso   1.00
S797   S     0.37381   0.74515   0.20958   0.00000  Uiso   1.00
O798   O     0.39546   0.71202   0.23992   0.00000  Uiso   1.00
O799   O     0.33965   0.72003   0.18569   0.00000  Uiso   1.00
O800   O     0.40719   0.76450   0.17159   0.00000  Uiso   1.00
H801   H     0.41538   0.73639   0.15453   0.00000  Uiso   1.00
S802   S     0.62613   0.93080   0.23255   0.00000  Uiso   1.00
O803   O     0.60255   0.95294   0.26991   0.00000  Uiso   1.00
O804   O     0.65977   0.96317   0.21841   0.00000  Uiso   1.00
O805   O     0.59498   0.92242   0.18847   0.00000  Uiso   1.00
H806   H     0.58319   0.95348   0.18235   0.00000  Uiso   1.00
S807   S     0.62605   0.73916   0.27669   0.00000  Uiso   1.00
O808   O     0.60176   0.71290   0.24206   0.00000  Uiso   1.00
O809   O     0.66005   0.70861   0.29302   0.00000  Uiso   1.00
O810   O     0.59549   0.75176   0.31999   0.00000  Uiso   1.00
H811   H     0.61447   0.76045   0.34448   0.00000  Uiso   1.00
S812   S     0.37755   0.92214   0.29324   0.00000  Uiso   1.00
O813   O     0.39855   0.95466   0.26169   0.00000  Uiso   1.00
O814   O     0.34532   0.94825   0.31862   0.00000  Uiso   1.00
O815   O     0.41246   0.90279   0.32977   0.00000  Uiso   1.00
H816   H     0.42756   0.93101   0.33985   0.00000  Uiso   1.00
C817   C     0.75414   0.83331   0.25030   0.00000  Uiso   1.00
C818   C     0.91269   0.83353   0.25069   0.00000  Uiso   1.00
C819   C     0.75866   0.84449   0.02384   0.00000  Uiso   1.00
C820   C     0.90621   0.85101   0.47639   0.00000  Uiso   1.00
C821   C     0.68717   0.79248   0.24146   0.00000  Uiso   1.00
C822   C     0.98004   0.87668   0.25121   0.00000  Uiso   1.00
C823   C     0.97942   0.79146   0.25331   0.00000  Uiso   1.00
C824   C     0.68826   0.87493   0.26227   0.00000  Uiso   1.00
C825   C     0.95756   0.83402   0.25185   0.00000  Uiso   1.00
C826   C     0.70961   0.83354   0.25129   0.00000  Uiso   1.00
C827   C     0.82628   0.69102   0.21177   0.00000  Uiso   1.00
C828   C     0.84014   0.97570   0.28826   0.00000  Uiso   1.00
C829   C     0.84054   0.69170   0.28820   0.00000  Uiso   1.00
C830   C     0.82650   0.97502   0.21173   0.00000  Uiso   1.00
C831   C     0.83445   0.83318   0.16451   0.00000  Uiso   1.00
C832   C     0.83136   0.83332   0.33545   0.00000  Uiso   1.00
C833   C     0.86855   0.84357   0.40594   0.00000  Uiso   1.00
C834   C     0.79672   0.84151   0.09417   0.00000  Uiso   1.00
C835   C     0.83146   0.83347   0.38382   0.00000  Uiso   1.00
C836   C     0.83410   0.83338   0.11613   0.00000  Uiso   1.00
C837   C     0.79514   0.82444   0.40781   0.00000  Uiso   1.00
C838   C     0.87095   0.82859   0.09219   0.00000  Uiso   1.00
C839   C     0.79455   0.83596   0.45360   0.00000  Uiso   1.00
C840   C     0.87090   0.84001   0.04651   0.00000  Uiso   1.00
C841   C     0.83230   0.84103   0.47657   0.00000  Uiso   1.00
C842   C     0.83297   0.84120   0.02353   0.00000  Uiso   1.00
C843   C     0.86941   0.84448   0.45280   0.00000  Uiso   1.00
C844   C     0.79576   0.84173   0.04735   0.00000  Uiso   1.00
C845   C     0.75767   0.84221   0.47751   0.00000  Uiso   1.00
C846   C     0.90717   0.85029   0.02278   0.00000  Uiso   1.00
Cu847  Cu    0.83333   0.88022   0.25000   0.00000  Uiso   1.00
Cu848  Cu    0.83333   0.78645   0.25000   0.00000  Uiso   1.00
H849   H     0.72985   0.84878   0.04089   0.00000  Uiso   1.00
H850   H     0.93467   0.85758   0.45928   0.00000  Uiso   1.00
H851   H     0.82045   0.70885   0.18093   0.00000  Uiso   1.00
H852   H     0.84538   0.95797   0.31920   0.00000  Uiso   1.00
H853   H     0.84673   0.71001   0.31902   0.00000  Uiso   1.00
H854   H     0.82123   0.95678   0.18076   0.00000  Uiso   1.00
N855   N     0.83333   0.95069   0.25000   0.00000  Uiso   1.00
N856   N     0.83333   0.71598   0.25000   0.00000  Uiso   1.00
O857   O     0.77321   0.87291   0.25000   0.00000  Uiso   1.00
O858   O     0.89345   0.79375   0.25001   0.00000  Uiso   1.00
O859   O     0.89345   0.87291   0.25001   0.00000  Uiso   1.00
O860   O     0.77321   0.79375   0.25000   0.00000  Uiso   1.00
O861   O     0.83332   0.87293   0.18513   0.00000  Uiso   1.00
O862   O     0.83334   0.79373   0.31487   0.00000  Uiso   1.00
O863   O     0.83334   0.87293   0.31487   0.00000  Uiso   1.00
O864   O     0.83332   0.79373   0.18513   0.00000  Uiso   1.00
N865   N     0.90533   0.84698   0.38061   0.00000  Uiso   1.00
H866   H     0.92856   0.82557   0.39129   0.00000  Uiso   1.00
C867   C     0.91910   0.89390   0.37131   0.00000  Uiso   1.00
H868   H     0.92810   0.91243   0.40244   0.00000  Uiso   1.00
H869   H     0.89466   0.91382   0.35457   0.00000  Uiso   1.00
H870   H     0.94598   0.89246   0.34889   0.00000  Uiso   1.00
N871   N     0.76007   0.84523   0.11965   0.00000  Uiso   1.00
H872   H     0.73673   0.82335   0.10931   0.00000  Uiso   1.00
C873   C     0.74639   0.89233   0.12822   0.00000  Uiso   1.00
H874   H     0.73677   0.90930   0.09682   0.00000  Uiso   1.00
H875   H     0.77112   0.91327   0.14396   0.00000  Uiso   1.00
H876   H     0.71992   0.89153   0.15129   0.00000  Uiso   1.00
S877   S     0.75479   0.78914   0.38416   0.00000  Uiso   1.00
O878   O     0.73341   0.76266   0.42032   0.00000  Uiso   1.00
O879   O     0.72416   0.81935   0.36095   0.00000  Uiso   1.00
O880   O     0.77258   0.74945   0.34778   0.00000  Uiso   1.00
H881   H     0.74787   0.73560   0.33363   0.00000  Uiso   1.00
S882   S     0.91414   0.80049   0.11713   0.00000  Uiso   1.00
O883   O     0.94097   0.77897   0.08208   0.00000  Uiso   1.00
O884   O     0.93861   0.83546   0.14365   0.00000  Uiso   1.00
O885   O     0.89898   0.75738   0.15087   0.00000  Uiso   1.00
H886   H     0.92437   0.74044   0.15848   0.00000  Uiso   1.00
N887   N     0.71978   0.85028   0.45535   0.00000  Uiso   1.00
H888   H     0.69449   0.83805   0.47216   0.00000  Uiso   1.00
C889   C     0.71444   0.89768   0.44045   0.00000  Uiso   1.00
H890   H     0.68605   0.89996   0.42016   0.00000  Uiso   1.00
H891   H     0.74070   0.90870   0.41963   0.00000  Uiso   1.00
H892   H     0.71181   0.92167   0.46952   0.00000  Uiso   1.00
N893   N     0.94393   0.86422   0.04505   0.00000  Uiso   1.00
H894   H     0.97031   0.85839   0.02714   0.00000  Uiso   1.00
C895   C     0.94285   0.91064   0.06424   0.00000  Uiso   1.00
H896   H     0.97171   0.91746   0.08290   0.00000  Uiso   1.00
H897   H     0.91691   0.91410   0.08779   0.00000  Uiso   1.00
H898   H     0.93980   0.93701   0.03757   0.00000  Uiso   1.00
S899   S     0.70714   0.74515   0.20958   0.00000  Uiso   1.00
O900   O     0.72879   0.71202   0.23992   0.00000  Uiso   1.00
O901   O     0.67299   0.72003   0.18569   0.00000  Uiso   1.00
O902   O     0.74052   0.76450   0.17159   0.00000  Uiso   1.00
H903   H     0.74872   0.73639   0.15453   0.00000  Uiso   1.00
S904   S     0.95947   0.93080   0.23255   0.00000  Uiso   1.00
O905   O     0.93589   0.95294   0.26991   0.00000  Uiso   1.00
O906   O     0.99311   0.96317   0.21841   0.00000  Uiso   1.00
O907   O     0.92832   0.92242   0.18847   0.00000  Uiso   1.00
H908   H     0.91652   0.95348   0.18235   0.00000  Uiso   1.00
S909   S     0.95938   0.73916   0.27669   0.00000  Uiso   1.00
O910   O     0.93509   0.71290   0.24206   0.00000  Uiso   1.00
O911   O     0.99339   0.70861   0.29302   0.00000  Uiso   1.00
O912   O     0.92883   0.75176   0.31999   0.00000  Uiso   1.00
H913   H     0.94780   0.76045   0.34448   0.00000  Uiso   1.00
S914   S     0.71089   0.92214   0.29324   0.00000  Uiso   1.00
O915   O     0.73188   0.95466   0.26169   0.00000  Uiso   1.00
O916   O     0.67866   0.94825   0.31862   0.00000  Uiso   1.00
O917   O     0.74579   0.90279   0.32977   0.00000  Uiso   1.00
H918   H     0.76090   0.93101   0.33985   0.00000  Uiso   1.00
C919   C     0.08748   0.16665   0.75030   0.00000  Uiso   1.00
C920   C     0.24603   0.16687   0.75069   0.00000  Uiso   1.00
C921   C     0.09200   0.17782   0.52384   0.00000  Uiso   1.00
C922   C     0.23954   0.18435   0.97639   0.00000  Uiso   1.00
C923   C     0.02050   0.12581   0.74146   0.00000  Uiso   1.00
C924   C     0.31338   0.21001   0.75121   0.00000  Uiso   1.00
C925   C     0.31275   0.12479   0.75331   0.00000  Uiso   1.00
C926   C     0.02160   0.20827   0.76227   0.00000  Uiso   1.00
C927   C     0.29089   0.16735   0.75185   0.00000  Uiso   1.00
C928   C     0.04294   0.16688   0.75129   0.00000  Uiso   1.00
C929   C     0.15961   0.02435   0.71177   0.00000  Uiso   1.00
C930   C     0.17347   0.30903   0.78826   0.00000  Uiso   1.00
C931   C     0.17387   0.02503   0.78820   0.00000  Uiso   1.00
C932   C     0.15984   0.30835   0.71173   0.00000  Uiso   1.00
C933   C     0.16778   0.16651   0.66451   0.00000  Uiso   1.00
C934   C     0.16469   0.16666   0.83545   0.00000  Uiso   1.00
C935   C     0.20188   0.17691   0.90594   0.00000  Uiso   1.00
C936   C     0.13005   0.17484   0.59417   0.00000  Uiso   1.00
C937   C     0.16479   0.16680   0.88382   0.00000  Uiso   1.00
C938   C     0.16744   0.16671   0.61613   0.00000  Uiso   1.00
C939   C     0.12848   0.15778   0.90781   0.00000  Uiso   1.00
C940   C     0.20429   0.16192   0.59219   0.00000  Uiso   1.00
C941   C     0.12788   0.16930   0.95360   0.00000  Uiso   1.00
C942   C     0.20423   0.17334   0.54651   0.00000  Uiso   1.00
C943   C     0.16563   0.17436   0.97657   0.00000  Uiso   1.00
C944   C     0.16631   0.17453   0.52353   0.00000  Uiso   1.00
C945   C     0.20274   0.17781   0.95280   0.00000  Uiso   1.00
C946   C     0.12910   0.17506   0.54735   0.00000  Uiso   1.00
C947   C     0.09100   0.17555   0.97751   0.00000  Uiso   1.00
C948   C     0.24051   0.18362   0.52278   0.00000  Uiso   1.00
Cu949  Cu    0.16667   0.21355   0.75000   0.00000  Uiso   1.00
Cu950  Cu    0.16667   0.11978   0.75000   0.00000  Uiso   1.00
H951   H     0.06318   0.18211   0.54089   0.00000  Uiso   1.00
H952   H     0.26800   0.19091   0.95928   0.00000  Uiso   1.00
H953   H     0.15378   0.04219   0.68093   0.00000  Uiso   1.00
H954   H     0.17872   0.29131   0.81920   0.00000  Uiso   1.00
H955   H     0.18006   0.04335   0.81902   0.00000  Uiso   1.00
H956   H     0.15457   0.29012   0.68076   0.00000  Uiso   1.00
N957   N     0.16667   0.28402   0.75000   0.00000  Uiso   1.00
N958   N     0.16667   0.04931   0.75000   0.00000  Uiso   1.00
O959   O     0.10655   0.20625   0.75000   0.00000  Uiso   1.00
O960   O     0.22679   0.12709   0.75001   0.00000  Uiso   1.00
O961   O     0.22679   0.20625   0.75001   0.00000  Uiso   1.00
O962   O     0.10655   0.12709   0.75000   0.00000  Uiso   1.00
O963   O     0.16666   0.20627   0.68513   0.00000  Uiso   1.00
O964   O     0.16668   0.12707   0.81487   0.00000  Uiso   1.00
O965   O     0.16668   0.20627   0.81487   0.00000  Uiso   1.00
O966   O     0.16666   0.12707   0.68513   0.00000  Uiso   1.00
N967   N     0.23867   0.18031   0.88061   0.00000  Uiso   1.00
H968   H     0.26190   0.15891   0.89129   0.00000  Uiso   1.00
C969   C     0.25243   0.22724   0.87131   0.00000  Uiso   1.00
H970   H     0.26143   0.24576   0.90244   0.00000  Uiso   1.00
H971   H     0.22799   0.24715   0.85457   0.00000  Uiso   1.00
H972   H     0.27931   0.22580   0.84889   0.00000  Uiso   1.00
N973   N     0.09341   0.17857   0.61965   0.00000  Uiso   1.00
H974   H     0.07007   0.15669   0.60931   0.00000  Uiso   1.00
C975   C     0.07972   0.22566   0.62822   0.00000  Uiso   1.00
H976   H     0.07011   0.24263   0.59682   0.00000  Uiso   1.00
H977   H     0.10446   0.24661   0.64396   0.00000  Uiso   1.00
H978   H     0.05326   0.22486   0.65129   0.00000  Uiso   1.00
S979   S     0.08813   0.12247   0.88416   0.00000  Uiso   1.00
O980   O     0.06674   0.09599   0.92032   0.00000  Uiso   1.00
O981   O     0.05750   0.15268   0.86095   0.00000  Uiso   1.00
O982   O     0.10591   0.08279   0.84778   0.00000  Uiso   1.00
H983   H     0.08120   0.06893   0.83363   0.00000  Uiso   1.00
S984   S     0.24747   0.13382   0.61713   0.00000  Uiso   1.00
O985   O     0.27430   0.11230   0.58208   0.00000  Uiso   1.00
O986   O     0.27194   0.16879   0.64365   0.00000  Uiso   1.00
O987   O     0.23232   0.09071   0.65087   0.00000  Uiso   1.00
H988   H     0.25770   0.07377   0.65848   0.00000  Uiso   1.00
N989   N     0.05311   0.18361   0.95535   0.00000  Uiso   1.00
H990   H     0.02782   0.17138   0.97216   0.00000  Uiso   1.00
C991   C     0.04777   0.23102   0.94045   0.00000  Uiso   1.00
H992   H     0.01938   0.23329   0.92016   0.00000  Uiso   1.00
H993   H     0.07403   0.24203   0.91963   0.00000  Uiso   1.00
H994   H     0.04515   0.25500   0.96952   0.00000  Uiso   1.00
N995   N     0.27726   0.19755   0.54505   0.00000  Uiso   1.00
H996   H     0.30364   0.19172   0.52714   0.00000  Uiso   1.00
C997   C     0.27619   0.24397   0.56424   0.00000  Uiso   1.00
H998   H     0.30504   0.25079   0.58290   0.00000  Uiso   1.00
H999   H     0.25024   0.24743   0.58779   0.00000  Uiso   1.00
H1000  H     0.27313   0.27034   0.53757   0.00000  Uiso   1.00
S1001  S     0.04048   0.07848   0.70958   0.00000  Uiso   1.00
O1002  O     0.06212   0.04535   0.73992   0.00000  Uiso   1.00
O1003  O     0.00632   0.05336   0.68569   0.00000  Uiso   1.00
O1004  O     0.07386   0.09784   0.67159   0.00000  Uiso   1.00
H1005  H     0.08205   0.06972   0.65453   0.00000  Uiso   1.00
S1006  S     0.29280   0.26413   0.73255   0.00000  Uiso   1.00
O1007  O     0.26922   0.28627   0.76991   0.00000  Uiso   1.00
O1008  O     0.32644   0.29650   0.71841   0.00000  Uiso   1.00
O1009  O     0.26165   0.25575   0.68847   0.00000  Uiso   1.00
H1010  H     0.24986   0.28682   0.68235   0.00000  Uiso   1.00
S1011  S     0.29272   0.07249   0.77669   0.00000  Uiso   1.00
O1012  O     0.26842   0.04624   0.74206   0.00000  Uiso   1.00
O1013  O     0.32672   0.04194   0.79302   0.00000  Uiso   1.00
O1014  O     0.26216   0.08510   0.81999   0.00000  Uiso   1.00
H1015  H     0.28113   0.09379   0.84448   0.00000  Uiso   1.00
S1016  S     0.04422   0.25548   0.79324   0.00000  Uiso   1.00
O1017  O     0.06522   0.28799   0.76169   0.00000  Uiso   1.00
O1018  O     0.01199   0.28158   0.81862   0.00000  Uiso   1.00
O1019  O     0.07913   0.23612   0.82977   0.00000  Uiso   1.00
H1020  H     0.09423   0.26435   0.83985   0.00000  Uiso   1.00
C1021  C     0.42081   0.16665   0.75030   0.00000  Uiso   1.00
C1022  C     0.57936   0.16687   0.75069   0.00000  Uiso   1.00
C1023  C     0.42533   0.17782   0.52384   0.00000  Uiso   1.00
C1024  C     0.57288   0.18435   0.97639   0.00000  Uiso   1.00
C1025  C     0.35384   0.12581   0.74146   0.00000  Uiso   1.00
C1026  C     0.64671   0.21001   0.75121   0.00000  Uiso   1.00
C1027  C     0.64608   0.12479   0.75331   0.00000  Uiso   1.00
C1028  C     0.35493   0.20827   0.76227   0.00000  Uiso   1.00
C1029  C     0.62422   0.16735   0.75185   0.00000  Uiso   1.00
C1030  C     0.37628   0.16688   0.75129   0.00000  Uiso   1.00
C1031  C     0.49295   0.02435   0.71177   0.00000  Uiso   1.00
C1032  C     0.50681   0.30903   0.78826   0.00000  Uiso   1.00
C1033  C     0.50720   0.02503   0.78820   0.00000  Uiso   1.00
C1034  C     0.49317   0.30835   0.71173   0.00000  Uiso   1.00
C1035  C     0.50111   0.16651   0.66451   0.00000  Uiso   1.00
C1036  C     0.49803   0.16666   0.83545   0.00000  Uiso   1.00
C1037  C     0.53522   0.17691   0.90594   0.00000  Uiso   1.00
C1038  C     0.46339   0.17484   0.59417   0.00000  Uiso   1.00
C1039  C     0.49812   0.16680   0.88382   0.00000  Uiso   1.00
C1040  C     0.50077   0.16671   0.61613   0.00000  Uiso   1.00
C1041  C     0.46181   0.15778   0.90781   0.00000  Uiso   1.00
C1042  C     0.53762   0.16192   0.59219   0.00000  Uiso   1.00
C1043  C     0.46122   0.16930   0.95360   0.00000  Uiso   1.00
C1044  C     0.53757   0.17334   0.54651   0.00000  Uiso   1.00
C1045  C     0.49896   0.17436   0.97657   0.00000  Uiso   1.00
C1046  C     0.49964   0.17453   0.52353   0.00000  Uiso   1.00
C1047  C     0.53608   0.17781   0.95280   0.00000  Uiso   1.00
C1048  C     0.46243   0.17506   0.54735   0.00000  Uiso   1.00
C1049  C     0.42434   0.17555   0.97751   0.00000  Uiso   1.00
C1050  C     0.57384   0.18362   0.52278   0.00000  Uiso   1.00
Cu1051 Cu    0.50000   0.21355   0.75000   0.00000  Uiso   1.00
Cu1052 Cu    0.50000   0.11978   0.75000   0.00000  Uiso   1.00
H1053  H     0.39652   0.18211   0.54089   0.00000  Uiso   1.00
H1054  H     0.60134   0.19091   0.95928   0.00000  Uiso   1.00
H1055  H     0.48711   0.04219   0.68093   0.00000  Uiso   1.00
H1056  H     0.51205   0.29131   0.81920   0.00000  Uiso   1.00
H1057  H     0.51339   0.04335   0.81902   0.00000  Uiso   1.00
H1058  H     0.48790   0.29012   0.68076   0.00000  Uiso   1.00
N1059  N     0.50000   0.28402   0.75000   0.00000  Uiso   1.00
N1060  N     0.50000   0.04931   0.75000   0.00000  Uiso   1.00
O1061  O     0.43988   0.20625   0.75000   0.00000  Uiso   1.00
O1062  O     0.56012   0.12709   0.75001   0.00000  Uiso   1.00
O1063  O     0.56012   0.20625   0.75001   0.00000  Uiso   1.00
O1064  O     0.43988   0.12709   0.75000   0.00000  Uiso   1.00
O1065  O     0.49999   0.20627   0.68513   0.00000  Uiso   1.00
O1066  O     0.50001   0.12707   0.81487   0.00000  Uiso   1.00
O1067  O     0.50001   0.20627   0.81487   0.00000  Uiso   1.00
O1068  O     0.49999   0.12707   0.68513   0.00000  Uiso   1.00
N1069  N     0.57200   0.18031   0.88061   0.00000  Uiso   1.00
H1070  H     0.59523   0.15891   0.89129   0.00000  Uiso   1.00
C1071  C     0.58577   0.22724   0.87131   0.00000  Uiso   1.00
H1072  H     0.59476   0.24576   0.90244   0.00000  Uiso   1.00
H1073  H     0.56133   0.24715   0.85457   0.00000  Uiso   1.00
H1074  H     0.61265   0.22580   0.84889   0.00000  Uiso   1.00
N1075  N     0.42674   0.17857   0.61965   0.00000  Uiso   1.00
H1076  H     0.40340   0.15669   0.60931   0.00000  Uiso   1.00
C1077  C     0.41305   0.22566   0.62822   0.00000  Uiso   1.00
H1078  H     0.40344   0.24263   0.59682   0.00000  Uiso   1.00
H1079  H     0.43779   0.24661   0.64396   0.00000  Uiso   1.00
H1080  H     0.38659   0.22486   0.65129   0.00000  Uiso   1.00
S1081  S     0.42146   0.12247   0.88416   0.00000  Uiso   1.00
O1082  O     0.40007   0.09599   0.92032   0.00000  Uiso   1.00
O1083  O     0.39083   0.15268   0.86095   0.00000  Uiso   1.00
O1084  O     0.43924   0.08279   0.84778   0.00000  Uiso   1.00
H1085  H     0.41453   0.06893   0.83363   0.00000  Uiso   1.00
S1086  S     0.58081   0.13382   0.61713   0.00000  Uiso   1.00
O1087  O     0.60764   0.11230   0.58208   0.00000  Uiso   1.00
O1088  O     0.60528   0.16879   0.64365   0.00000  Uiso   1.00
O1089  O     0.56565   0.09071   0.65087   0.00000  Uiso   1.00
H1090  H     0.59104   0.07377   0.65848   0.00000  Uiso   1.00
N1091  N     0.38645   0.18361   0.95535   0.00000  Uiso   1.00
H1092  H     0.36115   0.17138   0.97216   0.00000  Uiso   1.00
C1093  C     0.38111   0.23102   0.94045   0.00000  Uiso   1.00
H1094  H     0.35271   0.23329   0.92016   0.00000  Uiso   1.00
H1095  H     0.40737   0.24203   0.91963   0.00000  Uiso   1.00
H1096  H     0.37848   0.25500   0.96952   0.00000  Uiso   1.00
N1097  N     0.61059   0.19755   0.54505   0.00000  Uiso   1.00
H1098  H     0.63698   0.19172   0.52714   0.00000  Uiso   1.00
C1099  C     0.60952   0.24397   0.56424   0.00000  Uiso   1.00
H1100  H     0.63838   0.25079   0.58290   0.00000  Uiso   1.00
H1101  H     0.58357   0.24743   0.58779   0.00000  Uiso   1.00
H1102  H     0.60646   0.27034   0.53757   0.00000  Uiso   1.00
S1103  S     0.37381   0.07848   0.70958   0.00000  Uiso   1.00
O1104  O     0.39546   0.04535   0.73992   0.00000  Uiso   1.00
O1105  O     0.33965   0.05336   0.68569   0.00000  Uiso   1.00
O1106  O     0.40719   0.09784   0.67159   0.00000  Uiso   1.00
H1107  H     0.41538   0.06972   0.65453   0.00000  Uiso   1.00
S1108  S     0.62613   0.26413   0.73255   0.00000  Uiso   1.00
O1109  O     0.60255   0.28627   0.76991   0.00000  Uiso   1.00
O1110  O     0.65977   0.29650   0.71841   0.00000  Uiso   1.00
O1111  O     0.59498   0.25575   0.68847   0.00000  Uiso   1.00
H1112  H     0.58319   0.28682   0.68235   0.00000  Uiso   1.00
S1113  S     0.62605   0.07249   0.77669   0.00000  Uiso   1.00
O1114  O     0.60176   0.04624   0.74206   0.00000  Uiso   1.00
O1115  O     0.66005   0.04194   0.79302   0.00000  Uiso   1.00
O1116  O     0.59549   0.08510   0.81999   0.00000  Uiso   1.00
H1117  H     0.61447   0.09379   0.84448   0.00000  Uiso   1.00
S1118  S     0.37755   0.25548   0.79324   0.00000  Uiso   1.00
O1119  O     0.39855   0.28799   0.76169   0.00000  Uiso   1.00
O1120  O     0.34532   0.28158   0.81862   0.00000  Uiso   1.00
O1121  O     0.41246   0.23612   0.82977   0.00000  Uiso   1.00
H1122  H     0.42756   0.26435   0.83985   0.00000  Uiso   1.00
C1123  C     0.75414   0.16665   0.75030   0.00000  Uiso   1.00
C1124  C     0.91269   0.16687   0.75069   0.00000  Uiso   1.00
C1125  C     0.75866   0.17782   0.52384   0.00000  Uiso   1.00
C1126  C     0.90621   0.18435   0.97639   0.00000  Uiso   1.00
C1127  C     0.68717   0.12581   0.74146   0.00000  Uiso   1.00
C1128  C     0.98004   0.21001   0.75121   0.00000  Uiso   1.00
C1129  C     0.97942   0.12479   0.75331   0.00000  Uiso   1.00
C1130  C     0.68826   0.20827   0.76227   0.00000  Uiso   1.00
C1131  C     0.95756   0.16735   0.75185   0.00000  Uiso   1.00
C1132  C     0.70961   0.16688   0.75129   0.00000  Uiso   1.00
C1133  C     0.82628   0.02435   0.71177   0.00000  Uiso   1.00
C1134  C     0.84014   0.30903   0.78826   0.00000  Uiso   1.00
C1135  C     0.84054   0.02503   0.78820   0.00000  Uiso   1.00
C1136  C     0.82650   0.30835   0.71173   0.00000  Uiso   1.00
C1137  C     0.83445   0.16651   0.66451   0.00000  Uiso   1.00
C1138  C     0.83136   0.16666   0.83545   0.00000  Uiso   1.00
C1139  C     0.86855   0.17691   0.90594   0.00000  Uiso   1.00
C1140  C     0.79672   0.17484   0.59417   0.00000  Uiso   1.00
C1141  C     0.83146   0.16680   0.88382   0.00000  Uiso   1.00
C1142  C     0.83410   0.16671   0.61613   0.00000  Uiso   1.00
C1143  C     0.79514   0.15778   0.90781   0.00000  Uiso   1.00
C1144  C     0.87095   0.16192   0.59219   0.00000  Uiso   1.00
C1145  C     0.79455   0.16930   0.95360   0.00000  Uiso   1.00
C1146  C     0.87090   0.17334   0.54651   0.00000  Uiso   1.00
C1147  C     0.83230   0.17436   0.97657   0.00000  Uiso   1.00
C1148  C     0.83297   0.17453   0.52353   0.00000  Uiso   1.00
C1149  C     0.86941   0.17781   0.95280   0.00000  Uiso   1.00
C1150  C     0.79576   0.17506   0.54735   0.00000  Uiso   1.00
C1151  C     0.75767   0.17555   0.97751   0.00000  Uiso   1.00
C1152  C     0.90717   0.18362   0.52278   0.00000  Uiso   1.00
Cu1153 Cu    0.83333   0.21355   0.75000   0.00000  Uiso   1.00
Cu1154 Cu    0.83333   0.11978   0.75000   0.00000  Uiso   1.00
H1155  H     0.72985   0.18211   0.54089   0.00000  Uiso   1.00
H1156  H     0.93467   0.19091   0.95928   0.00000  Uiso   1.00
H1157  H     0.82045   0.04219   0.68093   0.00000  Uiso   1.00
H1158  H     0.84538   0.29131   0.81920   0.00000  Uiso   1.00
H1159  H     0.84673   0.04335   0.81902   0.00000  Uiso   1.00
H1160  H     0.82123   0.29012   0.68076   0.00000  Uiso   1.00
N1161  N     0.83333   0.28402   0.75000   0.00000  Uiso   1.00
N1162  N     0.83333   0.04931   0.75000   0.00000  Uiso   1.00
O1163  O     0.77321   0.20625   0.75000   0.00000  Uiso   1.00
O1164  O     0.89345   0.12709   0.75001   0.00000  Uiso   1.00
O1165  O     0.89345   0.20625   0.75001   0.00000  Uiso   1.00
O1166  O     0.77321   0.12709   0.75000   0.00000  Uiso   1.00
O1167  O     0.83332   0.20627   0.68513   0.00000  Uiso   1.00
O1168  O     0.83334   0.12707   0.81487   0.00000  Uiso   1.00
O1169  O     0.83334   0.20627   0.81487   0.00000  Uiso   1.00
O1170  O     0.83332   0.12707   0.68513   0.00000  Uiso   1.00
N1171  N     0.90533   0.18031   0.88061   0.00000  Uiso   1.00
H1172  H     0.92856   0.15891   0.89129   0.00000  Uiso   1.00
C1173  C     0.91910   0.22724   0.87131   0.00000  Uiso   1.00
H1174  H     0.92810   0.24576   0.90244   0.00000  Uiso   1.00
H1175  H     0.89466   0.24715   0.85457   0.00000  Uiso   1.00
H1176  H     0.94598   0.22580   0.84889   0.00000  Uiso   1.00
N1177  N     0.76007   0.17857   0.61965   0.00000  Uiso   1.00
H1178  H     0.73673   0.15669   0.60931   0.00000  Uiso   1.00
C1179  C     0.74639   0.22566   0.62822   0.00000  Uiso   1.00
H1180  H     0.73677   0.24263   0.59682   0.00000  Uiso   1.00
H1181  H     0.77112   0.24661   0.64396   0.00000  Uiso   1.00
H1182  H     0.71992   0.22486   0.65129   0.00000  Uiso   1.00
S1183  S     0.75479   0.12247   0.88416   0.00000  Uiso   1.00
O1184  O     0.73341   0.09599   0.92032   0.00000  Uiso   1.00
O1185  O     0.72416   0.15268   0.86095   0.00000  Uiso   1.00
O1186  O     0.77258   0.08279   0.84778   0.00000  Uiso   1.00
H1187  H     0.74787   0.06893   0.83363   0.00000  Uiso   1.00
S1188  S     0.91414   0.13382   0.61713   0.00000  Uiso   1.00
O1189  O     0.94097   0.11230   0.58208   0.00000  Uiso   1.00
O1190  O     0.93861   0.16879   0.64365   0.00000  Uiso   1.00
O1191  O     0.89898   0.09071   0.65087   0.00000  Uiso   1.00
H1192  H     0.92437   0.07377   0.65848   0.00000  Uiso   1.00
N1193  N     0.71978   0.18361   0.95535   0.00000  Uiso   1.00
H1194  H     0.69449   0.17138   0.97216   0.00000  Uiso   1.00
C1195  C     0.71444   0.23102   0.94045   0.00000  Uiso   1.00
H1196  H     0.68605   0.23329   0.92016   0.00000  Uiso   1.00
H1197  H     0.74070   0.24203   0.91963   0.00000  Uiso   1.00
H1198  H     0.71181   0.25500   0.96952   0.00000  Uiso   1.00
N1199  N     0.94393   0.19755   0.54505   0.00000  Uiso   1.00
H1200  H     0.97031   0.19172   0.52714   0.00000  Uiso   1.00
C1201  C     0.94285   0.24397   0.56424   0.00000  Uiso   1.00
H1202  H     0.97171   0.25079   0.58290   0.00000  Uiso   1.00
H1203  H     0.91691   0.24743   0.58779   0.00000  Uiso   1.00
H1204  H     0.93980   0.27034   0.53757   0.00000  Uiso   1.00
S1205  S     0.70714   0.07848   0.70958   0.00000  Uiso   1.00
O1206  O     0.72879   0.04535   0.73992   0.00000  Uiso   1.00
O1207  O     0.67299   0.05336   0.68569   0.00000  Uiso   1.00
O1208  O     0.74052   0.09784   0.67159   0.00000  Uiso   1.00
H1209  H     0.74872   0.06972   0.65453   0.00000  Uiso   1.00
S1210  S     0.95947   0.26413   0.73255   0.00000  Uiso   1.00
O1211  O     0.93589   0.28627   0.76991   0.00000  Uiso   1.00
O1212  O     0.99311   0.29650   0.71841   0.00000  Uiso   1.00
O1213  O     0.92832   0.25575   0.68847   0.00000  Uiso   1.00
H1214  H     0.91652   0.28682   0.68235   0.00000  Uiso   1.00
S1215  S     0.95938   0.07249   0.77669   0.00000  Uiso   1.00
O1216  O     0.93509   0.04624   0.74206   0.00000  Uiso   1.00
O1217  O     0.99339   0.04194   0.79302   0.00000  Uiso   1.00
O1218  O     0.92883   0.08510   0.81999   0.00000  Uiso   1.00
H1219  H     0.94780   0.09379   0.84448   0.00000  Uiso   1.00
S1220  S     0.71089   0.25548   0.79324   0.00000  Uiso   1.00
O1221  O     0.73188   0.28799   0.76169   0.00000  Uiso   1.00
O1222  O     0.67866   0.28158   0.81862   0.00000  Uiso   1.00
O1223  O     0.74579   0.23612   0.82977   0.00000  Uiso   1.00
H1224  H     0.76090   0.26435   0.83985   0.00000  Uiso   1.00
C1225  C     0.08748   0.49998   0.75030   0.00000  Uiso   1.00
C1226  C     0.24603   0.50020   0.75069   0.00000  Uiso   1.00
C1227  C     0.09200   0.51115   0.52384   0.00000  Uiso   1.00
C1228  C     0.23954   0.51768   0.97639   0.00000  Uiso   1.00
C1229  C     0.02050   0.45914   0.74146   0.00000  Uiso   1.00
C1230  C     0.31338   0.54335   0.75121   0.00000  Uiso   1.00
C1231  C     0.31275   0.45812   0.75331   0.00000  Uiso   1.00
C1232  C     0.02160   0.54160   0.76227   0.00000  Uiso   1.00
C1233  C     0.29089   0.50068   0.75185   0.00000  Uiso   1.00
C1234  C     0.04294   0.50021   0.75129   0.00000  Uiso   1.00
C1235  C     0.15961   0.35769   0.71177   0.00000  Uiso   1.00
C1236  C     0.17347   0.64237   0.78826   0.00000  Uiso   1.00
C1237  C     0.17387   0.35836   0.78820   0.00000  Uiso   1.00
C1238  C     0.15984   0.64168   0.71173   0.00000  Uiso   1.00
C1239  C     0.16778   0.49984   0.66451   0.00000  Uiso   1.00
C1240  C     0.16469   0.49999   0.83545   0.00000  Uiso   1.00
C1241  C     0.20188   0.51024   0.90594   0.00000  Uiso   1.00
C1242  C     0.13005   0.50817   0.59417   0.00000  Uiso   1.00
C1243  C     0.16479   0.50014   0.88382   0.00000  Uiso   1.00
C1244  C     0.16744   0.50005   0.61613   0.00000  Uiso   1.00
C1245  C     0.12848   0.49111   0.90781   0.00000  Uiso   1.00
C1246  C     0.20429   0.49526   0.59219   0.00000  Uiso   1.00
C1247  C     0.12788   0.50263   0.95360   0.00000  Uiso   1.00
C1248  C     0.20423   0.50667   0.54651   0.00000  Uiso   1.00
C1249  C     0.16563   0.50770   0.97657   0.00000  Uiso   1.00
C1250  C     0.16631   0.50787   0.52353   0.00000  Uiso   1.00
C1251  C     0.20274   0.51114   0.95280   0.00000  Uiso   1.00
C1252  C     0.12910   0.50839   0.54735   0.00000  Uiso   1.00
C1253  C     0.09100   0.50888   0.97751   0.00000  Uiso   1.00
C1254  C     0.24051   0.51696   0.52278   0.00000  Uiso   1.00
Cu1255 Cu    0.16667   0.54689   0.75000   0.00000  Uiso   1.00
Cu1256 Cu    0.16667   0.45311   0.75000   0.00000  Uiso   1.00
H1257  H     0.06318   0.51545   0.54089   0.00000  Uiso   1.00
H1258  H     0.26800   0.52424   0.95928   0.00000  Uiso   1.00
H1259  H     0.15378   0.37552   0.68093   0.00000  Uiso   1.00
H1260  H     0.17872   0.62464   0.81920   0.00000  Uiso   1.00
H1261  H     0.18006   0.37668   0.81902   0.00000  Uiso   1.00
H1262  H     0.15457   0.62345   0.68076   0.00000  Uiso   1.00
N1263  N     0.16667   0.61736   0.75000   0.00000  Uiso   1.00
N1264  N     0.16667   0.38264   0.75000   0.00000  Uiso   1.00
O1265  O     0.10655   0.53958   0.75000   0.00000  Uiso   1.00
O1266  O     0.22679   0.46042   0.75001   0.00000  Uiso   1.00
O1267  O     0.22679   0.53958   0.75001   0.00000  Uiso   1.00
O1268  O     0.10655   0.46042   0.75000   0.00000  Uiso   1.00
O1269  O     0.16666   0.53960   0.68513   0.00000  Uiso   1.00
O1270  O     0.16668   0.46040   0.81487   0.00000  Uiso   1.00
O1271  O     0.16668   0.53960   0.81487   0.00000  Uiso   1.00
O1272  O     0.16666   0.46040   0.68513   0.00000  Uiso   1.00
N1273  N     0.23867   0.51365   0.88061   0.00000  Uiso   1.00
H1274  H     0.26190   0.49224   0.89129   0.00000  Uiso   1.00
C1275  C     0.25243   0.56057   0.87131   0.00000  Uiso   1.00
H1276  H     0.26143   0.57909   0.90244   0.00000  Uiso   1.00
H1277  H     0.22799   0.58049   0.85457   0.00000  Uiso   1.00
H1278  H     0.27931   0.55913   0.84889   0.00000  Uiso   1.00
N1279  N     0.09341   0.51190   0.61965   0.00000  Uiso   1.00
H1280  H     0.07007   0.49002   0.60931   0.00000  Uiso   1.00
C1281  C     0.07972   0.55900   0.62822   0.00000  Uiso   1.00
H1282  H     0.07011   0.57597   0.59682   0.00000  Uiso   1.00
H1283  H     0.10446   0.57994   0.64396   0.00000  Uiso   1.00
H1284  H     0.05326   0.55819   0.65129   0.00000  Uiso   1.00
S1285  S     0.08813   0.45580   0.88416   0.00000  Uiso   1.00
O1286  O     0.06674   0.42933   0.92032   0.00000  Uiso   1.00
O1287  O     0.05750   0.48602   0.86095   0.00000  Uiso   1.00
O1288  O     0.10591   0.41612   0.84778   0.00000  Uiso   1.00
H1289  H     0.08120   0.40227   0.83363   0.00000  Uiso   1.00
S1290  S     0.24747   0.46716   0.61713   0.00000  Uiso   1.00
O1291  O     0.27430   0.44563   0.58208   0.00000  Uiso   1.00
O1292  O     0.27194   0.50213   0.64365   0.00000  Uiso   1.00
O1293  O     0.23232   0.42405   0.65087   0.00000  Uiso   1.00
H1294  H     0.25770   0.40711   0.65848   0.00000  Uiso   1.00
N1295  N     0.05311   0.51695   0.95535   0.00000  Uiso   1.00
H1296  H     0.02782   0.50472   0.97216   0.00000  Uiso   1.00
C1297  C     0.04777   0.56435   0.94045   0.00000  Uiso   1.00
H1298  H     0.01938   0.56662   0.92016   0.00000  Uiso   1.00
H1299  H     0.07403   0.57536   0.91963   0.00000  Uiso   1.00
H1300  H     0.04515   0.58834   0.96952   0.00000  Uiso   1.00
N1301  N     0.27726   0.53089   0.54505   0.00000  Uiso   1.00
H1302  H     0.30364   0.52506   0.52714   0.00000  Uiso   1.00
C1303  C     0.27619   0.57731   0.56424   0.00000  Uiso   1.00
H1304  H     0.30504   0.58412   0.58290   0.00000  Uiso   1.00
H1305  H     0.25024   0.58076   0.58779   0.00000  Uiso   1.00
H1306  H     0.27313   0.60368   0.53757   0.00000  Uiso   1.00
S1307  S     0.04048   0.41182   0.70958   0.00000  Uiso   1.00
O1308  O     0.06212   0.37869   0.73992   0.00000  Uiso   1.00
O1309  O     0.00632   0.38670   0.68569   0.00000  Uiso   1.00
O1310  O     0.07386   0.43117   0.67159   0.00000  Uiso   1.00
H1311  H     0.08205   0.40306   0.65453   0.00000  Uiso   1.00
S1312  S     0.29280   0.59746   0.73255   0.00000  Uiso   1.00
O1313  O     0.26922   0.61961   0.76991   0.00000  Uiso   1.00
O1314  O     0.32644   0.62984   0.71841   0.00000  Uiso   1.00
O1315  O     0.26165   0.58909   0.68847   0.00000  Uiso   1.00
H1316  H     0.24986   0.62015   0.68235   0.00000  Uiso   1.00
S1317  S     0.29272   0.40583   0.77669   0.00000  Uiso   1.00
O1318  O     0.26842   0.37957   0.74206   0.00000  Uiso   1.00
O1319  O     0.32672   0.37528   0.79302   0.00000  Uiso   1.00
O1320  O     0.26216   0.41843   0.81999   0.00000  Uiso   1.00
H1321  H     0.28113   0.42712   0.84448   0.00000  Uiso   1.00
S1322  S     0.04422   0.58881   0.79324   0.00000  Uiso   1.00
O1323  O     0.06522   0.62132   0.76169   0.00000  Uiso   1.00
O1324  O     0.01199   0.61491   0.81862   0.00000  Uiso   1.00
O1325  O     0.07913   0.56945   0.82977   0.00000  Uiso   1.00
H1326  H     0.09423   0.59768   0.83985   0.00000  Uiso   1.00
C1327  C     0.42081   0.49998   0.75030   0.00000  Uiso   1.00
C1328  C     0.57936   0.50020   0.75069   0.00000  Uiso   1.00
C1329  C     0.42533   0.51115   0.52384   0.00000  Uiso   1.00
C1330  C     0.57288   0.51768   0.97639   0.00000  Uiso   1.00
C1331  C     0.35384   0.45914   0.74146   0.00000  Uiso   1.00
C1332  C     0.64671   0.54335   0.75121   0.00000  Uiso   1.00
C1333  C     0.64608   0.45812   0.75331   0.00000  Uiso   1.00
C1334  C     0.35493   0.54160   0.76227   0.00000  Uiso   1.00
C1335  C     0.62422   0.50068   0.75185   0.00000  Uiso   1.00
C1336  C     0.37628   0.50021   0.75129   0.00000  Uiso   1.00
C1337  C     0.49295   0.35769   0.71177   0.00000  Uiso   1.00
C1338  C     0.50681   0.64237   0.78826   0.00000  Uiso   1.00
C1339  C     0.50720   0.35836   0.78820   0.00000  Uiso   1.00
C1340  C     0.49317   0.64168   0.71173   0.00000  Uiso   1.00
C1341  C     0.50111   0.49984   0.66451   0.00000  Uiso   1.00
C1342  C     0.49803   0.49999   0.83545   0.00000  Uiso   1.00
C1343  C     0.53522   0.51024   0.90594   0.00000  Uiso   1.00
C1344  C     0.46339   0.50817   0.59417   0.00000  Uiso   1.00
C1345  C     0.49812   0.50014   0.88382   0.00000  Uiso   1.00
C1346  C     0.50077   0.50005   0.61613   0.00000  Uiso   1.00
C1347  C     0.46181   0.49111   0.90781   0.00000  Uiso   1.00
C1348  C     0.53762   0.49526   0.59219   0.00000  Uiso   1.00
C1349  C     0.46122   0.50263   0.95360   0.00000  Uiso   1.00
C1350  C     0.53757   0.50667   0.54651   0.00000  Uiso   1.00
C1351  C     0.49896   0.50770   0.97657   0.00000  Uiso   1.00
C1352  C     0.49964   0.50787   0.52353   0.00000  Uiso   1.00
C1353  C     0.53608   0.51114   0.95280   0.00000  Uiso   1.00
C1354  C     0.46243   0.50839   0.54735   0.00000  Uiso   1.00
C1355  C     0.42434   0.50888   0.97751   0.00000  Uiso   1.00
C1356  C     0.57384   0.51696   0.52278   0.00000  Uiso   1.00
Cu1357 Cu    0.50000   0.54689   0.75000   0.00000  Uiso   1.00
Cu1358 Cu    0.50000   0.45311   0.75000   0.00000  Uiso   1.00
H1359  H     0.39652   0.51545   0.54089   0.00000  Uiso   1.00
H1360  H     0.60134   0.52424   0.95928   0.00000  Uiso   1.00
H1361  H     0.48711   0.37552   0.68093   0.00000  Uiso   1.00
H1362  H     0.51205   0.62464   0.81920   0.00000  Uiso   1.00
H1363  H     0.51339   0.37668   0.81902   0.00000  Uiso   1.00
H1364  H     0.48790   0.62345   0.68076   0.00000  Uiso   1.00
N1365  N     0.50000   0.61736   0.75000   0.00000  Uiso   1.00
N1366  N     0.50000   0.38264   0.75000   0.00000  Uiso   1.00
O1367  O     0.43988   0.53958   0.75000   0.00000  Uiso   1.00
O1368  O     0.56012   0.46042   0.75001   0.00000  Uiso   1.00
O1369  O     0.56012   0.53958   0.75001   0.00000  Uiso   1.00
O1370  O     0.43988   0.46042   0.75000   0.00000  Uiso   1.00
O1371  O     0.49999   0.53960   0.68513   0.00000  Uiso   1.00
O1372  O     0.50001   0.46040   0.81487   0.00000  Uiso   1.00
O1373  O     0.50001   0.53960   0.81487   0.00000  Uiso   1.00
O1374  O     0.49999   0.46040   0.68513   0.00000  Uiso   1.00
N1375  N     0.57200   0.51365   0.88061   0.00000  Uiso   1.00
H1376  H     0.59523   0.49224   0.89129   0.00000  Uiso   1.00
C1377  C     0.58577   0.56057   0.87131   0.00000  Uiso   1.00
H1378  H     0.59476   0.57909   0.90244   0.00000  Uiso   1.00
H1379  H     0.56133   0.58049   0.85457   0.00000  Uiso   1.00
H1380  H     0.61265   0.55913   0.84889   0.00000  Uiso   1.00
N1381  N     0.42674   0.51190   0.61965   0.00000  Uiso   1.00
H1382  H     0.40340   0.49002   0.60931   0.00000  Uiso   1.00
C1383  C     0.41305   0.55900   0.62822   0.00000  Uiso   1.00
H1384  H     0.40344   0.57597   0.59682   0.00000  Uiso   1.00
H1385  H     0.43779   0.57994   0.64396   0.00000  Uiso   1.00
H1386  H     0.38659   0.55819   0.65129   0.00000  Uiso   1.00
S1387  S     0.42146   0.45580   0.88416   0.00000  Uiso   1.00
O1388  O     0.40007   0.42933   0.92032   0.00000  Uiso   1.00
O1389  O     0.39083   0.48602   0.86095   0.00000  Uiso   1.00
O1390  O     0.43924   0.41612   0.84778   0.00000  Uiso   1.00
H1391  H     0.41453   0.40227   0.83363   0.00000  Uiso   1.00
S1392  S     0.58081   0.46716   0.61713   0.00000  Uiso   1.00
O1393  O     0.60764   0.44563   0.58208   0.00000  Uiso   1.00
O1394  O     0.60528   0.50213   0.64365   0.00000  Uiso   1.00
O1395  O     0.56565   0.42405   0.65087   0.00000  Uiso   1.00
H1396  H     0.59104   0.40711   0.65848   0.00000  Uiso   1.00
N1397  N     0.38645   0.51695   0.95535   0.00000  Uiso   1.00
H1398  H     0.36115   0.50472   0.97216   0.00000  Uiso   1.00
C1399  C     0.38111   0.56435   0.94045   0.00000  Uiso   1.00
H1400  H     0.35271   0.56662   0.92016   0.00000  Uiso   1.00
H1401  H     0.40737   0.57536   0.91963   0.00000  Uiso   1.00
H1402  H     0.37848   0.58834   0.96952   0.00000  Uiso   1.00
N1403  N     0.61059   0.53089   0.54505   0.00000  Uiso   1.00
H1404  H     0.63698   0.52506   0.52714   0.00000  Uiso   1.00
C1405  C     0.60952   0.57731   0.56424   0.00000  Uiso   1.00
H1406  H     0.63838   0.58412   0.58290   0.00000  Uiso   1.00
H1407  H     0.58357   0.58076   0.58779   0.00000  Uiso   1.00
H1408  H     0.60646   0.60368   0.53757   0.00000  Uiso   1.00
S1409  S     0.37381   0.41182   0.70958   0.00000  Uiso   1.00
O1410  O     0.39546   0.37869   0.73992   0.00000  Uiso   1.00
O1411  O     0.33965   0.38670   0.68569   0.00000  Uiso   1.00
O1412  O     0.40719   0.43117   0.67159   0.00000  Uiso   1.00
H1413  H     0.41538   0.40306   0.65453   0.00000  Uiso   1.00
S1414  S     0.62613   0.59746   0.73255   0.00000  Uiso   1.00
O1415  O     0.60255   0.61961   0.76991   0.00000  Uiso   1.00
O1416  O     0.65977   0.62984   0.71841   0.00000  Uiso   1.00
O1417  O     0.59498   0.58909   0.68847   0.00000  Uiso   1.00
H1418  H     0.58319   0.62015   0.68235   0.00000  Uiso   1.00
S1419  S     0.62605   0.40583   0.77669   0.00000  Uiso   1.00
O1420  O     0.60176   0.37957   0.74206   0.00000  Uiso   1.00
O1421  O     0.66005   0.37528   0.79302   0.00000  Uiso   1.00
O1422  O     0.59549   0.41843   0.81999   0.00000  Uiso   1.00
H1423  H     0.61447   0.42712   0.84448   0.00000  Uiso   1.00
S1424  S     0.37755   0.58881   0.79324   0.00000  Uiso   1.00
O1425  O     0.39855   0.62132   0.76169   0.00000  Uiso   1.00
O1426  O     0.34532   0.61491   0.81862   0.00000  Uiso   1.00
O1427  O     0.41246   0.56945   0.82977   0.00000  Uiso   1.00
H1428  H     0.42756   0.59768   0.83985   0.00000  Uiso   1.00
C1429  C     0.75414   0.49998   0.75030   0.00000  Uiso   1.00
C1430  C     0.91269   0.50020   0.75069   0.00000  Uiso   1.00
C1431  C     0.75866   0.51115   0.52384   0.00000  Uiso   1.00
C1432  C     0.90621   0.51768   0.97639   0.00000  Uiso   1.00
C1433  C     0.68717   0.45914   0.74146   0.00000  Uiso   1.00
C1434  C     0.98004   0.54335   0.75121   0.00000  Uiso   1.00
C1435  C     0.97942   0.45812   0.75331   0.00000  Uiso   1.00
C1436  C     0.68826   0.54160   0.76227   0.00000  Uiso   1.00
C1437  C     0.95756   0.50068   0.75185   0.00000  Uiso   1.00
C1438  C     0.70961   0.50021   0.75129   0.00000  Uiso   1.00
C1439  C     0.82628   0.35769   0.71177   0.00000  Uiso   1.00
C1440  C     0.84014   0.64237   0.78826   0.00000  Uiso   1.00
C1441  C     0.84054   0.35836   0.78820   0.00000  Uiso   1.00
C1442  C     0.82650   0.64168   0.71173   0.00000  Uiso   1.00
C1443  C     0.83445   0.49984   0.66451   0.00000  Uiso   1.00
C1444  C     0.83136   0.49999   0.83545   0.00000  Uiso   1.00
C1445  C     0.86855   0.51024   0.90594   0.00000  Uiso   1.00
C1446  C     0.79672   0.50817   0.59417   0.00000  Uiso   1.00
C1447  C     0.83146   0.50014   0.88382   0.00000  Uiso   1.00
C1448  C     0.83410   0.50005   0.61613   0.00000  Uiso   1.00
C1449  C     0.79514   0.49111   0.90781   0.00000  Uiso   1.00
C1450  C     0.87095   0.49526   0.59219   0.00000  Uiso   1.00
C1451  C     0.79455   0.50263   0.95360   0.00000  Uiso   1.00
C1452  C     0.87090   0.50667   0.54651   0.00000  Uiso   1.00
C1453  C     0.83230   0.50770   0.97657   0.00000  Uiso   1.00
C1454  C     0.83297   0.50787   0.52353   0.00000  Uiso   1.00
C1455  C     0.86941   0.51114   0.95280   0.00000  Uiso   1.00
C1456  C     0.79576   0.50839   0.54735   0.00000  Uiso   1.00
C1457  C     0.75767   0.50888   0.97751   0.00000  Uiso   1.00
C1458  C     0.90717   0.51696   0.52278   0.00000  Uiso   1.00
Cu1459 Cu    0.83333   0.54689   0.75000   0.00000  Uiso   1.00
Cu1460 Cu    0.83333   0.45311   0.75000   0.00000  Uiso   1.00
H1461  H     0.72985   0.51545   0.54089   0.00000  Uiso   1.00
H1462  H     0.93467   0.52424   0.95928   0.00000  Uiso   1.00
H1463  H     0.82045   0.37552   0.68093   0.00000  Uiso   1.00
H1464  H     0.84538   0.62464   0.81920   0.00000  Uiso   1.00
H1465  H     0.84673   0.37668   0.81902   0.00000  Uiso   1.00
H1466  H     0.82123   0.62345   0.68076   0.00000  Uiso   1.00
N1467  N     0.83333   0.61736   0.75000   0.00000  Uiso   1.00
N1468  N     0.83333   0.38264   0.75000   0.00000  Uiso   1.00
O1469  O     0.77321   0.53958   0.75000   0.00000  Uiso   1.00
O1470  O     0.89345   0.46042   0.75001   0.00000  Uiso   1.00
O1471  O     0.89345   0.53958   0.75001   0.00000  Uiso   1.00
O1472  O     0.77321   0.46042   0.75000   0.00000  Uiso   1.00
O1473  O     0.83332   0.53960   0.68513   0.00000  Uiso   1.00
O1474  O     0.83334   0.46040   0.81487   0.00000  Uiso   1.00
O1475  O     0.83334   0.53960   0.81487   0.00000  Uiso   1.00
O1476  O     0.83332   0.46040   0.68513   0.00000  Uiso   1.00
N1477  N     0.90533   0.51365   0.88061   0.00000  Uiso   1.00
H1478  H     0.92856   0.49224   0.89129   0.00000  Uiso   1.00
C1479  C     0.91910   0.56057   0.87131   0.00000  Uiso   1.00
H1480  H     0.92810   0.57909   0.90244   0.00000  Uiso   1.00
H1481  H     0.89466   0.58049   0.85457   0.00000  Uiso   1.00
H1482  H     0.94598   0.55913   0.84889   0.00000  Uiso   1.00
N1483  N     0.76007   0.51190   0.61965   0.00000  Uiso   1.00
H1484  H     0.73673   0.49002   0.60931   0.00000  Uiso   1.00
C1485  C     0.74639   0.55900   0.62822   0.00000  Uiso   1.00
H1486  H     0.73677   0.57597   0.59682   0.00000  Uiso   1.00
H1487  H     0.77112   0.57994   0.64396   0.00000  Uiso   1.00
H1488  H     0.71992   0.55819   0.65129   0.00000  Uiso   1.00
S1489  S     0.75479   0.45580   0.88416   0.00000  Uiso   1.00
O1490  O     0.73341   0.42933   0.92032   0.00000  Uiso   1.00
O1491  O     0.72416   0.48602   0.86095   0.00000  Uiso   1.00
O1492  O     0.77258   0.41612   0.84778   0.00000  Uiso   1.00
H1493  H     0.74787   0.40227   0.83363   0.00000  Uiso   1.00
S1494  S     0.91414   0.46716   0.61713   0.00000  Uiso   1.00
O1495  O     0.94097   0.44563   0.58208   0.00000  Uiso   1.00
O1496  O     0.93861   0.50213   0.64365   0.00000  Uiso   1.00
O1497  O     0.89898   0.42405   0.65087   0.00000  Uiso   1.00
H1498  H     0.92437   0.40711   0.65848   0.00000  Uiso   1.00
N1499  N     0.71978   0.51695   0.95535   0.00000  Uiso   1.00
H1500  H     0.69449   0.50472   0.97216   0.00000  Uiso   1.00
C1501  C     0.71444   0.56435   0.94045   0.00000  Uiso   1.00
H1502  H     0.68605   0.56662   0.92016   0.00000  Uiso   1.00
H1503  H     0.74070   0.57536   0.91963   0.00000  Uiso   1.00
H1504  H     0.71181   0.58834   0.96952   0.00000  Uiso   1.00
N1505  N     0.94393   0.53089   0.54505   0.00000  Uiso   1.00
H1506  H     0.97031   0.52506   0.52714   0.00000  Uiso   1.00
C1507  C     0.94285   0.57731   0.56424   0.00000  Uiso   1.00
H1508  H     0.97171   0.58412   0.58290   0.00000  Uiso   1.00
H1509  H     0.91691   0.58076   0.58779   0.00000  Uiso   1.00
H1510  H     0.93980   0.60368   0.53757   0.00000  Uiso   1.00
S1511  S     0.70714   0.41182   0.70958   0.00000  Uiso   1.00
O1512  O     0.72879   0.37869   0.73992   0.00000  Uiso   1.00
O1513  O     0.67299   0.38670   0.68569   0.00000  Uiso   1.00
O1514  O     0.74052   0.43117   0.67159   0.00000  Uiso   1.00
H1515  H     0.74872   0.40306   0.65453   0.00000  Uiso   1.00
S1516  S     0.95947   0.59746   0.73255   0.00000  Uiso   1.00
O1517  O     0.93589   0.61961   0.76991   0.00000  Uiso   1.00
O1518  O     0.99311   0.62984   0.71841   0.00000  Uiso   1.00
O1519  O     0.92832   0.58909   0.68847   0.00000  Uiso   1.00
H1520  H     0.91652   0.62015   0.68235   0.00000  Uiso   1.00
S1521  S     0.95938   0.40583   0.77669   0.00000  Uiso   1.00
O1522  O     0.93509   0.37957   0.74206   0.00000  Uiso   1.00
O1523  O     0.99339   0.37528   0.79302   0.00000  Uiso   1.00
O1524  O     0.92883   0.41843   0.81999   0.00000  Uiso   1.00
H1525  H     0.94780   0.42712   0.84448   0.00000  Uiso   1.00
S1526  S     0.71089   0.58881   0.79324   0.00000  Uiso   1.00
O1527  O     0.73188   0.62132   0.76169   0.00000  Uiso   1.00
O1528  O     0.67866   0.61491   0.81862   0.00000  Uiso   1.00
O1529  O     0.74579   0.56945   0.82977   0.00000  Uiso   1.00
H1530  H     0.76090   0.59768   0.83985   0.00000  Uiso   1.00
C1531  C     0.08748   0.83331   0.75030   0.00000  Uiso   1.00
C1532  C     0.24603   0.83353   0.75069   0.00000  Uiso   1.00
C1533  C     0.09200   0.84449   0.52384   0.00000  Uiso   1.00
C1534  C     0.23954   0.85101   0.97639   0.00000  Uiso   1.00
C1535  C     0.02050   0.79248   0.74146   0.00000  Uiso   1.00
C1536  C     0.31338   0.87668   0.75121   0.00000  Uiso   1.00
C1537  C     0.31275   0.79146   0.75331   0.00000  Uiso   1.00
C1538  C     0.02160   0.87493   0.76227   0.00000  Uiso   1.00
C1539  C     0.29089   0.83402   0.75185   0.00000  Uiso   1.00
C1540  C     0.04294   0.83354   0.75129   0.00000  Uiso   1.00
C1541  C     0.15961   0.69102   0.71177   0.00000  Uiso   1.00
C1542  C     0.17347   0.97570   0.78826   0.00000  Uiso   1.00
C1543  C     0.17387   0.69170   0.78820   0.00000  Uiso   1.00
C1544  C     0.15984   0.97502   0.71173   0.00000  Uiso   1.00
C1545  C     0.16778   0.83318   0.66451   0.00000  Uiso   1.00
C1546  C     0.16469   0.83332   0.83545   0.00000  Uiso   1.00
C1547  C     0.20188   0.84357   0.90594   0.00000  Uiso   1.00
C1548  C     0.13005   0.84151   0.59417   0.00000  Uiso   1.00
C1549  C     0.16479   0.83347   0.88382   0.00000  Uiso   1.00
C1550  C     0.16744   0.83338   0.61613   0.00000  Uiso   1.00
C1551  C     0.12848   0.82444   0.90781   0.00000  Uiso   1.00
C1552  C     0.20429   0.82859   0.59219   0.00000  Uiso   1.00
C1553  C     0.12788   0.83596   0.95360   0.00000  Uiso   1.00
C1554  C     0.20423   0.84001   0.54651   0.00000  Uiso   1.00
C1555  C     0.16563   0.84103   0.97657   0.00000  Uiso   1.00
C1556  C     0.16631   0.84120   0.52353   0.00000  Uiso   1.00
C1557  C     0.20274   0.84448   0.95280   0.00000  Uiso   1.00
C1558  C     0.12910   0.84173   0.54735   0.00000  Uiso   1.00
C1559  C     0.09100   0.84221   0.97751   0.00000  Uiso   1.00
C1560  C     0.24051   0.85029   0.52278   0.00000  Uiso   1.00
Cu1561 Cu    0.16667   0.88022   0.75000   0.00000  Uiso   1.00
Cu1562 Cu    0.16667   0.78645   0.75000   0.00000  Uiso   1.00
H1563  H     0.06318   0.84878   0.54089   0.00000  Uiso   1.00
H1564  H     0.26800   0.85758   0.95928   0.00000  Uiso   1.00
H1565  H     0.15378   0.70885   0.68093   0.00000  Uiso   1.00
H1566  H     0.17872   0.95797   0.81920   0.00000  Uiso   1.00
H1567  H     0.18006   0.71001   0.81902   0.00000  Uiso   1.00
H1568  H     0.15457   0.95678   0.68076   0.00000  Uiso   1.00
N1569  N     0.16667   0.95069   0.75000   0.00000  Uiso   1.00
N1570  N     0.16667   0.71598   0.75000   0.00000  Uiso   1.00
O1571  O     0.10655   0.87291   0.75000   0.00000  Uiso   1.00
O1572  O     0.22679   0.79375   0.75001   0.00000  Uiso   1.00
O1573  O     0.22679   0.87291   0.75001   0.00000  Uiso   1.00
O1574  O     0.10655   0.79375   0.75000   0.00000  Uiso   1.00
O1575  O     0.16666   0.87293   0.68513   0.00000  Uiso   1.00
O1576  O     0.16668   0.79373   0.81487   0.00000  Uiso   1.00
O1577  O     0.16668   0.87293   0.81487   0.00000  Uiso   1.00
O1578  O     0.16666   0.79373   0.68513   0.00000  Uiso   1.00
N1579  N     0.23867   0.84698   0.88061   0.00000  Uiso   1.00
H1580  H     0.26190   0.82557   0.89129   0.00000  Uiso   1.00
C1581  C     0.25243   0.89390   0.87131   0.00000  Uiso   1.00
H1582  H     0.26143   0.91243   0.90244   0.00000  Uiso   1.00
H1583  H     0.22799   0.91382   0.85457   0.00000  Uiso   1.00
H1584  H     0.27931   0.89246   0.84889   0.00000  Uiso   1.00
N1585  N     0.09341   0.84523   0.61965   0.00000  Uiso   1.00
H1586  H     0.07007   0.82335   0.60931   0.00000  Uiso   1.00
C1587  C     0.07972   0.89233   0.62822   0.00000  Uiso   1.00
H1588  H     0.07011   0.90930   0.59682   0.00000  Uiso   1.00
H1589  H     0.10446   0.91327   0.64396   0.00000  Uiso   1.00
H1590  H     0.05326   0.89153   0.65129   0.00000  Uiso   1.00
S1591  S     0.08813   0.78914   0.88416   0.00000  Uiso   1.00
O1592  O     0.06674   0.76266   0.92032   0.00000  Uiso   1.00
O1593  O     0.05750   0.81935   0.86095   0.00000  Uiso   1.00
O1594  O     0.10591   0.74945   0.84778   0.00000  Uiso   1.00
H1595  H     0.08120   0.73560   0.83363   0.00000  Uiso   1.00
S1596  S     0.24747   0.80049   0.61713   0.00000  Uiso   1.00
O1597  O     0.27430   0.77897   0.58208   0.00000  Uiso   1.00
O1598  O     0.27194   0.83546   0.64365   0.00000  Uiso   1.00
O1599  O     0.23232   0.75738   0.65087   0.00000  Uiso   1.00
H1600  H     0.25770   0.74044   0.65848   0.00000  Uiso   1.00
N1601  N     0.05311   0.85028   0.95535   0.00000  Uiso   1.00
H1602  H     0.02782   0.83805   0.97216   0.00000  Uiso   1.00
C1603  C     0.04777   0.89768   0.94045   0.00000  Uiso   1.00
H1604  H     0.01938   0.89996   0.92016   0.00000  Uiso   1.00
H1605  H     0.07403   0.90870   0.91963   0.00000  Uiso   1.00
H1606  H     0.04515   0.92167   0.96952   0.00000  Uiso   1.00
N1607  N     0.27726   0.86422   0.54505   0.00000  Uiso   1.00
H1608  H     0.30364   0.85839   0.52714   0.00000  Uiso   1.00
C1609  C     0.27619   0.91064   0.56424   0.00000  Uiso   1.00
H1610  H     0.30504   0.91746   0.58290   0.00000  Uiso   1.00
H1611  H     0.25024   0.91410   0.58779   0.00000  Uiso   1.00
H1612  H     0.27313   0.93701   0.53757   0.00000  Uiso   1.00
S1613  S     0.04048   0.74515   0.70958   0.00000  Uiso   1.00
O1614  O     0.06212   0.71202   0.73992   0.00000  Uiso   1.00
O1615  O     0.00632   0.72003   0.68569   0.00000  Uiso   1.00
O1616  O     0.07386   0.76450   0.67159   0.00000  Uiso   1.00
H1617  H     0.08205   0.73639   0.65453   0.00000  Uiso   1.00
S1618  S     0.29280   0.93080   0.73255   0.00000  Uiso   1.00
O1619  O     0.26922   0.95294   0.76991   0.00000  Uiso   1.00
O1620  O     0.32644   0.96317   0.71841   0.00000  Uiso   1.00
O1621  O     0.26165   0.92242   0.68847   0.00000  Uiso   1.00
H1622  H     0.24986   0.95348   0.68235   0.00000  Uiso   1.00
S1623  S     0.29272   0.73916   0.77669   0.00000  Uiso   1.00
O1624  O     0.26842   0.71290   0.74206   0.00000  Uiso   1.00
O1625  O     0.32672   0.70861   0.79302   0.00000  Uiso   1.00
O1626  O     0.26216   0.75176   0.81999   0.00000  Uiso   1.00
H1627  H     0.28113   0.76045   0.84448   0.00000  Uiso   1.00
S1628  S     0.04422   0.92214   0.79324   0.00000  Uiso   1.00
O1629  O     0.06522   0.95466   0.76169   0.00000  Uiso   1.00
O1630  O     0.01199   0.94825   0.81862   0.00000  Uiso   1.00
O1631  O     0.07913   0.90279   0.82977   0.00000  Uiso   1.00
H1632  H     0.09423   0.93101   0.83985   0.00000  Uiso   1.00
C1633  C     0.42081   0.83331   0.75030   0.00000  Uiso   1.00
C1634  C     0.57936   0.83353   0.75069   0.00000  Uiso   1.00
C1635  C     0.42533   0.84449   0.52384   0.00000  Uiso   1.00
C1636  C     0.57288   0.85101   0.97639   0.00000  Uiso   1.00
C1637  C     0.35384   0.79248   0.74146   0.00000  Uiso   1.00
C1638  C     0.64671   0.87668   0.75121   0.00000  Uiso   1.00
C1639  C     0.64608   0.79146   0.75331   0.00000  Uiso   1.00
C1640  C     0.35493   0.87493   0.76227   0.00000  Uiso   1.00
C1641  C     0.62422   0.83402   0.75185   0.00000  Uiso   1.00
C1642  C     0.37628   0.83354   0.75129   0.00000  Uiso   1.00
C1643  C     0.49295   0.69102   0.71177   0.00000  Uiso   1.00
C1644  C     0.50681   0.97570   0.78826   0.00000  Uiso   1.00
C1645  C     0.50720   0.69170   0.78820   0.00000  Uiso   1.00
C1646  C     0.49317   0.97502   0.71173   0.00000  Uiso   1.00
C1647  C     0.50111   0.83318   0.66451   0.00000  Uiso   1.00
C1648  C     0.49803   0.83332   0.83545   0.00000  Uiso   1.00
C1649  C     0.53522   0.84357   0.90594   0.00000  Uiso   1.00
C1650  C     0.46339   0.84151   0.59417   0.00000  Uiso   1.00
C1651  C     0.49812   0.83347   0.88382   0.00000  Uiso   1.00
C1652  C     0.50077   0.83338   0.61613   0.00000  Uiso   1.00
C1653  C     0.46181   0.82444   0.90781   0.00000  Uiso   1.00
C1654  C     0.53762   0.82859   0.59219   0.00000  Uiso   1.00
C1655  C     0.46122   0.83596   0.95360   0.00000  Uiso   1.00
C1656  C     0.53757   0.84001   0.54651   0.00000  Uiso   1.00
C1657  C     0.49896   0.84103   0.97657   0.00000  Uiso   1.00
C1658  C     0.49964   0.84120   0.52353   0.00000  Uiso   1.00
C1659  C     0.53608   0.84448   0.95280   0.00000  Uiso   1.00
C1660  C     0.46243   0.84173   0.54735   0.00000  Uiso   1.00
C1661  C     0.42434   0.84221   0.97751   0.00000  Uiso   1.00
C1662  C     0.57384   0.85029   0.52278   0.00000  Uiso   1.00
Cu1663 Cu    0.50000   0.88022   0.75000   0.00000  Uiso   1.00
Cu1664 Cu    0.50000   0.78645   0.75000   0.00000  Uiso   1.00
H1665  H     0.39652   0.84878   0.54089   0.00000  Uiso   1.00
H1666  H     0.60134   0.85758   0.95928   0.00000  Uiso   1.00
H1667  H     0.48711   0.70885   0.68093   0.00000  Uiso   1.00
H1668  H     0.51205   0.95797   0.81920   0.00000  Uiso   1.00
H1669  H     0.51339   0.71001   0.81902   0.00000  Uiso   1.00
H1670  H     0.48790   0.95678   0.68076   0.00000  Uiso   1.00
N1671  N     0.50000   0.95069   0.75000   0.00000  Uiso   1.00
N1672  N     0.50000   0.71598   0.75000   0.00000  Uiso   1.00
O1673  O     0.43988   0.87291   0.75000   0.00000  Uiso   1.00
O1674  O     0.56012   0.79375   0.75001   0.00000  Uiso   1.00
O1675  O     0.56012   0.87291   0.75001   0.00000  Uiso   1.00
O1676  O     0.43988   0.79375   0.75000   0.00000  Uiso   1.00
O1677  O     0.49999   0.87293   0.68513   0.00000  Uiso   1.00
O1678  O     0.50001   0.79373   0.81487   0.00000  Uiso   1.00
O1679  O     0.50001   0.87293   0.81487   0.00000  Uiso   1.00
O1680  O     0.49999   0.79373   0.68513   0.00000  Uiso   1.00
N1681  N     0.57200   0.84698   0.88061   0.00000  Uiso   1.00
H1682  H     0.59523   0.82557   0.89129   0.00000  Uiso   1.00
C1683  C     0.58577   0.89390   0.87131   0.00000  Uiso   1.00
H1684  H     0.59476   0.91243   0.90244   0.00000  Uiso   1.00
H1685  H     0.56133   0.91382   0.85457   0.00000  Uiso   1.00
H1686  H     0.61265   0.89246   0.84889   0.00000  Uiso   1.00
N1687  N     0.42674   0.84523   0.61965   0.00000  Uiso   1.00
H1688  H     0.40340   0.82335   0.60931   0.00000  Uiso   1.00
C1689  C     0.41305   0.89233   0.62822   0.00000  Uiso   1.00
H1690  H     0.40344   0.90930   0.59682   0.00000  Uiso   1.00
H1691  H     0.43779   0.91327   0.64396   0.00000  Uiso   1.00
H1692  H     0.38659   0.89153   0.65129   0.00000  Uiso   1.00
S1693  S     0.42146   0.78914   0.88416   0.00000  Uiso   1.00
O1694  O     0.40007   0.76266   0.92032   0.00000  Uiso   1.00
O1695  O     0.39083   0.81935   0.86095   0.00000  Uiso   1.00
O1696  O     0.43924   0.74945   0.84778   0.00000  Uiso   1.00
H1697  H     0.41453   0.73560   0.83363   0.00000  Uiso   1.00
S1698  S     0.58081   0.80049   0.61713   0.00000  Uiso   1.00
O1699  O     0.60764   0.77897   0.58208   0.00000  Uiso   1.00
O1700  O     0.60528   0.83546   0.64365   0.00000  Uiso   1.00
O1701  O     0.56565   0.75738   0.65087   0.00000  Uiso   1.00
H1702  H     0.59104   0.74044   0.65848   0.00000  Uiso   1.00
N1703  N     0.38645   0.85028   0.95535   0.00000  Uiso   1.00
H1704  H     0.36115   0.83805   0.97216   0.00000  Uiso   1.00
C1705  C     0.38111   0.89768   0.94045   0.00000  Uiso   1.00
H1706  H     0.35271   0.89996   0.92016   0.00000  Uiso   1.00
H1707  H     0.40737   0.90870   0.91963   0.00000  Uiso   1.00
H1708  H     0.37848   0.92167   0.96952   0.00000  Uiso   1.00
N1709  N     0.61059   0.86422   0.54505   0.00000  Uiso   1.00
H1710  H     0.63698   0.85839   0.52714   0.00000  Uiso   1.00
C1711  C     0.60952   0.91064   0.56424   0.00000  Uiso   1.00
H1712  H     0.63838   0.91746   0.58290   0.00000  Uiso   1.00
H1713  H     0.58357   0.91410   0.58779   0.00000  Uiso   1.00
H1714  H     0.60646   0.93701   0.53757   0.00000  Uiso   1.00
S1715  S     0.37381   0.74515   0.70958   0.00000  Uiso   1.00
O1716  O     0.39546   0.71202   0.73992   0.00000  Uiso   1.00
O1717  O     0.33965   0.72003   0.68569   0.00000  Uiso   1.00
O1718  O     0.40719   0.76450   0.67159   0.00000  Uiso   1.00
H1719  H     0.41538   0.73639   0.65453   0.00000  Uiso   1.00
S1720  S     0.62613   0.93080   0.73255   0.00000  Uiso   1.00
O1721  O     0.60255   0.95294   0.76991   0.00000  Uiso   1.00
O1722  O     0.65977   0.96317   0.71841   0.00000  Uiso   1.00
O1723  O     0.59498   0.92242   0.68847   0.00000  Uiso   1.00
H1724  H     0.58319   0.95348   0.68235   0.00000  Uiso   1.00
S1725  S     0.62605   0.73916   0.77669   0.00000  Uiso   1.00
O1726  O     0.60176   0.71290   0.74206   0.00000  Uiso   1.00
O1727  O     0.66005   0.70861   0.79302   0.00000  Uiso   1.00
O1728  O     0.59549   0.75176   0.81999   0.00000  Uiso   1.00
H1729  H     0.61447   0.76045   0.84448   0.00000  Uiso   1.00
S1730  S     0.37755   0.92214   0.79324   0.00000  Uiso   1.00
O1731  O     0.39855   0.95466   0.76169   0.00000  Uiso   1.00
O1732  O     0.34532   0.94825   0.81862   0.00000  Uiso   1.00
O1733  O     0.41246   0.90279   0.82977   0.00000  Uiso   1.00
H1734  H     0.42756   0.93101   0.83985   0.00000  Uiso   1.00
C1735  C     0.75414   0.83331   0.75030   0.00000  Uiso   1.00
C1736  C     0.91269   0.83353   0.75069   0.00000  Uiso   1.00
C1737  C     0.75866   0.84449   0.52384   0.00000  Uiso   1.00
C1738  C     0.90621   0.85101   0.97639   0.00000  Uiso   1.00
C1739  C     0.68717   0.79248   0.74146   0.00000  Uiso   1.00
C1740  C     0.98004   0.87668   0.75121   0.00000  Uiso   1.00
C1741  C     0.97942   0.79146   0.75331   0.00000  Uiso   1.00
C1742  C     0.68826   0.87493   0.76227   0.00000  Uiso   1.00
C1743  C     0.95756   0.83402   0.75185   0.00000  Uiso   1.00
C1744  C     0.70961   0.83354   0.75129   0.00000  Uiso   1.00
C1745  C     0.82628   0.69102   0.71177   0.00000  Uiso   1.00
C1746  C     0.84014   0.97570   0.78826   0.00000  Uiso   1.00
C1747  C     0.84054   0.69170   0.78820   0.00000  Uiso   1.00
C1748  C     0.82650   0.97502   0.71173   0.00000  Uiso   1.00
C1749  C     0.83445   0.83318   0.66451   0.00000  Uiso   1.00
C1750  C     0.83136   0.83332   0.83545   0.00000  Uiso   1.00
C1751  C     0.86855   0.84357   0.90594   0.00000  Uiso   1.00
C1752  C     0.79672   0.84151   0.59417   0.00000  Uiso   1.00
C1753  C     0.83146   0.83347   0.88382   0.00000  Uiso   1.00
C1754  C     0.83410   0.83338   0.61613   0.00000  Uiso   1.00
C1755  C     0.79514   0.82444   0.90781   0.00000  Uiso   1.00
C1756  C     0.87095   0.82859   0.59219   0.00000  Uiso   1.00
C1757  C     0.79455   0.83596   0.95360   0.00000  Uiso   1.00
C1758  C     0.87090   0.84001   0.54651   0.00000  Uiso   1.00
C1759  C     0.83230   0.84103   0.97657   0.00000  Uiso   1.00
C1760  C     0.83297   0.84120   0.52353   0.00000  Uiso   1.00
C1761  C     0.86941   0.84448   0.95280   0.00000  Uiso   1.00
C1762  C     0.79576   0.84173   0.54735   0.00000  Uiso   1.00
C1763  C     0.75767   0.84221   0.97751   0.00000  Uiso   1.00
C1764  C     0.90717   0.85029   0.52278   0.00000  Uiso   1.00
Cu1765 Cu    0.83333   0.88022   0.75000   0.00000  Uiso   1.00
Cu1766 Cu    0.83333   0.78645   0.75000   0.00000  Uiso   1.00
H1767  H     0.72985   0.84878   0.54089   0.00000  Uiso   1.00
H1768  H     0.93467   0.85758   0.95928   0.00000  Uiso   1.00
H1769  H     0.82045   0.70885   0.68093   0.00000  Uiso   1.00
H1770  H     0.84538   0.95797   0.81920   0.00000  Uiso   1.00
H1771  H     0.84673   0.71001   0.81902   0.00000  Uiso   1.00
H1772  H     0.82123   0.95678   0.68076   0.00000  Uiso   1.00
N1773  N     0.83333   0.95069   0.75000   0.00000  Uiso   1.00
N1774  N     0.83333   0.71598   0.75000   0.00000  Uiso   1.00
O1775  O     0.77321   0.87291   0.75000   0.00000  Uiso   1.00
O1776  O     0.89345   0.79375   0.75001   0.00000  Uiso   1.00
O1777  O     0.89345   0.87291   0.75001   0.00000  Uiso   1.00
O1778  O     0.77321   0.79375   0.75000   0.00000  Uiso   1.00
O1779  O     0.83332   0.87293   0.68513   0.00000  Uiso   1.00
O1780  O     0.83334   0.79373   0.81487   0.00000  Uiso   1.00
O1781  O     0.83334   0.87293   0.81487   0.00000  Uiso   1.00
O1782  O     0.83332   0.79373   0.68513   0.00000  Uiso   1.00
N1783  N     0.90533   0.84698   0.88061   0.00000  Uiso   1.00
H1784  H     0.92856   0.82557   0.89129   0.00000  Uiso   1.00
C1785  C     0.91910   0.89390   0.87131   0.00000  Uiso   1.00
H1786  H     0.92810   0.91243   0.90244   0.00000  Uiso   1.00
H1787  H     0.89466   0.91382   0.85457   0.00000  Uiso   1.00
H1788  H     0.94598   0.89246   0.84889   0.00000  Uiso   1.00
N1789  N     0.76007   0.84523   0.61965   0.00000  Uiso   1.00
H1790  H     0.73673   0.82335   0.60931   0.00000  Uiso   1.00
C1791  C     0.74639   0.89233   0.62822   0.00000  Uiso   1.00
H1792  H     0.73677   0.90930   0.59682   0.00000  Uiso   1.00
H1793  H     0.77112   0.91327   0.64396   0.00000  Uiso   1.00
H1794  H     0.71992   0.89153   0.65129   0.00000  Uiso   1.00
S1795  S     0.75479   0.78914   0.88416   0.00000  Uiso   1.00
O1796  O     0.73341   0.76266   0.92032   0.00000  Uiso   1.00
O1797  O     0.72416   0.81935   0.86095   0.00000  Uiso   1.00
O1798  O     0.77258   0.74945   0.84778   0.00000  Uiso   1.00
H1799  H     0.74787   0.73560   0.83363   0.00000  Uiso   1.00
S1800  S     0.91414   0.80049   0.61713   0.00000  Uiso   1.00
O1801  O     0.94097   0.77897   0.58208   0.00000  Uiso   1.00
O1802  O     0.93861   0.83546   0.64365   0.00000  Uiso   1.00
O1803  O     0.89898   0.75738   0.65087   0.00000  Uiso   1.00
H1804  H     0.92437   0.74044   0.65848   0.00000  Uiso   1.00
N1805  N     0.71978   0.85028   0.95535   0.00000  Uiso   1.00
H1806  H     0.69449   0.83805   0.97216   0.00000  Uiso   1.00
C1807  C     0.71444   0.89768   0.94045   0.00000  Uiso   1.00
H1808  H     0.68605   0.89996   0.92016   0.00000  Uiso   1.00
H1809  H     0.74070   0.90870   0.91963   0.00000  Uiso   1.00
H1810  H     0.71181   0.92167   0.96952   0.00000  Uiso   1.00
N1811  N     0.94393   0.86422   0.54505   0.00000  Uiso   1.00
H1812  H     0.97031   0.85839   0.52714   0.00000  Uiso   1.00
C1813  C     0.94285   0.91064   0.56424   0.00000  Uiso   1.00
H1814  H     0.97171   0.91746   0.58290   0.00000  Uiso   1.00
H1815  H     0.91691   0.91410   0.58779   0.00000  Uiso   1.00
H1816  H     0.93980   0.93701   0.53757   0.00000  Uiso   1.00
S1817  S     0.70714   0.74515   0.70958   0.00000  Uiso   1.00
O1818  O     0.72879   0.71202   0.73992   0.00000  Uiso   1.00
O1819  O     0.67299   0.72003   0.68569   0.00000  Uiso   1.00
O1820  O     0.74052   0.76450   0.67159   0.00000  Uiso   1.00
H1821  H     0.74872   0.73639   0.65453   0.00000  Uiso   1.00
S1822  S     0.95947   0.93080   0.73255   0.00000  Uiso   1.00
O1823  O     0.93589   0.95294   0.76991   0.00000  Uiso   1.00
O1824  O     0.99311   0.96317   0.71841   0.00000  Uiso   1.00
O1825  O     0.92832   0.92242   0.68847   0.00000  Uiso   1.00
H1826  H     0.91652   0.95348   0.68235   0.00000  Uiso   1.00
S1827  S     0.95938   0.73916   0.77669   0.00000  Uiso   1.00
O1828  O     0.93509   0.71290   0.74206   0.00000  Uiso   1.00
O1829  O     0.99339   0.70861   0.79302   0.00000  Uiso   1.00
O1830  O     0.92883   0.75176   0.81999   0.00000  Uiso   1.00
H1831  H     0.94780   0.76045   0.84448   0.00000  Uiso   1.00
S1832  S     0.71089   0.92214   0.79324   0.00000  Uiso   1.00
O1833  O     0.73188   0.95466   0.76169   0.00000  Uiso   1.00
O1834  O     0.67866   0.94825   0.81862   0.00000  Uiso   1.00
O1835  O     0.74579   0.90279   0.82977   0.00000  Uiso   1.00
H1836  H     0.76090   0.93101   0.83985   0.00000  Uiso   1.00
loop_
_geom_bond_atom_site_label_1
_geom_bond_atom_site_label_2
_geom_bond_distance
_geom_bond_site_symmetry_2
_ccdc_geom_bond_type
C1     O44     1.297   .     A
C1     O41     1.293   .     A
C1     C10     1.455   .     S
C2     O43     1.295   .     A
C2     O42     1.300   .     A
C2     C9      1.466   .     S
C3     C28     1.403   .     A
C3     H33     1.081   .     S
C3     C947    1.394   1_554 S
C4     H34     1.081   .     S
C4     C27     1.404   .     A
C4     C948    1.395   .     S
C5     S83     1.783   .     S
C5     C10     1.413   .     A
C5     C211    1.390   1_455 S
C6     C9      1.424   .     A
C6     S88     1.788   .     S
C6     C110    1.398   .     S
C7     S93     1.784   .     S
C7     C9      1.418   .     A
C7     C107    1.390   .     S
C8     S98     1.791   .     S
C8     C10     1.417   .     A
C8     C210    1.398   1_455 S
C11    N40     1.367   .     A
C11    H35     1.079   .     S
C11    C626    1.415   1_545 S
C12    H36     1.077   .     S
C12    N39     1.367   .     A
C12    C319    1.415   .     S
C13    N40     1.368   .     A
C13    H37     1.079   .     S
C13    C624    1.415   1_545 S
C14    N39     1.369   .     A
C14    H38     1.077   .     S
C14    C317    1.415   .     S
C15    O48     1.295   .     A
C15    C20     1.455   .     S
C15    O45     1.294   .     A
C16    O47     1.299   .     A
C16    O46     1.290   .     A
C16    C19     1.455   .     S
C17    C27     1.409   .     A
C17    N49     1.429   .     S
C17    C19     1.408   .     A
C18    C28     1.408   .     A
C18    N55     1.428   .     S
C18    C20     1.407   .     A
C19    C21     1.415   .     A
C20    C22     1.412   .     A
C21    C23     1.414   .     A
C21    S61     1.799   .     S
C22    S66     1.793   .     S
C22    C24     1.414   .     A
C23    C29     1.417   .     A
C23    C25     1.417   .     A
C24    C26     1.417   .     A
C24    C30     1.417   .     A
C25    C27     1.413   .     A
C25    C944    1.412   .     S
C26    C28     1.413   .     A
C26    C943    1.412   1_554 S
C29    N71     1.424   .     S
C29    C921    1.394   .     S
C30    N77     1.426   .     S
C30    C922    1.395   1_554 S
Cu31   O43     1.976   .     S
Cu31   O47     1.963   .     S
Cu31   Cu32    2.689   .     S
Cu31   O41     1.974   .     S
Cu31   N39     2.021   .     S
Cu31   O45     1.960   .     S
Cu32   O48     1.963   .     S
Cu32   O46     1.960   .     S
Cu32   O44     1.976   .     S
Cu32   N40     2.021   .     S
Cu32   O42     1.974   .     S
N49    C51     1.446   .     S
N49    H50     1.031   .     S
C51    H52     1.110   .     S
C51    H53     1.106   .     S
C51    H54     1.110   .     S
N55    H56     1.030   .     S
N55    C57     1.446   .     S
C57    H59     1.107   .     S
C57    H60     1.111   .     S
C57    H58     1.110   .     S
S61    O63     1.501   .     D
S61    O64     1.679   .     S
S61    O62     1.504   .     D
O64    H65     0.991   .     S
S66    O68     1.501   .     D
S66    O69     1.680   .     S
S66    O67     1.504   .     D
O69    H70     0.990   .     S
N71    H72     1.032   .     S
N71    C73     1.446   .     S
C73    H75     1.110   .     S
C73    H74     1.111   .     S
C73    H76     1.112   .     S
N77    H78     1.032   .     S
N77    C79     1.447   .     S
C79    H81     1.111   .     S
C79    H82     1.111   .     S
C79    H80     1.111   .     S
S83    O84     1.500   .     D
S83    O85     1.502   .     D
S83    O86     1.678   .     S
O86    H87     0.990   .     S
S88    O91     1.683   .     S
S88    O89     1.503   .     D
S88    O90     1.500   .     D
O91    H92     0.991   .     S
S93    O94     1.502   .     D
S93    O95     1.502   .     D
S93    O96     1.682   .     S
O96    H97     0.990   .     S
S98    O100    1.502   .     D
S98    O101    1.680   .     S
S98    O99     1.501   .     D
O101   H102    0.991   .     S
C103   O146    1.297   .     A
C103   O143    1.293   .     A
C103   C112    1.455   .     S
C104   O145    1.295   .     A
C104   O144    1.300   .     A
C104   C111    1.466   .     S
C105   C130    1.403   .     A
C105   H135    1.081   .     S
C105   C1049   1.394   1_554 S
C106   H136    1.081   .     S
C106   C129    1.404   .     A
C106   C1050   1.395   .     S
C107   S185    1.783   .     S
C107   C112    1.413   .     A
C108   C111    1.424   .     A
C108   S190    1.788   .     S
C108   C212    1.398   .     S
C109   S195    1.784   .     S
C109   C111    1.418   .     A
C109   C209    1.390   .     S
C110   S200    1.791   .     S
C110   C112    1.417   .     A
C113   N142    1.367   .     A
C113   H137    1.079   .     S
C113   C728    1.415   1_545 S
C114   H138    1.077   .     S
C114   N141    1.367   .     A
C114   C421    1.415   .     S
C115   N142    1.368   .     A
C115   H139    1.079   .     S
C115   C726    1.415   1_545 S
C116   N141    1.369   .     A
C116   H140    1.077   .     S
C116   C419    1.415   .     S
C117   O150    1.295   .     A
C117   C122    1.455   .     S
C117   O147    1.294   .     A
C118   O149    1.299   .     A
C118   O148    1.290   .     A
C118   C121    1.455   .     S
C119   C129    1.409   .     A
C119   N151    1.429   .     S
C119   C121    1.408   .     A
C120   C130    1.408   .     A
C120   N157    1.428   .     S
C120   C122    1.407   .     A
C121   C123    1.415   .     A
C122   C124    1.412   .     A
C123   C125    1.414   .     A
C123   S163    1.799   .     S
C124   S168    1.793   .     S
C124   C126    1.414   .     A
C125   C131    1.417   .     A
C125   C127    1.417   .     A
C126   C128    1.417   .     A
C126   C132    1.417   .     A
C127   C129    1.413   .     A
C127   C1046   1.412   .     S
C128   C130    1.413   .     A
C128   C1045   1.412   1_554 S
C131   N173    1.424   .     S
C131   C1023   1.394   .     S
C132   N179    1.426   .     S
C132   C1024   1.395   1_554 S
Cu133  O145    1.976   .     S
Cu133  O149    1.963   .     S
Cu133  Cu134   2.689   .     S
Cu133  O143    1.974   .     S
Cu133  N141    2.021   .     S
Cu133  O147    1.960   .     S
Cu134  O150    1.963   .     S
Cu134  O148    1.960   .     S
Cu134  O146    1.976   .     S
Cu134  N142    2.021   .     S
Cu134  O144    1.974   .     S
N151   C153    1.446   .     S
N151   H152    1.031   .     S
C153   H154    1.110   .     S
C153   H155    1.106   .     S
C153   H156    1.110   .     S
N157   H158    1.030   .     S
N157   C159    1.446   .     S
C159   H161    1.107   .     S
C159   H162    1.111   .     S
C159   H160    1.110   .     S
S163   O165    1.501   .     D
S163   O166    1.679   .     S
S163   O164    1.504   .     D
O166   H167    0.991   .     S
S168   O170    1.501   .     D
S168   O171    1.680   .     S
S168   O169    1.504   .     D
O171   H172    0.990   .     S
N173   H174    1.032   .     S
N173   C175    1.446   .     S
C175   H177    1.110   .     S
C175   H176    1.111   .     S
C175   H178    1.112   .     S
N179   H180    1.032   .     S
N179   C181    1.447   .     S
C181   H183    1.111   .     S
C181   H184    1.111   .     S
C181   H182    1.111   .     S
S185   O186    1.500   .     D
S185   O187    1.502   .     D
S185   O188    1.678   .     S
O188   H189    0.990   .     S
S190   O193    1.683   .     S
S190   O191    1.503   .     D
S190   O192    1.500   .     D
O193   H194    0.991   .     S
S195   O196    1.502   .     D
S195   O197    1.502   .     D
S195   O198    1.682   .     S
O198   H199    0.990   .     S
S200   O202    1.502   .     D
S200   O203    1.680   .     S
S200   O201    1.501   .     D
O203   H204    0.991   .     S
C205   O248    1.297   .     A
C205   O245    1.293   .     A
C205   C214    1.455   .     S
C206   O247    1.295   .     A
C206   O246    1.300   .     A
C206   C213    1.466   .     S
C207   C232    1.403   .     A
C207   H237    1.081   .     S
C207   C1151   1.394   1_554 S
C208   H238    1.081   .     S
C208   C231    1.404   .     A
C208   C1152   1.395   .     S
C209   S287    1.783   .     S
C209   C214    1.413   .     A
C210   C213    1.424   .     A
C210   S292    1.788   .     S
C210   C8      1.398   1_655 S
C211   S297    1.784   .     S
C211   C213    1.418   .     A
C211   C5      1.390   1_655 S
C212   S302    1.791   .     S
C212   C214    1.417   .     A
C215   N244    1.367   .     A
C215   H239    1.079   .     S
C215   C830    1.415   1_545 S
C216   H240    1.077   .     S
C216   N243    1.367   .     A
C216   C523    1.415   .     S
C217   N244    1.368   .     A
C217   H241    1.079   .     S
C217   C828    1.415   1_545 S
C218   N243    1.369   .     A
C218   H242    1.077   .     S
C218   C521    1.415   .     S
C219   O252    1.295   .     A
C219   C224    1.455   .     S
C219   O249    1.294   .     A
C220   O251    1.299   .     A
C220   O250    1.290   .     A
C220   C223    1.455   .     S
C221   C231    1.409   .     A
C221   N253    1.429   .     S
C221   C223    1.408   .     A
C222   C232    1.408   .     A
C222   N259    1.428   .     S
C222   C224    1.407   .     A
C223   C225    1.415   .     A
C224   C226    1.412   .     A
C225   C227    1.414   .     A
C225   S265    1.799   .     S
C226   S270    1.793   .     S
C226   C228    1.414   .     A
C227   C233    1.417   .     A
C227   C229    1.417   .     A
C228   C230    1.417   .     A
C228   C234    1.417   .     A
C229   C231    1.413   .     A
C229   C1148   1.412   .     S
C230   C232    1.413   .     A
C230   C1147   1.412   1_554 S
C233   N275    1.424   .     S
C233   C1125   1.394   .     S
C234   N281    1.426   .     S
C234   C1126   1.395   1_554 S
Cu235  O247    1.976   .     S
Cu235  O251    1.963   .     S
Cu235  Cu236   2.689   .     S
Cu235  O245    1.974   .     S
Cu235  N243    2.021   .     S
Cu235  O249    1.960   .     S
Cu236  O252    1.963   .     S
Cu236  O250    1.960   .     S
Cu236  O248    1.976   .     S
Cu236  N244    2.021   .     S
Cu236  O246    1.974   .     S
N253   C255    1.446   .     S
N253   H254    1.031   .     S
C255   H256    1.110   .     S
C255   H257    1.106   .     S
C255   H258    1.110   .     S
N259   H260    1.030   .     S
N259   C261    1.446   .     S
C261   H263    1.107   .     S
C261   H264    1.111   .     S
C261   H262    1.110   .     S
S265   O267    1.501   .     D
S265   O268    1.679   .     S
S265   O266    1.504   .     D
O268   H269    0.991   .     S
S270   O272    1.501   .     D
S270   O273    1.680   .     S
S270   O271    1.504   .     D
O273   H274    0.990   .     S
N275   H276    1.032   .     S
N275   C277    1.446   .     S
C277   H279    1.110   .     S
C277   H278    1.111   .     S
C277   H280    1.112   .     S
N281   H282    1.032   .     S
N281   C283    1.447   .     S
C283   H285    1.111   .     S
C283   H286    1.111   .     S
C283   H284    1.111   .     S
S287   O288    1.500   .     D
S287   O289    1.502   .     D
S287   O290    1.678   .     S
O290   H291    0.990   .     S
S292   O295    1.683   .     S
S292   O293    1.503   .     D
S292   O294    1.500   .     D
O295   H296    0.991   .     S
S297   O298    1.502   .     D
S297   O299    1.502   .     D
S297   O300    1.682   .     S
O300   H301    0.990   .     S
S302   O304    1.502   .     D
S302   O305    1.680   .     S
S302   O303    1.501   .     D
O305   H306    0.991   .     S
C307   O350    1.297   .     A
C307   O347    1.293   .     A
C307   C316    1.455   .     S
C308   O349    1.295   .     A
C308   O348    1.300   .     A
C308   C315    1.466   .     S
C309   C334    1.403   .     A
C309   H339    1.081   .     S
C309   C1253   1.394   1_554 S
C310   H340    1.081   .     S
C310   C333    1.404   .     A
C310   C1254   1.395   .     S
C311   S389    1.783   .     S
C311   C316    1.413   .     A
C311   C517    1.390   1_455 S
C312   C315    1.424   .     A
C312   S394    1.788   .     S
C312   C416    1.398   .     S
C313   S399    1.784   .     S
C313   C315    1.418   .     A
C313   C413    1.390   .     S
C314   S404    1.791   .     S
C314   C316    1.417   .     A
C314   C516    1.398   1_455 S
C317   N346    1.367   .     A
C317   H341    1.079   .     S
C318   H342    1.077   .     S
C318   N345    1.367   .     A
C318   C625    1.415   .     S
C319   N346    1.368   .     A
C319   H343    1.079   .     S
C320   N345    1.369   .     A
C320   H344    1.077   .     S
C320   C623    1.415   .     S
C321   O354    1.295   .     A
C321   C326    1.455   .     S
C321   O351    1.294   .     A
C322   O353    1.299   .     A
C322   O352    1.290   .     A
C322   C325    1.455   .     S
C323   C333    1.409   .     A
C323   N355    1.429   .     S
C323   C325    1.408   .     A
C324   C334    1.408   .     A
C324   N361    1.428   .     S
C324   C326    1.407   .     A
C325   C327    1.415   .     A
C326   C328    1.412   .     A
C327   C329    1.414   .     A
C327   S367    1.799   .     S
C328   S372    1.793   .     S
C328   C330    1.414   .     A
C329   C335    1.417   .     A
C329   C331    1.417   .     A
C330   C332    1.417   .     A
C330   C336    1.417   .     A
C331   C333    1.413   .     A
C331   C1250   1.412   .     S
C332   C334    1.413   .     A
C332   C1249   1.412   1_554 S
C335   N377    1.424   .     S
C335   C1227   1.394   .     S
C336   N383    1.426   .     S
C336   C1228   1.395   1_554 S
Cu337  O349    1.976   .     S
Cu337  O353    1.963   .     S
Cu337  Cu338   2.689   .     S
Cu337  O347    1.974   .     S
Cu337  N345    2.021   .     S
Cu337  O351    1.960   .     S
Cu338  O354    1.963   .     S
Cu338  O352    1.960   .     S
Cu338  O350    1.976   .     S
Cu338  N346    2.021   .     S
Cu338  O348    1.974   .     S
N355   C357    1.446   .     S
N355   H356    1.031   .     S
C357   H358    1.110   .     S
C357   H359    1.106   .     S
C357   H360    1.110   .     S
N361   H362    1.030   .     S
N361   C363    1.446   .     S
C363   H365    1.107   .     S
C363   H366    1.111   .     S
C363   H364    1.110   .     S
S367   O369    1.501   .     D
S367   O370    1.679   .     S
S367   O368    1.504   .     D
O370   H371    0.991   .     S
S372   O374    1.501   .     D
S372   O375    1.680   .     S
S372   O373    1.504   .     D
O375   H376    0.990   .     S
N377   H378    1.032   .     S
N377   C379    1.446   .     S
C379   H381    1.110   .     S
C379   H380    1.111   .     S
C379   H382    1.112   .     S
N383   H384    1.032   .     S
N383   C385    1.447   .     S
C385   H387    1.111   .     S
C385   H388    1.111   .     S
C385   H386    1.111   .     S
S389   O390    1.500   .     D
S389   O391    1.502   .     D
S389   O392    1.678   .     S
O392   H393    0.990   .     S
S394   O397    1.683   .     S
S394   O395    1.503   .     D
S394   O396    1.500   .     D
O397   H398    0.991   .     S
S399   O400    1.502   .     D
S399   O401    1.502   .     D
S399   O402    1.682   .     S
O402   H403    0.990   .     S
S404   O406    1.502   .     D
S404   O407    1.680   .     S
S404   O405    1.501   .     D
O407   H408    0.991   .     S
C409   O452    1.297   .     A
C409   O449    1.293   .     A
C409   C418    1.455   .     S
C410   O451    1.295   .     A
C410   O450    1.300   .     A
C410   C417    1.466   .     S
C411   C436    1.403   .     A
C411   H441    1.081   .     S
C411   C1355   1.394   1_554 S
C412   H442    1.081   .     S
C412   C435    1.404   .     A
C412   C1356   1.395   .     S
C413   S491    1.783   .     S
C413   C418    1.413   .     A
C414   C417    1.424   .     A
C414   S496    1.788   .     S
C414   C518    1.398   .     S
C415   S501    1.784   .     S
C415   C417    1.418   .     A
C415   C515    1.390   .     S
C416   S506    1.791   .     S
C416   C418    1.417   .     A
C419   N448    1.367   .     A
C419   H443    1.079   .     S
C420   H444    1.077   .     S
C420   N447    1.367   .     A
C420   C727    1.415   .     S
C421   N448    1.368   .     A
C421   H445    1.079   .     S
C422   N447    1.369   .     A
C422   H446    1.077   .     S
C422   C725    1.415   .     S
C423   O456    1.295   .     A
C423   C428    1.455   .     S
C423   O453    1.294   .     A
C424   O455    1.299   .     A
C424   O454    1.290   .     A
C424   C427    1.455   .     S
C425   C435    1.409   .     A
C425   N457    1.429   .     S
C425   C427    1.408   .     A
C426   C436    1.408   .     A
C426   N463    1.428   .     S
C426   C428    1.407   .     A
C427   C429    1.415   .     A
C428   C430    1.412   .     A
C429   C431    1.414   .     A
C429   S469    1.799   .     S
C430   S474    1.793   .     S
C430   C432    1.414   .     A
C431   C437    1.417   .     A
C431   C433    1.417   .     A
C432   C434    1.417   .     A
C432   C438    1.417   .     A
C433   C435    1.413   .     A
C433   C1352   1.412   .     S
C434   C436    1.413   .     A
C434   C1351   1.412   1_554 S
C437   N479    1.424   .     S
C437   C1329   1.394   .     S
C438   N485    1.426   .     S
C438   C1330   1.395   1_554 S
Cu439  O451    1.976   .     S
Cu439  O455    1.963   .     S
Cu439  Cu440   2.689   .     S
Cu439  O449    1.974   .     S
Cu439  N447    2.021   .     S
Cu439  O453    1.960   .     S
Cu440  O456    1.963   .     S
Cu440  O454    1.960   .     S
Cu440  O452    1.976   .     S
Cu440  N448    2.021   .     S
Cu440  O450    1.974   .     S
N457   C459    1.446   .     S
N457   H458    1.031   .     S
C459   H460    1.110   .     S
C459   H461    1.106   .     S
C459   H462    1.110   .     S
N463   H464    1.030   .     S
N463   C465    1.446   .     S
C465   H467    1.107   .     S
C465   H468    1.111   .     S
C465   H466    1.110   .     S
S469   O471    1.501   .     D
S469   O472    1.679   .     S
S469   O470    1.504   .     D
O472   H473    0.991   .     S
S474   O476    1.501   .     D
S474   O477    1.680   .     S
S474   O475    1.504   .     D
O477   H478    0.990   .     S
N479   H480    1.032   .     S
N479   C481    1.446   .     S
C481   H483    1.110   .     S
C481   H482    1.111   .     S
C481   H484    1.112   .     S
N485   H486    1.032   .     S
N485   C487    1.447   .     S
C487   H489    1.111   .     S
C487   H490    1.111   .     S
C487   H488    1.111   .     S
S491   O492    1.500   .     D
S491   O493    1.502   .     D
S491   O494    1.678   .     S
O494   H495    0.990   .     S
S496   O499    1.683   .     S
S496   O497    1.503   .     D
S496   O498    1.500   .     D
O499   H500    0.991   .     S
S501   O502    1.502   .     D
S501   O503    1.502   .     D
S501   O504    1.682   .     S
O504   H505    0.990   .     S
S506   O508    1.502   .     D
S506   O509    1.680   .     S
S506   O507    1.501   .     D
O509   H510    0.991   .     S
C511   O554    1.297   .     A
C511   O551    1.293   .     A
C511   C520    1.455   .     S
C512   O553    1.295   .     A
C512   O552    1.300   .     A
C512   C519    1.466   .     S
C513   C538    1.403   .     A
C513   H543    1.081   .     S
C513   C1457   1.394   1_554 S
C514   H544    1.081   .     S
C514   C537    1.404   .     A
C514   C1458   1.395   .     S
C515   S593    1.783   .     S
C515   C520    1.413   .     A
C516   C519    1.424   .     A
C516   S598    1.788   .     S
C516   C314    1.398   1_655 S
C517   S603    1.784   .     S
C517   C519    1.418   .     A
C517   C311    1.390   1_655 S
C518   S608    1.791   .     S
C518   C520    1.417   .     A
C521   N550    1.367   .     A
C521   H545    1.079   .     S
C522   H546    1.077   .     S
C522   N549    1.367   .     A
C522   C829    1.415   .     S
C523   N550    1.368   .     A
C523   H547    1.079   .     S
C524   N549    1.369   .     A
C524   H548    1.077   .     S
C524   C827    1.415   .     S
C525   O558    1.295   .     A
C525   C530    1.455   .     S
C525   O555    1.294   .     A
C526   O557    1.299   .     A
C526   O556    1.290   .     A
C526   C529    1.455   .     S
C527   C537    1.409   .     A
C527   N559    1.429   .     S
C527   C529    1.408   .     A
C528   C538    1.408   .     A
C528   N565    1.428   .     S
C528   C530    1.407   .     A
C529   C531    1.415   .     A
C530   C532    1.412   .     A
C531   C533    1.414   .     A
C531   S571    1.799   .     S
C532   S576    1.793   .     S
C532   C534    1.414   .     A
C533   C539    1.417   .     A
C533   C535    1.417   .     A
C534   C536    1.417   .     A
C534   C540    1.417   .     A
C535   C537    1.413   .     A
C535   C1454   1.412   .     S
C536   C538    1.413   .     A
C536   C1453   1.412   1_554 S
C539   N581    1.424   .     S
C539   C1431   1.394   .     S
C540   N587    1.426   .     S
C540   C1432   1.395   1_554 S
Cu541  O553    1.976   .     S
Cu541  O557    1.963   .     S
Cu541  Cu542   2.689   .     S
Cu541  O551    1.974   .     S
Cu541  N549    2.021   .     S
Cu541  O555    1.960   .     S
Cu542  O558    1.963   .     S
Cu542  O556    1.960   .     S
Cu542  O554    1.976   .     S
Cu542  N550    2.021   .     S
Cu542  O552    1.974   .     S
N559   C561    1.446   .     S
N559   H560    1.031   .     S
C561   H562    1.110   .     S
C561   H563    1.106   .     S
C561   H564    1.110   .     S
N565   H566    1.030   .     S
N565   C567    1.446   .     S
C567   H569    1.107   .     S
C567   H570    1.111   .     S
C567   H568    1.110   .     S
S571   O573    1.501   .     D
S571   O574    1.679   .     S
S571   O572    1.504   .     D
O574   H575    0.991   .     S
S576   O578    1.501   .     D
S576   O579    1.680   .     S
S576   O577    1.504   .     D
O579   H580    0.990   .     S
N581   H582    1.032   .     S
N581   C583    1.446   .     S
C583   H585    1.110   .     S
C583   H584    1.111   .     S
C583   H586    1.112   .     S
N587   H588    1.032   .     S
N587   C589    1.447   .     S
C589   H591    1.111   .     S
C589   H592    1.111   .     S
C589   H590    1.111   .     S
S593   O594    1.500   .     D
S593   O595    1.502   .     D
S593   O596    1.678   .     S
O596   H597    0.990   .     S
S598   O601    1.683   .     S
S598   O599    1.503   .     D
S598   O600    1.500   .     D
O601   H602    0.991   .     S
S603   O604    1.502   .     D
S603   O605    1.502   .     D
S603   O606    1.682   .     S
O606   H607    0.990   .     S
S608   O610    1.502   .     D
S608   O611    1.680   .     S
S608   O609    1.501   .     D
O611   H612    0.991   .     S
C613   O656    1.297   .     A
C613   O653    1.293   .     A
C613   C622    1.455   .     S
C614   O655    1.295   .     A
C614   O654    1.300   .     A
C614   C621    1.466   .     S
C615   C640    1.403   .     A
C615   H645    1.081   .     S
C615   C1559   1.394   1_554 S
C616   H646    1.081   .     S
C616   C639    1.404   .     A
C616   C1560   1.395   .     S
C617   S695    1.783   .     S
C617   C622    1.413   .     A
C617   C823    1.390   1_455 S
C618   C621    1.424   .     A
C618   S700    1.788   .     S
C618   C722    1.398   .     S
C619   S705    1.784   .     S
C619   C621    1.418   .     A
C619   C719    1.390   .     S
C620   S710    1.791   .     S
C620   C622    1.417   .     A
C620   C822    1.398   1_455 S
C623   N652    1.367   .     A
C623   H647    1.079   .     S
C624   H648    1.077   .     S
C624   N651    1.367   .     A
C624   C13     1.415   1_565 S
C625   N652    1.368   .     A
C625   H649    1.079   .     S
C626   N651    1.369   .     A
C626   H650    1.077   .     S
C626   C11     1.415   1_565 S
C627   O660    1.295   .     A
C627   C632    1.455   .     S
C627   O657    1.294   .     A
C628   O659    1.299   .     A
C628   O658    1.290   .     A
C628   C631    1.455   .     S
C629   C639    1.409   .     A
C629   N661    1.429   .     S
C629   C631    1.408   .     A
C630   C640    1.408   .     A
C630   N667    1.428   .     S
C630   C632    1.407   .     A
C631   C633    1.415   .     A
C632   C634    1.412   .     A
C633   C635    1.414   .     A
C633   S673    1.799   .     S
C634   S678    1.793   .     S
C634   C636    1.414   .     A
C635   C641    1.417   .     A
C635   C637    1.417   .     A
C636   C638    1.417   .     A
C636   C642    1.417   .     A
C637   C639    1.413   .     A
C637   C1556   1.412   .     S
C638   C640    1.413   .     A
C638   C1555   1.412   1_554 S
C641   N683    1.424   .     S
C641   C1533   1.394   .     S
C642   N689    1.426   .     S
C642   C1534   1.395   1_554 S
Cu643  O655    1.976   .     S
Cu643  O659    1.963   .     S
Cu643  Cu644   2.689   .     S
Cu643  O653    1.974   .     S
Cu643  N651    2.021   .     S
Cu643  O657    1.960   .     S
Cu644  O660    1.963   .     S
Cu644  O658    1.960   .     S
Cu644  O656    1.976   .     S
Cu644  N652    2.021   .     S
Cu644  O654    1.974   .     S
N661   C663    1.446   .     S
N661   H662    1.031   .     S
C663   H664    1.110   .     S
C663   H665    1.106   .     S
C663   H666    1.110   .     S
N667   H668    1.030   .     S
N667   C669    1.446   .     S
C669   H671    1.107   .     S
C669   H672    1.111   .     S
C669   H670    1.110   .     S
S673   O675    1.501   .     D
S673   O676    1.679   .     S
S673   O674    1.504   .     D
O676   H677    0.991   .     S
S678   O680    1.501   .     D
S678   O681    1.680   .     S
S678   O679    1.504   .     D
O681   H682    0.990   .     S
N683   H684    1.032   .     S
N683   C685    1.446   .     S
C685   H687    1.110   .     S
C685   H686    1.111   .     S
C685   H688    1.112   .     S
N689   H690    1.032   .     S
N689   C691    1.447   .     S
C691   H693    1.111   .     S
C691   H694    1.111   .     S
C691   H692    1.111   .     S
S695   O696    1.500   .     D
S695   O697    1.502   .     D
S695   O698    1.678   .     S
O698   H699    0.990   .     S
S700   O703    1.683   .     S
S700   O701    1.503   .     D
S700   O702    1.500   .     D
O703   H704    0.991   .     S
S705   O706    1.502   .     D
S705   O707    1.502   .     D
S705   O708    1.682   .     S
O708   H709    0.990   .     S
S710   O712    1.502   .     D
S710   O713    1.680   .     S
S710   O711    1.501   .     D
O713   H714    0.991   .     S
C715   O758    1.297   .     A
C715   O755    1.293   .     A
C715   C724    1.455   .     S
C716   O757    1.295   .     A
C716   O756    1.300   .     A
C716   C723    1.466   .     S
C717   C742    1.403   .     A
C717   H747    1.081   .     S
C717   C1661   1.394   1_554 S
C718   H748    1.081   .     S
C718   C741    1.404   .     A
C718   C1662   1.395   .     S
C719   S797    1.783   .     S
C719   C724    1.413   .     A
C720   C723    1.424   .     A
C720   S802    1.788   .     S
C720   C824    1.398   .     S
C721   S807    1.784   .     S
C721   C723    1.418   .     A
C721   C821    1.390   .     S
C722   S812    1.791   .     S
C722   C724    1.417   .     A
C725   N754    1.367   .     A
C725   H749    1.079   .     S
C726   H750    1.077   .     S
C726   N753    1.367   .     A
C726   C115    1.415   1_565 S
C727   N754    1.368   .     A
C727   H751    1.079   .     S
C728   N753    1.369   .     A
C728   H752    1.077   .     S
C728   C113    1.415   1_565 S
C729   O762    1.295   .     A
C729   C734    1.455   .     S
C729   O759    1.294   .     A
C730   O761    1.299   .     A
C730   O760    1.290   .     A
C730   C733    1.455   .     S
C731   C741    1.409   .     A
C731   N763    1.429   .     S
C731   C733    1.408   .     A
C732   C742    1.408   .     A
C732   N769    1.428   .     S
C732   C734    1.407   .     A
C733   C735    1.415   .     A
C734   C736    1.412   .     A
C735   C737    1.414   .     A
C735   S775    1.799   .     S
C736   S780    1.793   .     S
C736   C738    1.414   .     A
C737   C743    1.417   .     A
C737   C739    1.417   .     A
C738   C740    1.417   .     A
C738   C744    1.417   .     A
C739   C741    1.413   .     A
C739   C1658   1.412   .     S
C740   C742    1.413   .     A
C740   C1657   1.412   1_554 S
C743   N785    1.424   .     S
C743   C1635   1.394   .     S
C744   N791    1.426   .     S
C744   C1636   1.395   1_554 S
Cu745  O757    1.976   .     S
Cu745  O761    1.963   .     S
Cu745  Cu746   2.689   .     S
Cu745  O755    1.974   .     S
Cu745  N753    2.021   .     S
Cu745  O759    1.960   .     S
Cu746  O762    1.963   .     S
Cu746  O760    1.960   .     S
Cu746  O758    1.976   .     S
Cu746  N754    2.021   .     S
Cu746  O756    1.974   .     S
N763   C765    1.446   .     S
N763   H764    1.031   .     S
C765   H766    1.110   .     S
C765   H767    1.106   .     S
C765   H768    1.110   .     S
N769   H770    1.030   .     S
N769   C771    1.446   .     S
C771   H773    1.107   .     S
C771   H774    1.111   .     S
C771   H772    1.110   .     S
S775   O777    1.501   .     D
S775   O778    1.679   .     S
S775   O776    1.504   .     D
O778   H779    0.991   .     S
S780   O782    1.501   .     D
S780   O783    1.680   .     S
S780   O781    1.504   .     D
O783   H784    0.990   .     S
N785   H786    1.032   .     S
N785   C787    1.446   .     S
C787   H789    1.110   .     S
C787   H788    1.111   .     S
C787   H790    1.112   .     S
N791   H792    1.032   .     S
N791   C793    1.447   .     S
C793   H795    1.111   .     S
C793   H796    1.111   .     S
C793   H794    1.111   .     S
S797   O798    1.500   .     D
S797   O799    1.502   .     D
S797   O800    1.678   .     S
O800   H801    0.990   .     S
S802   O805    1.683   .     S
S802   O803    1.503   .     D
S802   O804    1.500   .     D
O805   H806    0.991   .     S
S807   O808    1.502   .     D
S807   O809    1.502   .     D
S807   O810    1.682   .     S
O810   H811    0.990   .     S
S812   O814    1.502   .     D
S812   O815    1.680   .     S
S812   O813    1.501   .     D
O815   H816    0.991   .     S
C817   O860    1.297   .     A
C817   O857    1.293   .     A
C817   C826    1.455   .     S
C818   O859    1.295   .     A
C818   O858    1.300   .     A
C818   C825    1.466   .     S
C819   C844    1.403   .     A
C819   H849    1.081   .     S
C819   C1763   1.394   1_554 S
C820   H850    1.081   .     S
C820   C843    1.404   .     A
C820   C1764   1.395   .     S
C821   S899    1.783   .     S
C821   C826    1.413   .     A
C822   C825    1.424   .     A
C822   S904    1.788   .     S
C822   C620    1.398   1_655 S
C823   S909    1.784   .     S
C823   C825    1.418   .     A
C823   C617    1.390   1_655 S
C824   S914    1.791   .     S
C824   C826    1.417   .     A
C827   N856    1.367   .     A
C827   H851    1.079   .     S
C828   H852    1.077   .     S
C828   N855    1.367   .     A
C828   C217    1.415   1_565 S
C829   N856    1.368   .     A
C829   H853    1.079   .     S
C830   N855    1.369   .     A
C830   H854    1.077   .     S
C830   C215    1.415   1_565 S
C831   O864    1.295   .     A
C831   C836    1.455   .     S
C831   O861    1.294   .     A
C832   O863    1.299   .     A
C832   O862    1.290   .     A
C832   C835    1.455   .     S
C833   C843    1.409   .     A
C833   N865    1.429   .     S
C833   C835    1.408   .     A
C834   C844    1.408   .     A
C834   N871    1.428   .     S
C834   C836    1.407   .     A
C835   C837    1.415   .     A
C836   C838    1.412   .     A
C837   C839    1.414   .     A
C837   S877    1.799   .     S
C838   S882    1.793   .     S
C838   C840    1.414   .     A
C839   C845    1.417   .     A
C839   C841    1.417   .     A
C840   C842    1.417   .     A
C840   C846    1.417   .     A
C841   C843    1.413   .     A
C841   C1760   1.412   .     S
C842   C844    1.413   .     A
C842   C1759   1.412   1_554 S
C845   N887    1.424   .     S
C845   C1737   1.394   .     S
C846   N893    1.426   .     S
C846   C1738   1.395   1_554 S
Cu847  O859    1.976   .     S
Cu847  O863    1.963   .     S
Cu847  Cu848   2.689   .     S
Cu847  O857    1.974   .     S
Cu847  N855    2.021   .     S
Cu847  O861    1.960   .     S
Cu848  O864    1.963   .     S
Cu848  O862    1.960   .     S
Cu848  O860    1.976   .     S
Cu848  N856    2.021   .     S
Cu848  O858    1.974   .     S
N865   C867    1.446   .     S
N865   H866    1.031   .     S
C867   H868    1.110   .     S
C867   H869    1.106   .     S
C867   H870    1.110   .     S
N871   H872    1.030   .     S
N871   C873    1.446   .     S
C873   H875    1.107   .     S
C873   H876    1.111   .     S
C873   H874    1.110   .     S
S877   O879    1.501   .     D
S877   O880    1.679   .     S
S877   O878    1.504   .     D
O880   H881    0.991   .     S
S882   O884    1.501   .     D
S882   O885    1.680   .     S
S882   O883    1.504   .     D
O885   H886    0.990   .     S
N887   H888    1.032   .     S
N887   C889    1.446   .     S
C889   H891    1.110   .     S
C889   H890    1.111   .     S
C889   H892    1.112   .     S
N893   H894    1.032   .     S
N893   C895    1.447   .     S
C895   H897    1.111   .     S
C895   H898    1.111   .     S
C895   H896    1.111   .     S
S899   O900    1.500   .     D
S899   O901    1.502   .     D
S899   O902    1.678   .     S
O902   H903    0.990   .     S
S904   O907    1.683   .     S
S904   O905    1.503   .     D
S904   O906    1.500   .     D
O907   H908    0.991   .     S
S909   O910    1.502   .     D
S909   O911    1.502   .     D
S909   O912    1.682   .     S
O912   H913    0.990   .     S
S914   O916    1.502   .     D
S914   O917    1.680   .     S
S914   O915    1.501   .     D
O917   H918    0.991   .     S
C919   O962    1.297   .     A
C919   O959    1.293   .     A
C919   C928    1.455   .     S
C920   O961    1.295   .     A
C920   O960    1.300   .     A
C920   C927    1.466   .     S
C921   C946    1.403   .     A
C921   H951    1.081   .     S
C922   H952    1.081   .     S
C922   C945    1.404   .     A
C922   C30     1.395   1_556 S
C923   S1001   1.783   .     S
C923   C928    1.413   .     A
C923   C1129   1.390   1_455 S
C924   C927    1.424   .     A
C924   S1006   1.788   .     S
C924   C1028   1.398   .     S
C925   S1011   1.784   .     S
C925   C927    1.418   .     A
C925   C1025   1.390   .     S
C926   S1016   1.791   .     S
C926   C928    1.417   .     A
C926   C1128   1.398   1_455 S
C929   N958    1.367   .     A
C929   H953    1.079   .     S
C929   C1544   1.415   1_545 S
C930   H954    1.077   .     S
C930   N957    1.367   .     A
C930   C1237   1.415   .     S
C931   N958    1.368   .     A
C931   H955    1.079   .     S
C931   C1542   1.415   1_545 S
C932   N957    1.369   .     A
C932   H956    1.077   .     S
C932   C1235   1.415   .     S
C933   O966    1.295   .     A
C933   C938    1.455   .     S
C933   O963    1.294   .     A
C934   O965    1.299   .     A
C934   O964    1.290   .     A
C934   C937    1.455   .     S
C935   C945    1.409   .     A
C935   N967    1.429   .     S
C935   C937    1.408   .     A
C936   C946    1.408   .     A
C936   N973    1.428   .     S
C936   C938    1.407   .     A
C937   C939    1.415   .     A
C938   C940    1.412   .     A
C939   C941    1.414   .     A
C939   S979    1.799   .     S
C940   S984    1.793   .     S
C940   C942    1.414   .     A
C941   C947    1.417   .     A
C941   C943    1.417   .     A
C942   C944    1.417   .     A
C942   C948    1.417   .     A
C943   C945    1.413   .     A
C943   C26     1.412   1_556 S
C944   C946    1.413   .     A
C947   N989    1.424   .     S
C947   C3      1.394   1_556 S
C948   N995    1.426   .     S
Cu949  O961    1.976   .     S
Cu949  O965    1.963   .     S
Cu949  Cu950   2.689   .     S
Cu949  O959    1.974   .     S
Cu949  N957    2.021   .     S
Cu949  O963    1.960   .     S
Cu950  O966    1.963   .     S
Cu950  O964    1.960   .     S
Cu950  O962    1.976   .     S
Cu950  N958    2.021   .     S
Cu950  O960    1.974   .     S
N967   C969    1.446   .     S
N967   H968    1.031   .     S
C969   H970    1.110   .     S
C969   H971    1.106   .     S
C969   H972    1.110   .     S
N973   H974    1.030   .     S
N973   C975    1.446   .     S
C975   H977    1.107   .     S
C975   H978    1.111   .     S
C975   H976    1.110   .     S
S979   O981    1.501   .     D
S979   O982    1.679   .     S
S979   O980    1.504   .     D
O982   H983    0.991   .     S
S984   O986    1.501   .     D
S984   O987    1.680   .     S
S984   O985    1.504   .     D
O987   H988    0.990   .     S
N989   H990    1.032   .     S
N989   C991    1.446   .     S
C991   H993    1.110   .     S
C991   H992    1.111   .     S
C991   H994    1.112   .     S
N995   H996    1.032   .     S
N995   C997    1.447   .     S
C997   H999    1.111   .     S
C997   H1000   1.111   .     S
C997   H998    1.111   .     S
S1001  O1002   1.500   .     D
S1001  O1003   1.502   .     D
S1001  O1004   1.678   .     S
O1004  H1005   0.990   .     S
S1006  O1009   1.683   .     S
S1006  O1007   1.503   .     D
S1006  O1008   1.500   .     D
O1009  H1010   0.991   .     S
S1011  O1012   1.502   .     D
S1011  O1013   1.502   .     D
S1011  O1014   1.682   .     S
O1014  H1015   0.990   .     S
S1016  O1018   1.502   .     D
S1016  O1019   1.680   .     S
S1016  O1017   1.501   .     D
O1019  H1020   0.991   .     S
C1021  O1064   1.297   .     A
C1021  O1061   1.293   .     A
C1021  C1030   1.455   .     S
C1022  O1063   1.295   .     A
C1022  O1062   1.300   .     A
C1022  C1029   1.466   .     S
C1023  C1048   1.403   .     A
C1023  H1053   1.081   .     S
C1024  H1054   1.081   .     S
C1024  C1047   1.404   .     A
C1024  C132    1.395   1_556 S
C1025  S1103   1.783   .     S
C1025  C1030   1.413   .     A
C1026  C1029   1.424   .     A
C1026  S1108   1.788   .     S
C1026  C1130   1.398   .     S
C1027  S1113   1.784   .     S
C1027  C1029   1.418   .     A
C1027  C1127   1.390   .     S
C1028  S1118   1.791   .     S
C1028  C1030   1.417   .     A
C1031  N1060   1.367   .     A
C1031  H1055   1.079   .     S
C1031  C1646   1.415   1_545 S
C1032  H1056   1.077   .     S
C1032  N1059   1.367   .     A
C1032  C1339   1.415   .     S
C1033  N1060   1.368   .     A
C1033  H1057   1.079   .     S
C1033  C1644   1.415   1_545 S
C1034  N1059   1.369   .     A
C1034  H1058   1.077   .     S
C1034  C1337   1.415   .     S
C1035  O1068   1.295   .     A
C1035  C1040   1.455   .     S
C1035  O1065   1.294   .     A
C1036  O1067   1.299   .     A
C1036  O1066   1.290   .     A
C1036  C1039   1.455   .     S
C1037  C1047   1.409   .     A
C1037  N1069   1.429   .     S
C1037  C1039   1.408   .     A
C1038  C1048   1.408   .     A
C1038  N1075   1.428   .     S
C1038  C1040   1.407   .     A
C1039  C1041   1.415   .     A
C1040  C1042   1.412   .     A
C1041  C1043   1.414   .     A
C1041  S1081   1.799   .     S
C1042  S1086   1.793   .     S
C1042  C1044   1.414   .     A
C1043  C1049   1.417   .     A
C1043  C1045   1.417   .     A
C1044  C1046   1.417   .     A
C1044  C1050   1.417   .     A
C1045  C1047   1.413   .     A
C1045  C128    1.412   1_556 S
C1046  C1048   1.413   .     A
C1049  N1091   1.424   .     S
C1049  C105    1.394   1_556 S
C1050  N1097   1.426   .     S
Cu1051 O1063   1.976   .     S
Cu1051 O1067   1.963   .     S
Cu1051 Cu1052  2.689   .     S
Cu1051 O1061   1.974   .     S
Cu1051 N1059   2.021   .     S
Cu1051 O1065   1.960   .     S
Cu1052 O1068   1.963   .     S
Cu1052 O1066   1.960   .     S
Cu1052 O1064   1.976   .     S
Cu1052 N1060   2.021   .     S
Cu1052 O1062   1.974   .     S
N1069  C1071   1.446   .     S
N1069  H1070   1.031   .     S
C1071  H1072   1.110   .     S
C1071  H1073   1.106   .     S
C1071  H1074   1.110   .     S
N1075  H1076   1.030   .     S
N1075  C1077   1.446   .     S
C1077  H1079   1.107   .     S
C1077  H1080   1.111   .     S
C1077  H1078   1.110   .     S
S1081  O1083   1.501   .     D
S1081  O1084   1.679   .     S
S1081  O1082   1.504   .     D
O1084  H1085   0.991   .     S
S1086  O1088   1.501   .     D
S1086  O1089   1.680   .     S
S1086  O1087   1.504   .     D
O1089  H1090   0.990   .     S
N1091  H1092   1.032   .     S
N1091  C1093   1.446   .     S
C1093  H1095   1.110   .     S
C1093  H1094   1.111   .     S
C1093  H1096   1.112   .     S
N1097  H1098   1.032   .     S
N1097  C1099   1.447   .     S
C1099  H1101   1.111   .     S
C1099  H1102   1.111   .     S
C1099  H1100   1.111   .     S
S1103  O1104   1.500   .     D
S1103  O1105   1.502   .     D
S1103  O1106   1.678   .     S
O1106  H1107   0.990   .     S
S1108  O1111   1.683   .     S
S1108  O1109   1.503   .     D
S1108  O1110   1.500   .     D
O1111  H1112   0.991   .     S
S1113  O1114   1.502   .     D
S1113  O1115   1.502   .     D
S1113  O1116   1.682   .     S
O1116  H1117   0.990   .     S
S1118  O1120   1.502   .     D
S1118  O1121   1.680   .     S
S1118  O1119   1.501   .     D
O1121  H1122   0.991   .     S
C1123  O1166   1.297   .     A
C1123  O1163   1.293   .     A
C1123  C1132   1.455   .     S
C1124  O1165   1.295   .     A
C1124  O1164   1.300   .     A
C1124  C1131   1.466   .     S
C1125  C1150   1.403   .     A
C1125  H1155   1.081   .     S
C1126  H1156   1.081   .     S
C1126  C1149   1.404   .     A
C1126  C234    1.395   1_556 S
C1127  S1205   1.783   .     S
C1127  C1132   1.413   .     A
C1128  C1131   1.424   .     A
C1128  S1210   1.788   .     S
C1128  C926    1.398   1_655 S
C1129  S1215   1.784   .     S
C1129  C1131   1.418   .     A
C1129  C923    1.390   1_655 S
C1130  S1220   1.791   .     S
C1130  C1132   1.417   .     A
C1133  N1162   1.367   .     A
C1133  H1157   1.079   .     S
C1133  C1748   1.415   1_545 S
C1134  H1158   1.077   .     S
C1134  N1161   1.367   .     A
C1134  C1441   1.415   .     S
C1135  N1162   1.368   .     A
C1135  H1159   1.079   .     S
C1135  C1746   1.415   1_545 S
C1136  N1161   1.369   .     A
C1136  H1160   1.077   .     S
C1136  C1439   1.415   .     S
C1137  O1170   1.295   .     A
C1137  C1142   1.455   .     S
C1137  O1167   1.294   .     A
C1138  O1169   1.299   .     A
C1138  O1168   1.290   .     A
C1138  C1141   1.455   .     S
C1139  C1149   1.409   .     A
C1139  N1171   1.429   .     S
C1139  C1141   1.408   .     A
C1140  C1150   1.408   .     A
C1140  N1177   1.428   .     S
C1140  C1142   1.407   .     A
C1141  C1143   1.415   .     A
C1142  C1144   1.412   .     A
C1143  C1145   1.414   .     A
C1143  S1183   1.799   .     S
C1144  S1188   1.793   .     S
C1144  C1146   1.414   .     A
C1145  C1151   1.417   .     A
C1145  C1147   1.417   .     A
C1146  C1148   1.417   .     A
C1146  C1152   1.417   .     A
C1147  C1149   1.413   .     A
C1147  C230    1.412   1_556 S
C1148  C1150   1.413   .     A
C1151  N1193   1.424   .     S
C1151  C207    1.394   1_556 S
C1152  N1199   1.426   .     S
Cu1153 O1165   1.976   .     S
Cu1153 O1169   1.963   .     S
Cu1153 Cu1154  2.689   .     S
Cu1153 O1163   1.974   .     S
Cu1153 N1161   2.021   .     S
Cu1153 O1167   1.960   .     S
Cu1154 O1170   1.963   .     S
Cu1154 O1168   1.960   .     S
Cu1154 O1166   1.976   .     S
Cu1154 N1162   2.021   .     S
Cu1154 O1164   1.974   .     S
N1171  C1173   1.446   .     S
N1171  H1172   1.031   .     S
C1173  H1174   1.110   .     S
C1173  H1175   1.106   .     S
C1173  H1176   1.110   .     S
N1177  H1178   1.030   .     S
N1177  C1179   1.446   .     S
C1179  H1181   1.107   .     S
C1179  H1182   1.111   .     S
C1179  H1180   1.110   .     S
S1183  O1185   1.501   .     D
S1183  O1186   1.679   .     S
S1183  O1184   1.504   .     D
O1186  H1187   0.991   .     S
S1188  O1190   1.501   .     D
S1188  O1191   1.680   .     S
S1188  O1189   1.504   .     D
O1191  H1192   0.990   .     S
N1193  H1194   1.032   .     S
N1193  C1195   1.446   .     S
C1195  H1197   1.110   .     S
C1195  H1196   1.111   .     S
C1195  H1198   1.112   .     S
N1199  H1200   1.032   .     S
N1199  C1201   1.447   .     S
C1201  H1203   1.111   .     S
C1201  H1204   1.111   .     S
C1201  H1202   1.111   .     S
S1205  O1206   1.500   .     D
S1205  O1207   1.502   .     D
S1205  O1208   1.678   .     S
O1208  H1209   0.990   .     S
S1210  O1213   1.683   .     S
S1210  O1211   1.503   .     D
S1210  O1212   1.500   .     D
O1213  H1214   0.991   .     S
S1215  O1216   1.502   .     D
S1215  O1217   1.502   .     D
S1215  O1218   1.682   .     S
O1218  H1219   0.990   .     S
S1220  O1222   1.502   .     D
S1220  O1223   1.680   .     S
S1220  O1221   1.501   .     D
O1223  H1224   0.991   .     S
C1225  O1268   1.297   .     A
C1225  O1265   1.293   .     A
C1225  C1234   1.455   .     S
C1226  O1267   1.295   .     A
C1226  O1266   1.300   .     A
C1226  C1233   1.466   .     S
C1227  C1252   1.403   .     A
C1227  H1257   1.081   .     S
C1228  H1258   1.081   .     S
C1228  C1251   1.404   .     A
C1228  C336    1.395   1_556 S
C1229  S1307   1.783   .     S
C1229  C1234   1.413   .     A
C1229  C1435   1.390   1_455 S
C1230  C1233   1.424   .     A
C1230  S1312   1.788   .     S
C1230  C1334   1.398   .     S
C1231  S1317   1.784   .     S
C1231  C1233   1.418   .     A
C1231  C1331   1.390   .     S
C1232  S1322   1.791   .     S
C1232  C1234   1.417   .     A
C1232  C1434   1.398   1_455 S
C1235  N1264   1.367   .     A
C1235  H1259   1.079   .     S
C1236  H1260   1.077   .     S
C1236  N1263   1.367   .     A
C1236  C1543   1.415   .     S
C1237  N1264   1.368   .     A
C1237  H1261   1.079   .     S
C1238  N1263   1.369   .     A
C1238  H1262   1.077   .     S
C1238  C1541   1.415   .     S
C1239  O1272   1.295   .     A
C1239  C1244   1.455   .     S
C1239  O1269   1.294   .     A
C1240  O1271   1.299   .     A
C1240  O1270   1.290   .     A
C1240  C1243   1.455   .     S
C1241  C1251   1.409   .     A
C1241  N1273   1.429   .     S
C1241  C1243   1.408   .     A
C1242  C1252   1.408   .     A
C1242  N1279   1.428   .     S
C1242  C1244   1.407   .     A
C1243  C1245   1.415   .     A
C1244  C1246   1.412   .     A
C1245  C1247   1.414   .     A
C1245  S1285   1.799   .     S
C1246  S1290   1.793   .     S
C1246  C1248   1.414   .     A
C1247  C1253   1.417   .     A
C1247  C1249   1.417   .     A
C1248  C1250   1.417   .     A
C1248  C1254   1.417   .     A
C1249  C1251   1.413   .     A
C1249  C332    1.412   1_556 S
C1250  C1252   1.413   .     A
C1253  N1295   1.424   .     S
C1253  C309    1.394   1_556 S
C1254  N1301   1.426   .     S
Cu1255 O1267   1.976   .     S
Cu1255 O1271   1.963   .     S
Cu1255 Cu1256  2.689   .     S
Cu1255 O1265   1.974   .     S
Cu1255 N1263   2.021   .     S
Cu1255 O1269   1.960   .     S
Cu1256 O1272   1.963   .     S
Cu1256 O1270   1.960   .     S
Cu1256 O1268   1.976   .     S
Cu1256 N1264   2.021   .     S
Cu1256 O1266   1.974   .     S
N1273  C1275   1.446   .     S
N1273  H1274   1.031   .     S
C1275  H1276   1.110   .     S
C1275  H1277   1.106   .     S
C1275  H1278   1.110   .     S
N1279  H1280   1.030   .     S
N1279  C1281   1.446   .     S
C1281  H1283   1.107   .     S
C1281  H1284   1.111   .     S
C1281  H1282   1.110   .     S
S1285  O1287   1.501   .     D
S1285  O1288   1.679   .     S
S1285  O1286   1.504   .     D
O1288  H1289   0.991   .     S
S1290  O1292   1.501   .     D
S1290  O1293   1.680   .     S
S1290  O1291   1.504   .     D
O1293  H1294   0.990   .     S
N1295  H1296   1.032   .     S
N1295  C1297   1.446   .     S
C1297  H1299   1.110   .     S
C1297  H1298   1.111   .     S
C1297  H1300   1.112   .     S
N1301  H1302   1.032   .     S
N1301  C1303   1.447   .     S
C1303  H1305   1.111   .     S
C1303  H1306   1.111   .     S
C1303  H1304   1.111   .     S
S1307  O1308   1.500   .     D
S1307  O1309   1.502   .     D
S1307  O1310   1.678   .     S
O1310  H1311   0.990   .     S
S1312  O1315   1.683   .     S
S1312  O1313   1.503   .     D
S1312  O1314   1.500   .     D
O1315  H1316   0.991   .     S
S1317  O1318   1.502   .     D
S1317  O1319   1.502   .     D
S1317  O1320   1.682   .     S
O1320  H1321   0.990   .     S
S1322  O1324   1.502   .     D
S1322  O1325   1.680   .     S
S1322  O1323   1.501   .     D
O1325  H1326   0.991   .     S
C1327  O1370   1.297   .     A
C1327  O1367   1.293   .     A
C1327  C1336   1.455   .     S
C1328  O1369   1.295   .     A
C1328  O1368   1.300   .     A
C1328  C1335   1.466   .     S
C1329  C1354   1.403   .     A
C1329  H1359   1.081   .     S
C1330  H1360   1.081   .     S
C1330  C1353   1.404   .     A
C1330  C438    1.395   1_556 S
C1331  S1409   1.783   .     S
C1331  C1336   1.413   .     A
C1332  C1335   1.424   .     A
C1332  S1414   1.788   .     S
C1332  C1436   1.398   .     S
C1333  S1419   1.784   .     S
C1333  C1335   1.418   .     A
C1333  C1433   1.390   .     S
C1334  S1424   1.791   .     S
C1334  C1336   1.417   .     A
C1337  N1366   1.367   .     A
C1337  H1361   1.079   .     S
C1338  H1362   1.077   .     S
C1338  N1365   1.367   .     A
C1338  C1645   1.415   .     S
C1339  N1366   1.368   .     A
C1339  H1363   1.079   .     S
C1340  N1365   1.369   .     A
C1340  H1364   1.077   .     S
C1340  C1643   1.415   .     S
C1341  O1374   1.295   .     A
C1341  C1346   1.455   .     S
C1341  O1371   1.294   .     A
C1342  O1373   1.299   .     A
C1342  O1372   1.290   .     A
C1342  C1345   1.455   .     S
C1343  C1353   1.409   .     A
C1343  N1375   1.429   .     S
C1343  C1345   1.408   .     A
C1344  C1354   1.408   .     A
C1344  N1381   1.428   .     S
C1344  C1346   1.407   .     A
C1345  C1347   1.415   .     A
C1346  C1348   1.412   .     A
C1347  C1349   1.414   .     A
C1347  S1387   1.799   .     S
C1348  S1392   1.793   .     S
C1348  C1350   1.414   .     A
C1349  C1355   1.417   .     A
C1349  C1351   1.417   .     A
C1350  C1352   1.417   .     A
C1350  C1356   1.417   .     A
C1351  C1353   1.413   .     A
C1351  C434    1.412   1_556 S
C1352  C1354   1.413   .     A
C1355  N1397   1.424   .     S
C1355  C411    1.394   1_556 S
C1356  N1403   1.426   .     S
Cu1357 O1369   1.976   .     S
Cu1357 O1373   1.963   .     S
Cu1357 Cu1358  2.689   .     S
Cu1357 O1367   1.974   .     S
Cu1357 N1365   2.021   .     S
Cu1357 O1371   1.960   .     S
Cu1358 O1374   1.963   .     S
Cu1358 O1372   1.960   .     S
Cu1358 O1370   1.976   .     S
Cu1358 N1366   2.021   .     S
Cu1358 O1368   1.974   .     S
N1375  C1377   1.446   .     S
N1375  H1376   1.031   .     S
C1377  H1378   1.110   .     S
C1377  H1379   1.106   .     S
C1377  H1380   1.110   .     S
N1381  H1382   1.030   .     S
N1381  C1383   1.446   .     S
C1383  H1385   1.107   .     S
C1383  H1386   1.111   .     S
C1383  H1384   1.110   .     S
S1387  O1389   1.501   .     D
S1387  O1390   1.679   .     S
S1387  O1388   1.504   .     D
O1390  H1391   0.991   .     S
S1392  O1394   1.501   .     D
S1392  O1395   1.680   .     S
S1392  O1393   1.504   .     D
O1395  H1396   0.990   .     S
N1397  H1398   1.032   .     S
N1397  C1399   1.446   .     S
C1399  H1401   1.110   .     S
C1399  H1400   1.111   .     S
C1399  H1402   1.112   .     S
N1403  H1404   1.032   .     S
N1403  C1405   1.447   .     S
C1405  H1407   1.111   .     S
C1405  H1408   1.111   .     S
C1405  H1406   1.111   .     S
S1409  O1410   1.500   .     D
S1409  O1411   1.502   .     D
S1409  O1412   1.678   .     S
O1412  H1413   0.990   .     S
S1414  O1417   1.683   .     S
S1414  O1415   1.503   .     D
S1414  O1416   1.500   .     D
O1417  H1418   0.991   .     S
S1419  O1420   1.502   .     D
S1419  O1421   1.502   .     D
S1419  O1422   1.682   .     S
O1422  H1423   0.990   .     S
S1424  O1426   1.502   .     D
S1424  O1427   1.680   .     S
S1424  O1425   1.501   .     D
O1427  H1428   0.991   .     S
C1429  O1472   1.297   .     A
C1429  O1469   1.293   .     A
C1429  C1438   1.455   .     S
C1430  O1471   1.295   .     A
C1430  O1470   1.300   .     A
C1430  C1437   1.466   .     S
C1431  C1456   1.403   .     A
C1431  H1461   1.081   .     S
C1432  H1462   1.081   .     S
C1432  C1455   1.404   .     A
C1432  C540    1.395   1_556 S
C1433  S1511   1.783   .     S
C1433  C1438   1.413   .     A
C1434  C1437   1.424   .     A
C1434  S1516   1.788   .     S
C1434  C1232   1.398   1_655 S
C1435  S1521   1.784   .     S
C1435  C1437   1.418   .     A
C1435  C1229   1.390   1_655 S
C1436  S1526   1.791   .     S
C1436  C1438   1.417   .     A
C1439  N1468   1.367   .     A
C1439  H1463   1.079   .     S
C1440  H1464   1.077   .     S
C1440  N1467   1.367   .     A
C1440  C1747   1.415   .     S
C1441  N1468   1.368   .     A
C1441  H1465   1.079   .     S
C1442  N1467   1.369   .     A
C1442  H1466   1.077   .     S
C1442  C1745   1.415   .     S
C1443  O1476   1.295   .     A
C1443  C1448   1.455   .     S
C1443  O1473   1.294   .     A
C1444  O1475   1.299   .     A
C1444  O1474   1.290   .     A
C1444  C1447   1.455   .     S
C1445  C1455   1.409   .     A
C1445  N1477   1.429   .     S
C1445  C1447   1.408   .     A
C1446  C1456   1.408   .     A
C1446  N1483   1.428   .     S
C1446  C1448   1.407   .     A
C1447  C1449   1.415   .     A
C1448  C1450   1.412   .     A
C1449  C1451   1.414   .     A
C1449  S1489   1.799   .     S
C1450  S1494   1.793   .     S
C1450  C1452   1.414   .     A
C1451  C1457   1.417   .     A
C1451  C1453   1.417   .     A
C1452  C1454   1.417   .     A
C1452  C1458   1.417   .     A
C1453  C1455   1.413   .     A
C1453  C536    1.412   1_556 S
C1454  C1456   1.413   .     A
C1457  N1499   1.424   .     S
C1457  C513    1.394   1_556 S
C1458  N1505   1.426   .     S
Cu1459 O1471   1.976   .     S
Cu1459 O1475   1.963   .     S
Cu1459 Cu1460  2.689   .     S
Cu1459 O1469   1.974   .     S
Cu1459 N1467   2.021   .     S
Cu1459 O1473   1.960   .     S
Cu1460 O1476   1.963   .     S
Cu1460 O1474   1.960   .     S
Cu1460 O1472   1.976   .     S
Cu1460 N1468   2.021   .     S
Cu1460 O1470   1.974   .     S
N1477  C1479   1.446   .     S
N1477  H1478   1.031   .     S
C1479  H1480   1.110   .     S
C1479  H1481   1.106   .     S
C1479  H1482   1.110   .     S
N1483  H1484   1.030   .     S
N1483  C1485   1.446   .     S
C1485  H1487   1.107   .     S
C1485  H1488   1.111   .     S
C1485  H1486   1.110   .     S
S1489  O1491   1.501   .     D
S1489  O1492   1.679   .     S
S1489  O1490   1.504   .     D
O1492  H1493   0.991   .     S
S1494  O1496   1.501   .     D
S1494  O1497   1.680   .     S
S1494  O1495   1.504   .     D
O1497  H1498   0.990   .     S
N1499  H1500   1.032   .     S
N1499  C1501   1.446   .     S
C1501  H1503   1.110   .     S
C1501  H1502   1.111   .     S
C1501  H1504   1.112   .     S
N1505  H1506   1.032   .     S
N1505  C1507   1.447   .     S
C1507  H1509   1.111   .     S
C1507  H1510   1.111   .     S
C1507  H1508   1.111   .     S
S1511  O1512   1.500   .     D
S1511  O1513   1.502   .     D
S1511  O1514   1.678   .     S
O1514  H1515   0.990   .     S
S1516  O1519   1.683   .     S
S1516  O1517   1.503   .     D
S1516  O1518   1.500   .     D
O1519  H1520   0.991   .     S
S1521  O1522   1.502   .     D
S1521  O1523   1.502   .     D
S1521  O1524   1.682   .     S
O1524  H1525   0.990   .     S
S1526  O1528   1.502   .     D
S1526  O1529   1.680   .     S
S1526  O1527   1.501   .     D
O1529  H1530   0.991   .     S
C1531  O1574   1.297   .     A
C1531  O1571   1.293   .     A
C1531  C1540   1.455   .     S
C1532  O1573   1.295   .     A
C1532  O1572   1.300   .     A
C1532  C1539   1.466   .     S
C1533  C1558   1.403   .     A
C1533  H1563   1.081   .     S
C1534  H1564   1.081   .     S
C1534  C1557   1.404   .     A
C1534  C642    1.395   1_556 S
C1535  S1613   1.783   .     S
C1535  C1540   1.413   .     A
C1535  C1741   1.390   1_455 S
C1536  C1539   1.424   .     A
C1536  S1618   1.788   .     S
C1536  C1640   1.398   .     S
C1537  S1623   1.784   .     S
C1537  C1539   1.418   .     A
C1537  C1637   1.390   .     S
C1538  S1628   1.791   .     S
C1538  C1540   1.417   .     A
C1538  C1740   1.398   1_455 S
C1541  N1570   1.367   .     A
C1541  H1565   1.079   .     S
C1542  H1566   1.077   .     S
C1542  N1569   1.367   .     A
C1542  C931    1.415   1_565 S
C1543  N1570   1.368   .     A
C1543  H1567   1.079   .     S
C1544  N1569   1.369   .     A
C1544  H1568   1.077   .     S
C1544  C929    1.415   1_565 S
C1545  O1578   1.295   .     A
C1545  C1550   1.455   .     S
C1545  O1575   1.294   .     A
C1546  O1577   1.299   .     A
C1546  O1576   1.290   .     A
C1546  C1549   1.455   .     S
C1547  C1557   1.409   .     A
C1547  N1579   1.429   .     S
C1547  C1549   1.408   .     A
C1548  C1558   1.408   .     A
C1548  N1585   1.428   .     S
C1548  C1550   1.407   .     A
C1549  C1551   1.415   .     A
C1550  C1552   1.412   .     A
C1551  C1553   1.414   .     A
C1551  S1591   1.799   .     S
C1552  S1596   1.793   .     S
C1552  C1554   1.414   .     A
C1553  C1559   1.417   .     A
C1553  C1555   1.417   .     A
C1554  C1556   1.417   .     A
C1554  C1560   1.417   .     A
C1555  C1557   1.413   .     A
C1555  C638    1.412   1_556 S
C1556  C1558   1.413   .     A
C1559  N1601   1.424   .     S
C1559  C615    1.394   1_556 S
C1560  N1607   1.426   .     S
Cu1561 O1573   1.976   .     S
Cu1561 O1577   1.963   .     S
Cu1561 Cu1562  2.689   .     S
Cu1561 O1571   1.974   .     S
Cu1561 N1569   2.021   .     S
Cu1561 O1575   1.960   .     S
Cu1562 O1578   1.963   .     S
Cu1562 O1576   1.960   .     S
Cu1562 O1574   1.976   .     S
Cu1562 N1570   2.021   .     S
Cu1562 O1572   1.974   .     S
N1579  C1581   1.446   .     S
N1579  H1580   1.031   .     S
C1581  H1582   1.110   .     S
C1581  H1583   1.106   .     S
C1581  H1584   1.110   .     S
N1585  H1586   1.030   .     S
N1585  C1587   1.446   .     S
C1587  H1589   1.107   .     S
C1587  H1590   1.111   .     S
C1587  H1588   1.110   .     S
S1591  O1593   1.501   .     D
S1591  O1594   1.679   .     S
S1591  O1592   1.504   .     D
O1594  H1595   0.991   .     S
S1596  O1598   1.501   .     D
S1596  O1599   1.680   .     S
S1596  O1597   1.504   .     D
O1599  H1600   0.990   .     S
N1601  H1602   1.032   .     S
N1601  C1603   1.446   .     S
C1603  H1605   1.110   .     S
C1603  H1604   1.111   .     S
C1603  H1606   1.112   .     S
N1607  H1608   1.032   .     S
N1607  C1609   1.447   .     S
C1609  H1611   1.111   .     S
C1609  H1612   1.111   .     S
C1609  H1610   1.111   .     S
S1613  O1614   1.500   .     D
S1613  O1615   1.502   .     D
S1613  O1616   1.678   .     S
O1616  H1617   0.990   .     S
S1618  O1621   1.683   .     S
S1618  O1619   1.503   .     D
S1618  O1620   1.500   .     D
O1621  H1622   0.991   .     S
S1623  O1624   1.502   .     D
S1623  O1625   1.502   .     D
S1623  O1626   1.682   .     S
O1626  H1627   0.990   .     S
S1628  O1630   1.502   .     D
S1628  O1631   1.680   .     S
S1628  O1629   1.501   .     D
O1631  H1632   0.991   .     S
C1633  O1676   1.297   .     A
C1633  O1673   1.293   .     A
C1633  C1642   1.455   .     S
C1634  O1675   1.295   .     A
C1634  O1674   1.300   .     A
C1634  C1641   1.466   .     S
C1635  C1660   1.403   .     A
C1635  H1665   1.081   .     S
C1636  H1666   1.081   .     S
C1636  C1659   1.404   .     A
C1636  C744    1.395   1_556 S
C1637  S1715   1.783   .     S
C1637  C1642   1.413   .     A
C1638  C1641   1.424   .     A
C1638  S1720   1.788   .     S
C1638  C1742   1.398   .     S
C1639  S1725   1.784   .     S
C1639  C1641   1.418   .     A
C1639  C1739   1.390   .     S
C1640  S1730   1.791   .     S
C1640  C1642   1.417   .     A
C1643  N1672   1.367   .     A
C1643  H1667   1.079   .     S
C1644  H1668   1.077   .     S
C1644  N1671   1.367   .     A
C1644  C1033   1.415   1_565 S
C1645  N1672   1.368   .     A
C1645  H1669   1.079   .     S
C1646  N1671   1.369   .     A
C1646  H1670   1.077   .     S
C1646  C1031   1.415   1_565 S
C1647  O1680   1.295   .     A
C1647  C1652   1.455   .     S
C1647  O1677   1.294   .     A
C1648  O1679   1.299   .     A
C1648  O1678   1.290   .     A
C1648  C1651   1.455   .     S
C1649  C1659   1.409   .     A
C1649  N1681   1.429   .     S
C1649  C1651   1.408   .     A
C1650  C1660   1.408   .     A
C1650  N1687   1.428   .     S
C1650  C1652   1.407   .     A
C1651  C1653   1.415   .     A
C1652  C1654   1.412   .     A
C1653  C1655   1.414   .     A
C1653  S1693   1.799   .     S
C1654  S1698   1.793   .     S
C1654  C1656   1.414   .     A
C1655  C1661   1.417   .     A
C1655  C1657   1.417   .     A
C1656  C1658   1.417   .     A
C1656  C1662   1.417   .     A
C1657  C1659   1.413   .     A
C1657  C740    1.412   1_556 S
C1658  C1660   1.413   .     A
C1661  N1703   1.424   .     S
C1661  C717    1.394   1_556 S
C1662  N1709   1.426   .     S
Cu1663 O1675   1.976   .     S
Cu1663 O1679   1.963   .     S
Cu1663 Cu1664  2.689   .     S
Cu1663 O1673   1.974   .     S
Cu1663 N1671   2.021   .     S
Cu1663 O1677   1.960   .     S
Cu1664 O1680   1.963   .     S
Cu1664 O1678   1.960   .     S
Cu1664 O1676   1.976   .     S
Cu1664 N1672   2.021   .     S
Cu1664 O1674   1.974   .     S
N1681  C1683   1.446   .     S
N1681  H1682   1.031   .     S
C1683  H1684   1.110   .     S
C1683  H1685   1.106   .     S
C1683  H1686   1.110   .     S
N1687  H1688   1.030   .     S
N1687  C1689   1.446   .     S
C1689  H1691   1.107   .     S
C1689  H1692   1.111   .     S
C1689  H1690   1.110   .     S
S1693  O1695   1.501   .     D
S1693  O1696   1.679   .     S
S1693  O1694   1.504   .     D
O1696  H1697   0.991   .     S
S1698  O1700   1.501   .     D
S1698  O1701   1.680   .     S
S1698  O1699   1.504   .     D
O1701  H1702   0.990   .     S
N1703  H1704   1.032   .     S
N1703  C1705   1.446   .     S
C1705  H1707   1.110   .     S
C1705  H1706   1.111   .     S
C1705  H1708   1.112   .     S
N1709  H1710   1.032   .     S
N1709  C1711   1.447   .     S
C1711  H1713   1.111   .     S
C1711  H1714   1.111   .     S
C1711  H1712   1.111   .     S
S1715  O1716   1.500   .     D
S1715  O1717   1.502   .     D
S1715  O1718   1.678   .     S
O1718  H1719   0.990   .     S
S1720  O1723   1.683   .     S
S1720  O1721   1.503   .     D
S1720  O1722   1.500   .     D
O1723  H1724   0.991   .     S
S1725  O1726   1.502   .     D
S1725  O1727   1.502   .     D
S1725  O1728   1.682   .     S
O1728  H1729   0.990   .     S
S1730  O1732   1.502   .     D
S1730  O1733   1.680   .     S
S1730  O1731   1.501   .     D
O1733  H1734   0.991   .     S
C1735  O1778   1.297   .     A
C1735  O1775   1.293   .     A
C1735  C1744   1.455   .     S
C1736  O1777   1.295   .     A
C1736  O1776   1.300   .     A
C1736  C1743   1.466   .     S
C1737  C1762   1.403   .     A
C1737  H1767   1.081   .     S
C1738  H1768   1.081   .     S
C1738  C1761   1.404   .     A
C1738  C846    1.395   1_556 S
C1739  S1817   1.783   .     S
C1739  C1744   1.413   .     A
C1740  C1743   1.424   .     A
C1740  S1822   1.788   .     S
C1740  C1538   1.398   1_655 S
C1741  S1827   1.784   .     S
C1741  C1743   1.418   .     A
C1741  C1535   1.390   1_655 S
C1742  S1832   1.791   .     S
C1742  C1744   1.417   .     A
C1745  N1774   1.367   .     A
C1745  H1769   1.079   .     S
C1746  H1770   1.077   .     S
C1746  N1773   1.367   .     A
C1746  C1135   1.415   1_565 S
C1747  N1774   1.368   .     A
C1747  H1771   1.079   .     S
C1748  N1773   1.369   .     A
C1748  H1772   1.077   .     S
C1748  C1133   1.415   1_565 S
C1749  O1782   1.295   .     A
C1749  C1754   1.455   .     S
C1749  O1779   1.294   .     A
C1750  O1781   1.299   .     A
C1750  O1780   1.290   .     A
C1750  C1753   1.455   .     S
C1751  C1761   1.409   .     A
C1751  N1783   1.429   .     S
C1751  C1753   1.408   .     A
C1752  C1762   1.408   .     A
C1752  N1789   1.428   .     S
C1752  C1754   1.407   .     A
C1753  C1755   1.415   .     A
C1754  C1756   1.412   .     A
C1755  C1757   1.414   .     A
C1755  S1795   1.799   .     S
C1756  S1800   1.793   .     S
C1756  C1758   1.414   .     A
C1757  C1763   1.417   .     A
C1757  C1759   1.417   .     A
C1758  C1760   1.417   .     A
C1758  C1764   1.417   .     A
C1759  C1761   1.413   .     A
C1759  C842    1.412   1_556 S
C1760  C1762   1.413   .     A
C1763  N1805   1.424   .     S
C1763  C819    1.394   1_556 S
C1764  N1811   1.426   .     S
Cu1765 O1777   1.976   .     S
Cu1765 O1781   1.963   .     S
Cu1765 Cu1766  2.689   .     S
Cu1765 O1775   1.974   .     S
Cu1765 N1773   2.021   .     S
Cu1765 O1779   1.960   .     S
Cu1766 O1782   1.963   .     S
Cu1766 O1780   1.960   .     S
Cu1766 O1778   1.976   .     S
Cu1766 N1774   2.021   .     S
Cu1766 O1776   1.974   .     S
N1783  C1785   1.446   .     S
N1783  H1784   1.031   .     S
C1785  H1786   1.110   .     S
C1785  H1787   1.106   .     S
C1785  H1788   1.110   .     S
N1789  H1790   1.030   .     S
N1789  C1791   1.446   .     S
C1791  H1793   1.107   .     S
C1791  H1794   1.111   .     S
C1791  H1792   1.110   .     S
S1795  O1797   1.501   .     D
S1795  O1798   1.679   .     S
S1795  O1796   1.504   .     D
O1798  H1799   0.991   .     S
S1800  O1802   1.501   .     D
S1800  O1803   1.680   .     S
S1800  O1801   1.504   .     D
O1803  H1804   0.990   .     S
N1805  H1806   1.032   .     S
N1805  C1807   1.446   .     S
C1807  H1809   1.110   .     S
C1807  H1808   1.111   .     S
C1807  H1810   1.112   .     S
N1811  H1812   1.032   .     S
N1811  C1813   1.447   .     S
C1813  H1815   1.111   .     S
C1813  H1816   1.111   .     S
C1813  H1814   1.111   .     S
S1817  O1818   1.500   .     D
S1817  O1819   1.502   .     D
S1817  O1820   1.678   .     S
O1820  H1821   0.990   .     S
S1822  O1825   1.683   .     S
S1822  O1823   1.503   .     D
S1822  O1824   1.500   .     D
O1825  H1826   0.991   .     S
S1827  O1828   1.502   .     D
S1827  O1829   1.502   .     D
S1827  O1830   1.682   .     S
O1830  H1831   0.990   .     S
S1832  O1834   1.502   .     D
S1832  O1835   1.680   .     S
S1832  O1833   1.501   .     D
O1835  H1836   0.991   .     S
