data_str_m3_o10_o17_pcu_sym.3
_audit_creation_date              2020-01-03
_audit_creation_method            'Materials Studio'
_symmetry_space_group_name_H-M    'P1'
_symmetry_Int_Tables_number       1
_symmetry_cell_setting            triclinic
loop_
_symmetry_equiv_pos_as_xyz
  x,y,z
_cell_length_a                    23.4200
_cell_length_b                    26.0952
_cell_length_c                    29.8248
_cell_angle_alpha                 91.3119
_cell_angle_beta                  86.4803
_cell_angle_gamma                 93.2498
loop_
_atom_site_label
_atom_site_type_symbol
_atom_site_fract_x
_atom_site_fract_y
_atom_site_fract_z
_atom_site_U_iso_or_equiv
_atom_site_adp_type
_atom_site_occupancy
O1     O     0.12975   0.24619   0.25299   0.00000  Uiso   1.00
O2     O     0.20358   0.08714   0.24702   0.00000  Uiso   1.00
O3     O     0.22613   0.23721   0.24519   0.00000  Uiso   1.00
O4     O     0.10720   0.09613   0.25482   0.00000  Uiso   1.00
C5     C     0.18154   0.26452   0.24875   0.00000  Uiso   1.00
C6     C     0.15179   0.06881   0.25125   0.00000  Uiso   1.00
O7     O     0.11847   0.17117   0.31998   0.00000  Uiso   1.00
O8     O     0.21486   0.16216   0.18003   0.00000  Uiso   1.00
O9     O     0.21485   0.16219   0.31218   0.00000  Uiso   1.00
O10    O     0.11848   0.17115   0.18783   0.00000  Uiso   1.00
C11    C     0.16771   0.16704   0.33619   0.00000  Uiso   1.00
C12    C     0.16563   0.16629   0.16381   0.00000  Uiso   1.00
Zn13   Zn    0.10231   0.17266   0.25521   0.00000  Uiso   1.00
Zn14   Zn    0.23102   0.16067   0.24479   0.00000  Uiso   1.00
C15    C     0.15270   0.11999   0.09327   0.00000  Uiso   1.00
C16    C     0.18063   0.21334   0.40673   0.00000  Uiso   1.00
C17    C     0.16358   0.16648   0.11630   0.00000  Uiso   1.00
C18    C     0.16975   0.16685   0.38370   0.00000  Uiso   1.00
C19    C     0.17506   0.21298   0.09432   0.00000  Uiso   1.00
C20    C     0.15828   0.12035   0.40568   0.00000  Uiso   1.00
C21    C     0.17612   0.21329   0.04758   0.00000  Uiso   1.00
C22    C     0.15721   0.12004   0.45242   0.00000  Uiso   1.00
C23    C     0.16578   0.16663   0.02353   0.00000  Uiso   1.00
C24    C     0.16756   0.16670   0.47647   0.00000  Uiso   1.00
C25    C     0.15390   0.11987   0.04642   0.00000  Uiso   1.00
C26    C     0.17943   0.21346   0.45358   0.00000  Uiso   1.00
C27    C     0.18671   0.25931   0.02446   0.00000  Uiso   1.00
C28    C     0.14663   0.07402   0.47554   0.00000  Uiso   1.00
C29    C     0.18823   0.25942   0.47808   0.00000  Uiso   1.00
C30    C     0.14511   0.07391   0.02192   0.00000  Uiso   1.00
H31    H     0.19374   0.29565   0.04197   0.00000  Uiso   1.00
H32    H     0.13960   0.03768   0.45803   0.00000  Uiso   1.00
H33    H     0.19610   0.29591   0.46178   0.00000  Uiso   1.00
H34    H     0.13725   0.03742   0.03822   0.00000  Uiso   1.00
C35    C     0.18966   0.31839   0.24779   0.00000  Uiso   1.00
C36    C     0.14367   0.01494   0.25220   0.00000  Uiso   1.00
N37    N     0.31678   0.15265   0.23783   0.00000  Uiso   1.00
N38    N     0.01656   0.18068   0.26217   0.00000  Uiso   1.00
N39    N     0.14205   0.07314   0.11763   0.00000  Uiso   1.00
O40    O     0.18087   0.05699   0.14243   0.00000  Uiso   1.00
O41    O     0.09314   0.04718   0.11579   0.00000  Uiso   1.00
N42    N     0.19128   0.26019   0.38237   0.00000  Uiso   1.00
O43    O     0.15246   0.27635   0.35757   0.00000  Uiso   1.00
O44    O     0.24020   0.28615   0.38420   0.00000  Uiso   1.00
N45    N     0.18610   0.25949   0.11978   0.00000  Uiso   1.00
O46    O     0.23693   0.28246   0.11745   0.00000  Uiso   1.00
O47    O     0.14620   0.27723   0.14712   0.00000  Uiso   1.00
N48    N     0.14724   0.07384   0.38022   0.00000  Uiso   1.00
O49    O     0.09641   0.05087   0.38255   0.00000  Uiso   1.00
O50    O     0.18714   0.05610   0.35287   0.00000  Uiso   1.00
N51    N     0.24809   0.00492   0.24217   0.00000  Uiso   1.00
O52    O     0.27465   0.00373   0.20261   0.00000  Uiso   1.00
O53    O     0.27672   0.01670   0.27733   0.00000  Uiso   1.00
N54    N     0.08524   0.32841   0.25782   0.00000  Uiso   1.00
O55    O     0.05868   0.32962   0.29739   0.00000  Uiso   1.00
O56    O     0.05661   0.31662   0.22267   0.00000  Uiso   1.00
N57    N     0.00648   0.14317   0.19482   0.00000  Uiso   1.00
O58    O     0.00329   0.17719   0.16399   0.00000  Uiso   1.00
O59    O     0.01876   0.09666   0.18297   0.00000  Uiso   1.00
N60    N     0.32686   0.19013   0.30519   0.00000  Uiso   1.00
O61    O     0.32999   0.15605   0.33598   0.00000  Uiso   1.00
O62    O     0.31469   0.23665   0.31709   0.00000  Uiso   1.00
O63    O     0.46308   0.24619   0.25299   0.00000  Uiso   1.00
O64    O     0.53692   0.08714   0.24702   0.00000  Uiso   1.00
O65    O     0.55946   0.23721   0.24519   0.00000  Uiso   1.00
O66    O     0.44054   0.09613   0.25482   0.00000  Uiso   1.00
C67    C     0.51488   0.26452   0.24875   0.00000  Uiso   1.00
C68    C     0.48512   0.06881   0.25125   0.00000  Uiso   1.00
O69    O     0.45181   0.17117   0.31998   0.00000  Uiso   1.00
O70    O     0.54819   0.16216   0.18003   0.00000  Uiso   1.00
O71    O     0.54819   0.16219   0.31218   0.00000  Uiso   1.00
O72    O     0.45181   0.17115   0.18783   0.00000  Uiso   1.00
C73    C     0.50104   0.16704   0.33619   0.00000  Uiso   1.00
C74    C     0.49896   0.16629   0.16381   0.00000  Uiso   1.00
Zn75   Zn    0.43565   0.17266   0.25521   0.00000  Uiso   1.00
Zn76   Zn    0.56435   0.16067   0.24479   0.00000  Uiso   1.00
C77    C     0.48604   0.11999   0.09327   0.00000  Uiso   1.00
C78    C     0.51396   0.21334   0.40673   0.00000  Uiso   1.00
C79    C     0.49691   0.16648   0.11630   0.00000  Uiso   1.00
C80    C     0.50309   0.16685   0.38370   0.00000  Uiso   1.00
C81    C     0.50839   0.21298   0.09432   0.00000  Uiso   1.00
C82    C     0.49161   0.12035   0.40568   0.00000  Uiso   1.00
C83    C     0.50946   0.21329   0.04758   0.00000  Uiso   1.00
C84    C     0.49055   0.12004   0.45242   0.00000  Uiso   1.00
C85    C     0.49911   0.16663   0.02353   0.00000  Uiso   1.00
C86    C     0.50089   0.16670   0.47647   0.00000  Uiso   1.00
C87    C     0.48724   0.11987   0.04642   0.00000  Uiso   1.00
C88    C     0.51277   0.21346   0.45358   0.00000  Uiso   1.00
C89    C     0.52004   0.25931   0.02446   0.00000  Uiso   1.00
C90    C     0.47996   0.07402   0.47554   0.00000  Uiso   1.00
C91    C     0.52156   0.25942   0.47808   0.00000  Uiso   1.00
C92    C     0.47844   0.07391   0.02192   0.00000  Uiso   1.00
H93    H     0.52708   0.29565   0.04197   0.00000  Uiso   1.00
H94    H     0.47293   0.03768   0.45803   0.00000  Uiso   1.00
H95    H     0.52943   0.29591   0.46178   0.00000  Uiso   1.00
H96    H     0.47058   0.03742   0.03822   0.00000  Uiso   1.00
C97    C     0.52299   0.31839   0.24779   0.00000  Uiso   1.00
C98    C     0.47700   0.01494   0.25220   0.00000  Uiso   1.00
N99    N     0.65011   0.15265   0.23783   0.00000  Uiso   1.00
N100   N     0.34989   0.18068   0.26217   0.00000  Uiso   1.00
N101   N     0.47539   0.07314   0.11763   0.00000  Uiso   1.00
O102   O     0.51421   0.05699   0.14243   0.00000  Uiso   1.00
O103   O     0.42647   0.04718   0.11579   0.00000  Uiso   1.00
N104   N     0.52462   0.26019   0.38237   0.00000  Uiso   1.00
O105   O     0.48579   0.27635   0.35757   0.00000  Uiso   1.00
O106   O     0.57353   0.28615   0.38420   0.00000  Uiso   1.00
N107   N     0.51943   0.25949   0.11978   0.00000  Uiso   1.00
O108   O     0.57026   0.28246   0.11745   0.00000  Uiso   1.00
O109   O     0.47953   0.27723   0.14712   0.00000  Uiso   1.00
N110   N     0.48057   0.07384   0.38022   0.00000  Uiso   1.00
O111   O     0.42974   0.05087   0.38255   0.00000  Uiso   1.00
O112   O     0.52047   0.05610   0.35287   0.00000  Uiso   1.00
N113   N     0.58142   0.00492   0.24217   0.00000  Uiso   1.00
O114   O     0.60798   0.00373   0.20261   0.00000  Uiso   1.00
O115   O     0.61005   0.01670   0.27733   0.00000  Uiso   1.00
N116   N     0.41857   0.32841   0.25782   0.00000  Uiso   1.00
O117   O     0.39201   0.32962   0.29739   0.00000  Uiso   1.00
O118   O     0.38995   0.31662   0.22267   0.00000  Uiso   1.00
N119   N     0.33981   0.14317   0.19482   0.00000  Uiso   1.00
O120   O     0.33663   0.17719   0.16399   0.00000  Uiso   1.00
O121   O     0.35209   0.09666   0.18297   0.00000  Uiso   1.00
N122   N     0.66020   0.19013   0.30519   0.00000  Uiso   1.00
O123   O     0.66332   0.15605   0.33598   0.00000  Uiso   1.00
O124   O     0.64803   0.23665   0.31709   0.00000  Uiso   1.00
O125   O     0.79642   0.24619   0.25299   0.00000  Uiso   1.00
O126   O     0.87025   0.08714   0.24702   0.00000  Uiso   1.00
O127   O     0.89280   0.23721   0.24519   0.00000  Uiso   1.00
O128   O     0.77387   0.09613   0.25482   0.00000  Uiso   1.00
C129   C     0.84821   0.26452   0.24875   0.00000  Uiso   1.00
C130   C     0.81846   0.06881   0.25125   0.00000  Uiso   1.00
O131   O     0.78514   0.17117   0.31998   0.00000  Uiso   1.00
O132   O     0.88153   0.16216   0.18003   0.00000  Uiso   1.00
O133   O     0.88152   0.16219   0.31218   0.00000  Uiso   1.00
O134   O     0.78515   0.17115   0.18783   0.00000  Uiso   1.00
C135   C     0.83437   0.16704   0.33619   0.00000  Uiso   1.00
C136   C     0.83229   0.16629   0.16381   0.00000  Uiso   1.00
Zn137  Zn    0.76898   0.17266   0.25521   0.00000  Uiso   1.00
Zn138  Zn    0.89769   0.16067   0.24479   0.00000  Uiso   1.00
C139   C     0.81937   0.11999   0.09327   0.00000  Uiso   1.00
C140   C     0.84730   0.21334   0.40673   0.00000  Uiso   1.00
C141   C     0.83025   0.16648   0.11630   0.00000  Uiso   1.00
C142   C     0.83642   0.16685   0.38370   0.00000  Uiso   1.00
C143   C     0.84173   0.21298   0.09432   0.00000  Uiso   1.00
C144   C     0.82494   0.12035   0.40568   0.00000  Uiso   1.00
C145   C     0.84279   0.21329   0.04758   0.00000  Uiso   1.00
C146   C     0.82388   0.12004   0.45242   0.00000  Uiso   1.00
C147   C     0.83245   0.16663   0.02353   0.00000  Uiso   1.00
C148   C     0.83423   0.16670   0.47647   0.00000  Uiso   1.00
C149   C     0.82057   0.11987   0.04642   0.00000  Uiso   1.00
C150   C     0.84610   0.21346   0.45358   0.00000  Uiso   1.00
C151   C     0.85338   0.25931   0.02446   0.00000  Uiso   1.00
C152   C     0.81330   0.07402   0.47554   0.00000  Uiso   1.00
C153   C     0.85490   0.25942   0.47808   0.00000  Uiso   1.00
C154   C     0.81178   0.07391   0.02192   0.00000  Uiso   1.00
H155   H     0.86041   0.29565   0.04197   0.00000  Uiso   1.00
H156   H     0.80626   0.03768   0.45803   0.00000  Uiso   1.00
H157   H     0.86276   0.29591   0.46178   0.00000  Uiso   1.00
H158   H     0.80391   0.03742   0.03822   0.00000  Uiso   1.00
C159   C     0.85633   0.31839   0.24779   0.00000  Uiso   1.00
C160   C     0.81034   0.01494   0.25220   0.00000  Uiso   1.00
N161   N     0.98344   0.15265   0.23783   0.00000  Uiso   1.00
N162   N     0.68322   0.18068   0.26217   0.00000  Uiso   1.00
N163   N     0.80872   0.07314   0.11763   0.00000  Uiso   1.00
O164   O     0.84754   0.05699   0.14243   0.00000  Uiso   1.00
O165   O     0.75980   0.04718   0.11579   0.00000  Uiso   1.00
N166   N     0.85795   0.26019   0.38237   0.00000  Uiso   1.00
O167   O     0.81912   0.27635   0.35757   0.00000  Uiso   1.00
O168   O     0.90687   0.28615   0.38420   0.00000  Uiso   1.00
N169   N     0.85277   0.25949   0.11978   0.00000  Uiso   1.00
O170   O     0.90359   0.28246   0.11745   0.00000  Uiso   1.00
O171   O     0.81286   0.27723   0.14712   0.00000  Uiso   1.00
N172   N     0.81390   0.07384   0.38022   0.00000  Uiso   1.00
O173   O     0.76308   0.05087   0.38255   0.00000  Uiso   1.00
O174   O     0.85380   0.05610   0.35287   0.00000  Uiso   1.00
N175   N     0.91476   0.00492   0.24217   0.00000  Uiso   1.00
O176   O     0.94131   0.00373   0.20261   0.00000  Uiso   1.00
O177   O     0.94339   0.01670   0.27733   0.00000  Uiso   1.00
N178   N     0.75191   0.32841   0.25782   0.00000  Uiso   1.00
O179   O     0.72535   0.32962   0.29739   0.00000  Uiso   1.00
O180   O     0.72328   0.31662   0.22267   0.00000  Uiso   1.00
N181   N     0.67315   0.14317   0.19482   0.00000  Uiso   1.00
O182   O     0.66996   0.17719   0.16399   0.00000  Uiso   1.00
O183   O     0.68542   0.09666   0.18297   0.00000  Uiso   1.00
N184   N     0.99353   0.19013   0.30519   0.00000  Uiso   1.00
O185   O     0.99666   0.15605   0.33598   0.00000  Uiso   1.00
O186   O     0.98136   0.23665   0.31709   0.00000  Uiso   1.00
O187   O     0.12975   0.57952   0.25299   0.00000  Uiso   1.00
O188   O     0.20358   0.42048   0.24702   0.00000  Uiso   1.00
O189   O     0.22613   0.57054   0.24519   0.00000  Uiso   1.00
O190   O     0.10720   0.42946   0.25482   0.00000  Uiso   1.00
C191   C     0.18154   0.59786   0.24875   0.00000  Uiso   1.00
C192   C     0.15179   0.40214   0.25125   0.00000  Uiso   1.00
O193   O     0.11847   0.50450   0.31998   0.00000  Uiso   1.00
O194   O     0.21486   0.49550   0.18003   0.00000  Uiso   1.00
O195   O     0.21485   0.49552   0.31218   0.00000  Uiso   1.00
O196   O     0.11848   0.50448   0.18783   0.00000  Uiso   1.00
C197   C     0.16771   0.50038   0.33619   0.00000  Uiso   1.00
C198   C     0.16563   0.49962   0.16381   0.00000  Uiso   1.00
Zn199  Zn    0.10231   0.50600   0.25521   0.00000  Uiso   1.00
Zn200  Zn    0.23102   0.49400   0.24479   0.00000  Uiso   1.00
C201   C     0.15270   0.45332   0.09327   0.00000  Uiso   1.00
C202   C     0.18063   0.54668   0.40673   0.00000  Uiso   1.00
C203   C     0.16358   0.49981   0.11630   0.00000  Uiso   1.00
C204   C     0.16975   0.50018   0.38370   0.00000  Uiso   1.00
C205   C     0.17506   0.54631   0.09432   0.00000  Uiso   1.00
C206   C     0.15828   0.45369   0.40568   0.00000  Uiso   1.00
C207   C     0.17612   0.54662   0.04758   0.00000  Uiso   1.00
C208   C     0.15721   0.45338   0.45242   0.00000  Uiso   1.00
C209   C     0.16578   0.49996   0.02353   0.00000  Uiso   1.00
C210   C     0.16756   0.50004   0.47647   0.00000  Uiso   1.00
C211   C     0.15390   0.45320   0.04642   0.00000  Uiso   1.00
C212   C     0.17943   0.54680   0.45358   0.00000  Uiso   1.00
C213   C     0.18671   0.59264   0.02446   0.00000  Uiso   1.00
C214   C     0.14663   0.40735   0.47554   0.00000  Uiso   1.00
C215   C     0.18823   0.59275   0.47808   0.00000  Uiso   1.00
C216   C     0.14511   0.40725   0.02192   0.00000  Uiso   1.00
H217   H     0.19374   0.62899   0.04197   0.00000  Uiso   1.00
H218   H     0.13960   0.37101   0.45803   0.00000  Uiso   1.00
H219   H     0.19610   0.62924   0.46178   0.00000  Uiso   1.00
H220   H     0.13725   0.37076   0.03822   0.00000  Uiso   1.00
C221   C     0.18966   0.65172   0.24779   0.00000  Uiso   1.00
C222   C     0.14367   0.34828   0.25220   0.00000  Uiso   1.00
N223   N     0.31678   0.48598   0.23783   0.00000  Uiso   1.00
N224   N     0.01656   0.51402   0.26217   0.00000  Uiso   1.00
N225   N     0.14205   0.40648   0.11763   0.00000  Uiso   1.00
O226   O     0.18087   0.39032   0.14243   0.00000  Uiso   1.00
O227   O     0.09314   0.38051   0.11579   0.00000  Uiso   1.00
N228   N     0.19128   0.59352   0.38237   0.00000  Uiso   1.00
O229   O     0.15246   0.60968   0.35757   0.00000  Uiso   1.00
O230   O     0.24020   0.61948   0.38420   0.00000  Uiso   1.00
N231   N     0.18610   0.59282   0.11978   0.00000  Uiso   1.00
O232   O     0.23693   0.61580   0.11745   0.00000  Uiso   1.00
O233   O     0.14620   0.61057   0.14712   0.00000  Uiso   1.00
N234   N     0.14724   0.40718   0.38022   0.00000  Uiso   1.00
O235   O     0.09641   0.38420   0.38255   0.00000  Uiso   1.00
O236   O     0.18714   0.38943   0.35287   0.00000  Uiso   1.00
N237   N     0.24809   0.33826   0.24217   0.00000  Uiso   1.00
O238   O     0.27465   0.33706   0.20261   0.00000  Uiso   1.00
O239   O     0.27672   0.35003   0.27733   0.00000  Uiso   1.00
N240   N     0.08524   0.66174   0.25782   0.00000  Uiso   1.00
O241   O     0.05868   0.66296   0.29739   0.00000  Uiso   1.00
O242   O     0.05661   0.64996   0.22267   0.00000  Uiso   1.00
N243   N     0.00648   0.47650   0.19482   0.00000  Uiso   1.00
O244   O     0.00329   0.51052   0.16399   0.00000  Uiso   1.00
O245   O     0.01876   0.42999   0.18297   0.00000  Uiso   1.00
N246   N     0.32686   0.52346   0.30519   0.00000  Uiso   1.00
O247   O     0.32999   0.48939   0.33598   0.00000  Uiso   1.00
O248   O     0.31469   0.56999   0.31709   0.00000  Uiso   1.00
O249   O     0.46308   0.57952   0.25299   0.00000  Uiso   1.00
O250   O     0.53692   0.42048   0.24702   0.00000  Uiso   1.00
O251   O     0.55946   0.57054   0.24519   0.00000  Uiso   1.00
O252   O     0.44054   0.42946   0.25482   0.00000  Uiso   1.00
C253   C     0.51488   0.59786   0.24875   0.00000  Uiso   1.00
C254   C     0.48512   0.40214   0.25125   0.00000  Uiso   1.00
O255   O     0.45181   0.50450   0.31998   0.00000  Uiso   1.00
O256   O     0.54819   0.49550   0.18003   0.00000  Uiso   1.00
O257   O     0.54819   0.49552   0.31218   0.00000  Uiso   1.00
O258   O     0.45181   0.50448   0.18783   0.00000  Uiso   1.00
C259   C     0.50104   0.50038   0.33619   0.00000  Uiso   1.00
C260   C     0.49896   0.49962   0.16381   0.00000  Uiso   1.00
Zn261  Zn    0.43565   0.50600   0.25521   0.00000  Uiso   1.00
Zn262  Zn    0.56435   0.49400   0.24479   0.00000  Uiso   1.00
C263   C     0.48604   0.45332   0.09327   0.00000  Uiso   1.00
C264   C     0.51396   0.54668   0.40673   0.00000  Uiso   1.00
C265   C     0.49691   0.49981   0.11630   0.00000  Uiso   1.00
C266   C     0.50309   0.50018   0.38370   0.00000  Uiso   1.00
C267   C     0.50839   0.54631   0.09432   0.00000  Uiso   1.00
C268   C     0.49161   0.45369   0.40568   0.00000  Uiso   1.00
C269   C     0.50946   0.54662   0.04758   0.00000  Uiso   1.00
C270   C     0.49055   0.45338   0.45242   0.00000  Uiso   1.00
C271   C     0.49911   0.49996   0.02353   0.00000  Uiso   1.00
C272   C     0.50089   0.50004   0.47647   0.00000  Uiso   1.00
C273   C     0.48724   0.45320   0.04642   0.00000  Uiso   1.00
C274   C     0.51277   0.54680   0.45358   0.00000  Uiso   1.00
C275   C     0.52004   0.59264   0.02446   0.00000  Uiso   1.00
C276   C     0.47996   0.40735   0.47554   0.00000  Uiso   1.00
C277   C     0.52156   0.59275   0.47808   0.00000  Uiso   1.00
C278   C     0.47844   0.40725   0.02192   0.00000  Uiso   1.00
H279   H     0.52708   0.62899   0.04197   0.00000  Uiso   1.00
H280   H     0.47293   0.37101   0.45803   0.00000  Uiso   1.00
H281   H     0.52943   0.62924   0.46178   0.00000  Uiso   1.00
H282   H     0.47058   0.37076   0.03822   0.00000  Uiso   1.00
C283   C     0.52299   0.65172   0.24779   0.00000  Uiso   1.00
C284   C     0.47700   0.34828   0.25220   0.00000  Uiso   1.00
N285   N     0.65011   0.48598   0.23783   0.00000  Uiso   1.00
N286   N     0.34989   0.51402   0.26217   0.00000  Uiso   1.00
N287   N     0.47539   0.40648   0.11763   0.00000  Uiso   1.00
O288   O     0.51421   0.39032   0.14243   0.00000  Uiso   1.00
O289   O     0.42647   0.38051   0.11579   0.00000  Uiso   1.00
N290   N     0.52462   0.59352   0.38237   0.00000  Uiso   1.00
O291   O     0.48579   0.60968   0.35757   0.00000  Uiso   1.00
O292   O     0.57353   0.61948   0.38420   0.00000  Uiso   1.00
N293   N     0.51943   0.59282   0.11978   0.00000  Uiso   1.00
O294   O     0.57026   0.61580   0.11745   0.00000  Uiso   1.00
O295   O     0.47953   0.61057   0.14712   0.00000  Uiso   1.00
N296   N     0.48057   0.40718   0.38022   0.00000  Uiso   1.00
O297   O     0.42974   0.38420   0.38255   0.00000  Uiso   1.00
O298   O     0.52047   0.38943   0.35287   0.00000  Uiso   1.00
N299   N     0.58142   0.33826   0.24217   0.00000  Uiso   1.00
O300   O     0.60798   0.33706   0.20261   0.00000  Uiso   1.00
O301   O     0.61005   0.35003   0.27733   0.00000  Uiso   1.00
N302   N     0.41857   0.66174   0.25782   0.00000  Uiso   1.00
O303   O     0.39201   0.66296   0.29739   0.00000  Uiso   1.00
O304   O     0.38995   0.64996   0.22267   0.00000  Uiso   1.00
N305   N     0.33981   0.47650   0.19482   0.00000  Uiso   1.00
O306   O     0.33663   0.51052   0.16399   0.00000  Uiso   1.00
O307   O     0.35209   0.42999   0.18297   0.00000  Uiso   1.00
N308   N     0.66020   0.52346   0.30519   0.00000  Uiso   1.00
O309   O     0.66332   0.48939   0.33598   0.00000  Uiso   1.00
O310   O     0.64803   0.56999   0.31709   0.00000  Uiso   1.00
O311   O     0.79642   0.57952   0.25299   0.00000  Uiso   1.00
O312   O     0.87025   0.42048   0.24702   0.00000  Uiso   1.00
O313   O     0.89280   0.57054   0.24519   0.00000  Uiso   1.00
O314   O     0.77387   0.42946   0.25482   0.00000  Uiso   1.00
C315   C     0.84821   0.59786   0.24875   0.00000  Uiso   1.00
C316   C     0.81846   0.40214   0.25125   0.00000  Uiso   1.00
O317   O     0.78514   0.50450   0.31998   0.00000  Uiso   1.00
O318   O     0.88153   0.49550   0.18003   0.00000  Uiso   1.00
O319   O     0.88152   0.49552   0.31218   0.00000  Uiso   1.00
O320   O     0.78515   0.50448   0.18783   0.00000  Uiso   1.00
C321   C     0.83437   0.50038   0.33619   0.00000  Uiso   1.00
C322   C     0.83229   0.49962   0.16381   0.00000  Uiso   1.00
Zn323  Zn    0.76898   0.50600   0.25521   0.00000  Uiso   1.00
Zn324  Zn    0.89769   0.49400   0.24479   0.00000  Uiso   1.00
C325   C     0.81937   0.45332   0.09327   0.00000  Uiso   1.00
C326   C     0.84730   0.54668   0.40673   0.00000  Uiso   1.00
C327   C     0.83025   0.49981   0.11630   0.00000  Uiso   1.00
C328   C     0.83642   0.50018   0.38370   0.00000  Uiso   1.00
C329   C     0.84173   0.54631   0.09432   0.00000  Uiso   1.00
C330   C     0.82494   0.45369   0.40568   0.00000  Uiso   1.00
C331   C     0.84279   0.54662   0.04758   0.00000  Uiso   1.00
C332   C     0.82388   0.45338   0.45242   0.00000  Uiso   1.00
C333   C     0.83245   0.49996   0.02353   0.00000  Uiso   1.00
C334   C     0.83423   0.50004   0.47647   0.00000  Uiso   1.00
C335   C     0.82057   0.45320   0.04642   0.00000  Uiso   1.00
C336   C     0.84610   0.54680   0.45358   0.00000  Uiso   1.00
C337   C     0.85338   0.59264   0.02446   0.00000  Uiso   1.00
C338   C     0.81330   0.40735   0.47554   0.00000  Uiso   1.00
C339   C     0.85490   0.59275   0.47808   0.00000  Uiso   1.00
C340   C     0.81178   0.40725   0.02192   0.00000  Uiso   1.00
H341   H     0.86041   0.62899   0.04197   0.00000  Uiso   1.00
H342   H     0.80626   0.37101   0.45803   0.00000  Uiso   1.00
H343   H     0.86276   0.62924   0.46178   0.00000  Uiso   1.00
H344   H     0.80391   0.37076   0.03822   0.00000  Uiso   1.00
C345   C     0.85633   0.65172   0.24779   0.00000  Uiso   1.00
C346   C     0.81034   0.34828   0.25220   0.00000  Uiso   1.00
N347   N     0.98344   0.48598   0.23783   0.00000  Uiso   1.00
N348   N     0.68322   0.51402   0.26217   0.00000  Uiso   1.00
N349   N     0.80872   0.40648   0.11763   0.00000  Uiso   1.00
O350   O     0.84754   0.39032   0.14243   0.00000  Uiso   1.00
O351   O     0.75980   0.38051   0.11579   0.00000  Uiso   1.00
N352   N     0.85795   0.59352   0.38237   0.00000  Uiso   1.00
O353   O     0.81912   0.60968   0.35757   0.00000  Uiso   1.00
O354   O     0.90687   0.61948   0.38420   0.00000  Uiso   1.00
N355   N     0.85277   0.59282   0.11978   0.00000  Uiso   1.00
O356   O     0.90359   0.61580   0.11745   0.00000  Uiso   1.00
O357   O     0.81286   0.61057   0.14712   0.00000  Uiso   1.00
N358   N     0.81390   0.40718   0.38022   0.00000  Uiso   1.00
O359   O     0.76308   0.38420   0.38255   0.00000  Uiso   1.00
O360   O     0.85380   0.38943   0.35287   0.00000  Uiso   1.00
N361   N     0.91476   0.33826   0.24217   0.00000  Uiso   1.00
O362   O     0.94131   0.33706   0.20261   0.00000  Uiso   1.00
O363   O     0.94339   0.35003   0.27733   0.00000  Uiso   1.00
N364   N     0.75191   0.66174   0.25782   0.00000  Uiso   1.00
O365   O     0.72535   0.66296   0.29739   0.00000  Uiso   1.00
O366   O     0.72328   0.64996   0.22267   0.00000  Uiso   1.00
N367   N     0.67315   0.47650   0.19482   0.00000  Uiso   1.00
O368   O     0.66996   0.51052   0.16399   0.00000  Uiso   1.00
O369   O     0.68542   0.42999   0.18297   0.00000  Uiso   1.00
N370   N     0.99353   0.52346   0.30519   0.00000  Uiso   1.00
O371   O     0.99666   0.48939   0.33598   0.00000  Uiso   1.00
O372   O     0.98136   0.56999   0.31709   0.00000  Uiso   1.00
O373   O     0.12975   0.91286   0.25299   0.00000  Uiso   1.00
O374   O     0.20358   0.75381   0.24702   0.00000  Uiso   1.00
O375   O     0.22613   0.90387   0.24519   0.00000  Uiso   1.00
O376   O     0.10720   0.76279   0.25482   0.00000  Uiso   1.00
C377   C     0.18154   0.93119   0.24875   0.00000  Uiso   1.00
C378   C     0.15179   0.73548   0.25125   0.00000  Uiso   1.00
O379   O     0.11847   0.83784   0.31998   0.00000  Uiso   1.00
O380   O     0.21486   0.82883   0.18003   0.00000  Uiso   1.00
O381   O     0.21485   0.82885   0.31218   0.00000  Uiso   1.00
O382   O     0.11848   0.83781   0.18783   0.00000  Uiso   1.00
C383   C     0.16771   0.83371   0.33619   0.00000  Uiso   1.00
C384   C     0.16563   0.83296   0.16381   0.00000  Uiso   1.00
Zn385  Zn    0.10231   0.83933   0.25521   0.00000  Uiso   1.00
Zn386  Zn    0.23102   0.82734   0.24479   0.00000  Uiso   1.00
C387   C     0.15270   0.78665   0.09327   0.00000  Uiso   1.00
C388   C     0.18063   0.88001   0.40673   0.00000  Uiso   1.00
C389   C     0.16358   0.83315   0.11630   0.00000  Uiso   1.00
C390   C     0.16975   0.83352   0.38370   0.00000  Uiso   1.00
C391   C     0.17506   0.87964   0.09432   0.00000  Uiso   1.00
C392   C     0.15828   0.78702   0.40568   0.00000  Uiso   1.00
C393   C     0.17612   0.87996   0.04758   0.00000  Uiso   1.00
C394   C     0.15721   0.78671   0.45242   0.00000  Uiso   1.00
C395   C     0.16578   0.83329   0.02353   0.00000  Uiso   1.00
C396   C     0.16756   0.83337   0.47647   0.00000  Uiso   1.00
C397   C     0.15390   0.78654   0.04642   0.00000  Uiso   1.00
C398   C     0.17943   0.88013   0.45358   0.00000  Uiso   1.00
C399   C     0.18671   0.92598   0.02446   0.00000  Uiso   1.00
C400   C     0.14663   0.74069   0.47554   0.00000  Uiso   1.00
C401   C     0.18823   0.92608   0.47808   0.00000  Uiso   1.00
C402   C     0.14511   0.74058   0.02192   0.00000  Uiso   1.00
H403   H     0.19374   0.96232   0.04197   0.00000  Uiso   1.00
H404   H     0.13960   0.70435   0.45803   0.00000  Uiso   1.00
H405   H     0.19610   0.96258   0.46178   0.00000  Uiso   1.00
H406   H     0.13725   0.70409   0.03822   0.00000  Uiso   1.00
C407   C     0.18966   0.98506   0.24779   0.00000  Uiso   1.00
C408   C     0.14367   0.68161   0.25220   0.00000  Uiso   1.00
N409   N     0.31678   0.81932   0.23783   0.00000  Uiso   1.00
N410   N     0.01656   0.84735   0.26217   0.00000  Uiso   1.00
N411   N     0.14205   0.73981   0.11763   0.00000  Uiso   1.00
O412   O     0.18087   0.72365   0.14243   0.00000  Uiso   1.00
O413   O     0.09314   0.71385   0.11579   0.00000  Uiso   1.00
N414   N     0.19128   0.92686   0.38237   0.00000  Uiso   1.00
O415   O     0.15246   0.94301   0.35757   0.00000  Uiso   1.00
O416   O     0.24020   0.95281   0.38420   0.00000  Uiso   1.00
N417   N     0.18610   0.92616   0.11978   0.00000  Uiso   1.00
O418   O     0.23693   0.94913   0.11745   0.00000  Uiso   1.00
O419   O     0.14620   0.94390   0.14712   0.00000  Uiso   1.00
N420   N     0.14724   0.74051   0.38022   0.00000  Uiso   1.00
O421   O     0.09641   0.71753   0.38255   0.00000  Uiso   1.00
O422   O     0.18714   0.72277   0.35287   0.00000  Uiso   1.00
N423   N     0.24809   0.67159   0.24217   0.00000  Uiso   1.00
O424   O     0.27465   0.67039   0.20261   0.00000  Uiso   1.00
O425   O     0.27672   0.68337   0.27733   0.00000  Uiso   1.00
N426   N     0.08524   0.99508   0.25782   0.00000  Uiso   1.00
O427   O     0.05868   0.99629   0.29739   0.00000  Uiso   1.00
O428   O     0.05661   0.98329   0.22267   0.00000  Uiso   1.00
N429   N     0.00648   0.80984   0.19482   0.00000  Uiso   1.00
O430   O     0.00329   0.84386   0.16399   0.00000  Uiso   1.00
O431   O     0.01876   0.76332   0.18297   0.00000  Uiso   1.00
N432   N     0.32686   0.85680   0.30519   0.00000  Uiso   1.00
O433   O     0.32999   0.82272   0.33598   0.00000  Uiso   1.00
O434   O     0.31469   0.90332   0.31709   0.00000  Uiso   1.00
O435   O     0.46308   0.91286   0.25299   0.00000  Uiso   1.00
O436   O     0.53692   0.75381   0.24702   0.00000  Uiso   1.00
O437   O     0.55946   0.90387   0.24519   0.00000  Uiso   1.00
O438   O     0.44054   0.76279   0.25482   0.00000  Uiso   1.00
C439   C     0.51488   0.93119   0.24875   0.00000  Uiso   1.00
C440   C     0.48512   0.73548   0.25125   0.00000  Uiso   1.00
O441   O     0.45181   0.83784   0.31998   0.00000  Uiso   1.00
O442   O     0.54819   0.82883   0.18003   0.00000  Uiso   1.00
O443   O     0.54819   0.82885   0.31218   0.00000  Uiso   1.00
O444   O     0.45181   0.83781   0.18783   0.00000  Uiso   1.00
C445   C     0.50104   0.83371   0.33619   0.00000  Uiso   1.00
C446   C     0.49896   0.83296   0.16381   0.00000  Uiso   1.00
Zn447  Zn    0.43565   0.83933   0.25521   0.00000  Uiso   1.00
Zn448  Zn    0.56435   0.82734   0.24479   0.00000  Uiso   1.00
C449   C     0.48604   0.78665   0.09327   0.00000  Uiso   1.00
C450   C     0.51396   0.88001   0.40673   0.00000  Uiso   1.00
C451   C     0.49691   0.83315   0.11630   0.00000  Uiso   1.00
C452   C     0.50309   0.83352   0.38370   0.00000  Uiso   1.00
C453   C     0.50839   0.87964   0.09432   0.00000  Uiso   1.00
C454   C     0.49161   0.78702   0.40568   0.00000  Uiso   1.00
C455   C     0.50946   0.87996   0.04758   0.00000  Uiso   1.00
C456   C     0.49055   0.78671   0.45242   0.00000  Uiso   1.00
C457   C     0.49911   0.83329   0.02353   0.00000  Uiso   1.00
C458   C     0.50089   0.83337   0.47647   0.00000  Uiso   1.00
C459   C     0.48724   0.78654   0.04642   0.00000  Uiso   1.00
C460   C     0.51277   0.88013   0.45358   0.00000  Uiso   1.00
C461   C     0.52004   0.92598   0.02446   0.00000  Uiso   1.00
C462   C     0.47996   0.74069   0.47554   0.00000  Uiso   1.00
C463   C     0.52156   0.92608   0.47808   0.00000  Uiso   1.00
C464   C     0.47844   0.74058   0.02192   0.00000  Uiso   1.00
H465   H     0.52708   0.96232   0.04197   0.00000  Uiso   1.00
H466   H     0.47293   0.70435   0.45803   0.00000  Uiso   1.00
H467   H     0.52943   0.96258   0.46178   0.00000  Uiso   1.00
H468   H     0.47058   0.70409   0.03822   0.00000  Uiso   1.00
C469   C     0.52299   0.98506   0.24779   0.00000  Uiso   1.00
C470   C     0.47700   0.68161   0.25220   0.00000  Uiso   1.00
N471   N     0.65011   0.81932   0.23783   0.00000  Uiso   1.00
N472   N     0.34989   0.84735   0.26217   0.00000  Uiso   1.00
N473   N     0.47539   0.73981   0.11763   0.00000  Uiso   1.00
O474   O     0.51421   0.72365   0.14243   0.00000  Uiso   1.00
O475   O     0.42647   0.71385   0.11579   0.00000  Uiso   1.00
N476   N     0.52462   0.92686   0.38237   0.00000  Uiso   1.00
O477   O     0.48579   0.94301   0.35757   0.00000  Uiso   1.00
O478   O     0.57353   0.95281   0.38420   0.00000  Uiso   1.00
N479   N     0.51943   0.92616   0.11978   0.00000  Uiso   1.00
O480   O     0.57026   0.94913   0.11745   0.00000  Uiso   1.00
O481   O     0.47953   0.94390   0.14712   0.00000  Uiso   1.00
N482   N     0.48057   0.74051   0.38022   0.00000  Uiso   1.00
O483   O     0.42974   0.71753   0.38255   0.00000  Uiso   1.00
O484   O     0.52047   0.72277   0.35287   0.00000  Uiso   1.00
N485   N     0.58142   0.67159   0.24217   0.00000  Uiso   1.00
O486   O     0.60798   0.67039   0.20261   0.00000  Uiso   1.00
O487   O     0.61005   0.68337   0.27733   0.00000  Uiso   1.00
N488   N     0.41857   0.99508   0.25782   0.00000  Uiso   1.00
O489   O     0.39201   0.99629   0.29739   0.00000  Uiso   1.00
O490   O     0.38995   0.98329   0.22267   0.00000  Uiso   1.00
N491   N     0.33981   0.80984   0.19482   0.00000  Uiso   1.00
O492   O     0.33663   0.84386   0.16399   0.00000  Uiso   1.00
O493   O     0.35209   0.76332   0.18297   0.00000  Uiso   1.00
N494   N     0.66020   0.85680   0.30519   0.00000  Uiso   1.00
O495   O     0.66332   0.82272   0.33598   0.00000  Uiso   1.00
O496   O     0.64803   0.90332   0.31709   0.00000  Uiso   1.00
O497   O     0.79642   0.91286   0.25299   0.00000  Uiso   1.00
O498   O     0.87025   0.75381   0.24702   0.00000  Uiso   1.00
O499   O     0.89280   0.90387   0.24519   0.00000  Uiso   1.00
O500   O     0.77387   0.76279   0.25482   0.00000  Uiso   1.00
C501   C     0.84821   0.93119   0.24875   0.00000  Uiso   1.00
C502   C     0.81846   0.73548   0.25125   0.00000  Uiso   1.00
O503   O     0.78514   0.83784   0.31998   0.00000  Uiso   1.00
O504   O     0.88153   0.82883   0.18003   0.00000  Uiso   1.00
O505   O     0.88152   0.82885   0.31218   0.00000  Uiso   1.00
O506   O     0.78515   0.83781   0.18783   0.00000  Uiso   1.00
C507   C     0.83437   0.83371   0.33619   0.00000  Uiso   1.00
C508   C     0.83229   0.83296   0.16381   0.00000  Uiso   1.00
Zn509  Zn    0.76898   0.83933   0.25521   0.00000  Uiso   1.00
Zn510  Zn    0.89769   0.82734   0.24479   0.00000  Uiso   1.00
C511   C     0.81937   0.78665   0.09327   0.00000  Uiso   1.00
C512   C     0.84730   0.88001   0.40673   0.00000  Uiso   1.00
C513   C     0.83025   0.83315   0.11630   0.00000  Uiso   1.00
C514   C     0.83642   0.83352   0.38370   0.00000  Uiso   1.00
C515   C     0.84173   0.87964   0.09432   0.00000  Uiso   1.00
C516   C     0.82494   0.78702   0.40568   0.00000  Uiso   1.00
C517   C     0.84279   0.87996   0.04758   0.00000  Uiso   1.00
C518   C     0.82388   0.78671   0.45242   0.00000  Uiso   1.00
C519   C     0.83245   0.83329   0.02353   0.00000  Uiso   1.00
C520   C     0.83423   0.83337   0.47647   0.00000  Uiso   1.00
C521   C     0.82057   0.78654   0.04642   0.00000  Uiso   1.00
C522   C     0.84610   0.88013   0.45358   0.00000  Uiso   1.00
C523   C     0.85338   0.92598   0.02446   0.00000  Uiso   1.00
C524   C     0.81330   0.74069   0.47554   0.00000  Uiso   1.00
C525   C     0.85490   0.92608   0.47808   0.00000  Uiso   1.00
C526   C     0.81178   0.74058   0.02192   0.00000  Uiso   1.00
H527   H     0.86041   0.96232   0.04197   0.00000  Uiso   1.00
H528   H     0.80626   0.70435   0.45803   0.00000  Uiso   1.00
H529   H     0.86276   0.96258   0.46178   0.00000  Uiso   1.00
H530   H     0.80391   0.70409   0.03822   0.00000  Uiso   1.00
C531   C     0.85633   0.98506   0.24779   0.00000  Uiso   1.00
C532   C     0.81034   0.68161   0.25220   0.00000  Uiso   1.00
N533   N     0.98344   0.81932   0.23783   0.00000  Uiso   1.00
N534   N     0.68322   0.84735   0.26217   0.00000  Uiso   1.00
N535   N     0.80872   0.73981   0.11763   0.00000  Uiso   1.00
O536   O     0.84754   0.72365   0.14243   0.00000  Uiso   1.00
O537   O     0.75980   0.71385   0.11579   0.00000  Uiso   1.00
N538   N     0.85795   0.92686   0.38237   0.00000  Uiso   1.00
O539   O     0.81912   0.94301   0.35757   0.00000  Uiso   1.00
O540   O     0.90687   0.95281   0.38420   0.00000  Uiso   1.00
N541   N     0.85277   0.92616   0.11978   0.00000  Uiso   1.00
O542   O     0.90359   0.94913   0.11745   0.00000  Uiso   1.00
O543   O     0.81286   0.94390   0.14712   0.00000  Uiso   1.00
N544   N     0.81390   0.74051   0.38022   0.00000  Uiso   1.00
O545   O     0.76308   0.71753   0.38255   0.00000  Uiso   1.00
O546   O     0.85380   0.72277   0.35287   0.00000  Uiso   1.00
N547   N     0.91476   0.67159   0.24217   0.00000  Uiso   1.00
O548   O     0.94131   0.67039   0.20261   0.00000  Uiso   1.00
O549   O     0.94339   0.68337   0.27733   0.00000  Uiso   1.00
N550   N     0.75191   0.99508   0.25782   0.00000  Uiso   1.00
O551   O     0.72535   0.99629   0.29739   0.00000  Uiso   1.00
O552   O     0.72328   0.98329   0.22267   0.00000  Uiso   1.00
N553   N     0.67315   0.80984   0.19482   0.00000  Uiso   1.00
O554   O     0.66996   0.84386   0.16399   0.00000  Uiso   1.00
O555   O     0.68542   0.76332   0.18297   0.00000  Uiso   1.00
N556   N     0.99353   0.85680   0.30519   0.00000  Uiso   1.00
O557   O     0.99666   0.82272   0.33598   0.00000  Uiso   1.00
O558   O     0.98136   0.90332   0.31709   0.00000  Uiso   1.00
O559   O     0.12975   0.24619   0.75299   0.00000  Uiso   1.00
O560   O     0.20358   0.08714   0.74702   0.00000  Uiso   1.00
O561   O     0.22613   0.23721   0.74519   0.00000  Uiso   1.00
O562   O     0.10720   0.09613   0.75482   0.00000  Uiso   1.00
C563   C     0.18154   0.26452   0.74875   0.00000  Uiso   1.00
C564   C     0.15179   0.06881   0.75125   0.00000  Uiso   1.00
O565   O     0.11847   0.17117   0.81998   0.00000  Uiso   1.00
O566   O     0.21486   0.16216   0.68003   0.00000  Uiso   1.00
O567   O     0.21485   0.16219   0.81218   0.00000  Uiso   1.00
O568   O     0.11848   0.17115   0.68783   0.00000  Uiso   1.00
C569   C     0.16771   0.16704   0.83619   0.00000  Uiso   1.00
C570   C     0.16563   0.16629   0.66381   0.00000  Uiso   1.00
Zn571  Zn    0.10231   0.17266   0.75521   0.00000  Uiso   1.00
Zn572  Zn    0.23102   0.16067   0.74479   0.00000  Uiso   1.00
C573   C     0.15270   0.11999   0.59327   0.00000  Uiso   1.00
C574   C     0.18063   0.21334   0.90673   0.00000  Uiso   1.00
C575   C     0.16358   0.16648   0.61630   0.00000  Uiso   1.00
C576   C     0.16975   0.16685   0.88370   0.00000  Uiso   1.00
C577   C     0.17506   0.21298   0.59432   0.00000  Uiso   1.00
C578   C     0.15828   0.12035   0.90568   0.00000  Uiso   1.00
C579   C     0.17612   0.21329   0.54758   0.00000  Uiso   1.00
C580   C     0.15721   0.12004   0.95242   0.00000  Uiso   1.00
C581   C     0.16578   0.16663   0.52353   0.00000  Uiso   1.00
C582   C     0.16756   0.16670   0.97647   0.00000  Uiso   1.00
C583   C     0.15390   0.11987   0.54642   0.00000  Uiso   1.00
C584   C     0.17943   0.21346   0.95358   0.00000  Uiso   1.00
C585   C     0.18671   0.25931   0.52446   0.00000  Uiso   1.00
C586   C     0.14663   0.07402   0.97554   0.00000  Uiso   1.00
C587   C     0.18823   0.25942   0.97808   0.00000  Uiso   1.00
C588   C     0.14511   0.07391   0.52192   0.00000  Uiso   1.00
H589   H     0.19374   0.29565   0.54197   0.00000  Uiso   1.00
H590   H     0.13960   0.03768   0.95803   0.00000  Uiso   1.00
H591   H     0.19610   0.29591   0.96178   0.00000  Uiso   1.00
H592   H     0.13725   0.03742   0.53822   0.00000  Uiso   1.00
C593   C     0.18966   0.31839   0.74779   0.00000  Uiso   1.00
C594   C     0.14367   0.01494   0.75220   0.00000  Uiso   1.00
N595   N     0.31678   0.15265   0.73783   0.00000  Uiso   1.00
N596   N     0.01656   0.18068   0.76217   0.00000  Uiso   1.00
N597   N     0.14205   0.07314   0.61763   0.00000  Uiso   1.00
O598   O     0.18087   0.05699   0.64243   0.00000  Uiso   1.00
O599   O     0.09314   0.04718   0.61579   0.00000  Uiso   1.00
N600   N     0.19128   0.26019   0.88237   0.00000  Uiso   1.00
O601   O     0.15246   0.27635   0.85757   0.00000  Uiso   1.00
O602   O     0.24020   0.28615   0.88420   0.00000  Uiso   1.00
N603   N     0.18610   0.25949   0.61978   0.00000  Uiso   1.00
O604   O     0.23693   0.28246   0.61745   0.00000  Uiso   1.00
O605   O     0.14620   0.27723   0.64712   0.00000  Uiso   1.00
N606   N     0.14724   0.07384   0.88022   0.00000  Uiso   1.00
O607   O     0.09641   0.05087   0.88255   0.00000  Uiso   1.00
O608   O     0.18714   0.05610   0.85287   0.00000  Uiso   1.00
N609   N     0.24809   0.00492   0.74217   0.00000  Uiso   1.00
O610   O     0.27465   0.00373   0.70261   0.00000  Uiso   1.00
O611   O     0.27672   0.01670   0.77733   0.00000  Uiso   1.00
N612   N     0.08524   0.32841   0.75782   0.00000  Uiso   1.00
O613   O     0.05868   0.32962   0.79739   0.00000  Uiso   1.00
O614   O     0.05661   0.31662   0.72267   0.00000  Uiso   1.00
N615   N     0.00648   0.14317   0.69482   0.00000  Uiso   1.00
O616   O     0.00329   0.17719   0.66399   0.00000  Uiso   1.00
O617   O     0.01876   0.09666   0.68297   0.00000  Uiso   1.00
N618   N     0.32686   0.19013   0.80519   0.00000  Uiso   1.00
O619   O     0.32999   0.15605   0.83598   0.00000  Uiso   1.00
O620   O     0.31469   0.23665   0.81709   0.00000  Uiso   1.00
O621   O     0.46308   0.24619   0.75299   0.00000  Uiso   1.00
O622   O     0.53692   0.08714   0.74702   0.00000  Uiso   1.00
O623   O     0.55946   0.23721   0.74519   0.00000  Uiso   1.00
O624   O     0.44054   0.09613   0.75482   0.00000  Uiso   1.00
C625   C     0.51488   0.26452   0.74875   0.00000  Uiso   1.00
C626   C     0.48512   0.06881   0.75125   0.00000  Uiso   1.00
O627   O     0.45181   0.17117   0.81998   0.00000  Uiso   1.00
O628   O     0.54819   0.16216   0.68003   0.00000  Uiso   1.00
O629   O     0.54819   0.16219   0.81218   0.00000  Uiso   1.00
O630   O     0.45181   0.17115   0.68783   0.00000  Uiso   1.00
C631   C     0.50104   0.16704   0.83619   0.00000  Uiso   1.00
C632   C     0.49896   0.16629   0.66381   0.00000  Uiso   1.00
Zn633  Zn    0.43565   0.17266   0.75521   0.00000  Uiso   1.00
Zn634  Zn    0.56435   0.16067   0.74479   0.00000  Uiso   1.00
C635   C     0.48604   0.11999   0.59327   0.00000  Uiso   1.00
C636   C     0.51396   0.21334   0.90673   0.00000  Uiso   1.00
C637   C     0.49691   0.16648   0.61630   0.00000  Uiso   1.00
C638   C     0.50309   0.16685   0.88370   0.00000  Uiso   1.00
C639   C     0.50839   0.21298   0.59432   0.00000  Uiso   1.00
C640   C     0.49161   0.12035   0.90568   0.00000  Uiso   1.00
C641   C     0.50946   0.21329   0.54758   0.00000  Uiso   1.00
C642   C     0.49055   0.12004   0.95242   0.00000  Uiso   1.00
C643   C     0.49911   0.16663   0.52353   0.00000  Uiso   1.00
C644   C     0.50089   0.16670   0.97647   0.00000  Uiso   1.00
C645   C     0.48724   0.11987   0.54642   0.00000  Uiso   1.00
C646   C     0.51277   0.21346   0.95358   0.00000  Uiso   1.00
C647   C     0.52004   0.25931   0.52446   0.00000  Uiso   1.00
C648   C     0.47996   0.07402   0.97554   0.00000  Uiso   1.00
C649   C     0.52156   0.25942   0.97808   0.00000  Uiso   1.00
C650   C     0.47844   0.07391   0.52192   0.00000  Uiso   1.00
H651   H     0.52708   0.29565   0.54197   0.00000  Uiso   1.00
H652   H     0.47293   0.03768   0.95803   0.00000  Uiso   1.00
H653   H     0.52943   0.29591   0.96178   0.00000  Uiso   1.00
H654   H     0.47058   0.03742   0.53822   0.00000  Uiso   1.00
C655   C     0.52299   0.31839   0.74779   0.00000  Uiso   1.00
C656   C     0.47700   0.01494   0.75220   0.00000  Uiso   1.00
N657   N     0.65011   0.15265   0.73783   0.00000  Uiso   1.00
N658   N     0.34989   0.18068   0.76217   0.00000  Uiso   1.00
N659   N     0.47539   0.07314   0.61763   0.00000  Uiso   1.00
O660   O     0.51421   0.05699   0.64243   0.00000  Uiso   1.00
O661   O     0.42647   0.04718   0.61579   0.00000  Uiso   1.00
N662   N     0.52462   0.26019   0.88237   0.00000  Uiso   1.00
O663   O     0.48579   0.27635   0.85757   0.00000  Uiso   1.00
O664   O     0.57353   0.28615   0.88420   0.00000  Uiso   1.00
N665   N     0.51943   0.25949   0.61978   0.00000  Uiso   1.00
O666   O     0.57026   0.28246   0.61745   0.00000  Uiso   1.00
O667   O     0.47953   0.27723   0.64712   0.00000  Uiso   1.00
N668   N     0.48057   0.07384   0.88022   0.00000  Uiso   1.00
O669   O     0.42974   0.05087   0.88255   0.00000  Uiso   1.00
O670   O     0.52047   0.05610   0.85287   0.00000  Uiso   1.00
N671   N     0.58142   0.00492   0.74217   0.00000  Uiso   1.00
O672   O     0.60798   0.00373   0.70261   0.00000  Uiso   1.00
O673   O     0.61005   0.01670   0.77733   0.00000  Uiso   1.00
N674   N     0.41857   0.32841   0.75782   0.00000  Uiso   1.00
O675   O     0.39201   0.32962   0.79739   0.00000  Uiso   1.00
O676   O     0.38995   0.31662   0.72267   0.00000  Uiso   1.00
N677   N     0.33981   0.14317   0.69482   0.00000  Uiso   1.00
O678   O     0.33663   0.17719   0.66399   0.00000  Uiso   1.00
O679   O     0.35209   0.09666   0.68297   0.00000  Uiso   1.00
N680   N     0.66020   0.19013   0.80519   0.00000  Uiso   1.00
O681   O     0.66332   0.15605   0.83598   0.00000  Uiso   1.00
O682   O     0.64803   0.23665   0.81709   0.00000  Uiso   1.00
O683   O     0.79642   0.24619   0.75299   0.00000  Uiso   1.00
O684   O     0.87025   0.08714   0.74702   0.00000  Uiso   1.00
O685   O     0.89280   0.23721   0.74519   0.00000  Uiso   1.00
O686   O     0.77387   0.09613   0.75482   0.00000  Uiso   1.00
C687   C     0.84821   0.26452   0.74875   0.00000  Uiso   1.00
C688   C     0.81846   0.06881   0.75125   0.00000  Uiso   1.00
O689   O     0.78514   0.17117   0.81998   0.00000  Uiso   1.00
O690   O     0.88153   0.16216   0.68003   0.00000  Uiso   1.00
O691   O     0.88152   0.16219   0.81218   0.00000  Uiso   1.00
O692   O     0.78515   0.17115   0.68783   0.00000  Uiso   1.00
C693   C     0.83437   0.16704   0.83619   0.00000  Uiso   1.00
C694   C     0.83229   0.16629   0.66381   0.00000  Uiso   1.00
Zn695  Zn    0.76898   0.17266   0.75521   0.00000  Uiso   1.00
Zn696  Zn    0.89769   0.16067   0.74479   0.00000  Uiso   1.00
C697   C     0.81937   0.11999   0.59327   0.00000  Uiso   1.00
C698   C     0.84730   0.21334   0.90673   0.00000  Uiso   1.00
C699   C     0.83025   0.16648   0.61630   0.00000  Uiso   1.00
C700   C     0.83642   0.16685   0.88370   0.00000  Uiso   1.00
C701   C     0.84173   0.21298   0.59432   0.00000  Uiso   1.00
C702   C     0.82494   0.12035   0.90568   0.00000  Uiso   1.00
C703   C     0.84279   0.21329   0.54758   0.00000  Uiso   1.00
C704   C     0.82388   0.12004   0.95242   0.00000  Uiso   1.00
C705   C     0.83245   0.16663   0.52353   0.00000  Uiso   1.00
C706   C     0.83423   0.16670   0.97647   0.00000  Uiso   1.00
C707   C     0.82057   0.11987   0.54642   0.00000  Uiso   1.00
C708   C     0.84610   0.21346   0.95358   0.00000  Uiso   1.00
C709   C     0.85338   0.25931   0.52446   0.00000  Uiso   1.00
C710   C     0.81330   0.07402   0.97554   0.00000  Uiso   1.00
C711   C     0.85490   0.25942   0.97808   0.00000  Uiso   1.00
C712   C     0.81178   0.07391   0.52192   0.00000  Uiso   1.00
H713   H     0.86041   0.29565   0.54197   0.00000  Uiso   1.00
H714   H     0.80626   0.03768   0.95803   0.00000  Uiso   1.00
H715   H     0.86276   0.29591   0.96178   0.00000  Uiso   1.00
H716   H     0.80391   0.03742   0.53822   0.00000  Uiso   1.00
C717   C     0.85633   0.31839   0.74779   0.00000  Uiso   1.00
C718   C     0.81034   0.01494   0.75220   0.00000  Uiso   1.00
N719   N     0.98344   0.15265   0.73783   0.00000  Uiso   1.00
N720   N     0.68322   0.18068   0.76217   0.00000  Uiso   1.00
N721   N     0.80872   0.07314   0.61763   0.00000  Uiso   1.00
O722   O     0.84754   0.05699   0.64243   0.00000  Uiso   1.00
O723   O     0.75980   0.04718   0.61579   0.00000  Uiso   1.00
N724   N     0.85795   0.26019   0.88237   0.00000  Uiso   1.00
O725   O     0.81912   0.27635   0.85757   0.00000  Uiso   1.00
O726   O     0.90687   0.28615   0.88420   0.00000  Uiso   1.00
N727   N     0.85277   0.25949   0.61978   0.00000  Uiso   1.00
O728   O     0.90359   0.28246   0.61745   0.00000  Uiso   1.00
O729   O     0.81286   0.27723   0.64712   0.00000  Uiso   1.00
N730   N     0.81390   0.07384   0.88022   0.00000  Uiso   1.00
O731   O     0.76308   0.05087   0.88255   0.00000  Uiso   1.00
O732   O     0.85380   0.05610   0.85287   0.00000  Uiso   1.00
N733   N     0.91476   0.00492   0.74217   0.00000  Uiso   1.00
O734   O     0.94131   0.00373   0.70261   0.00000  Uiso   1.00
O735   O     0.94339   0.01670   0.77733   0.00000  Uiso   1.00
N736   N     0.75191   0.32841   0.75782   0.00000  Uiso   1.00
O737   O     0.72535   0.32962   0.79739   0.00000  Uiso   1.00
O738   O     0.72328   0.31662   0.72267   0.00000  Uiso   1.00
N739   N     0.67315   0.14317   0.69482   0.00000  Uiso   1.00
O740   O     0.66996   0.17719   0.66399   0.00000  Uiso   1.00
O741   O     0.68542   0.09666   0.68297   0.00000  Uiso   1.00
N742   N     0.99353   0.19013   0.80519   0.00000  Uiso   1.00
O743   O     0.99666   0.15605   0.83598   0.00000  Uiso   1.00
O744   O     0.98136   0.23665   0.81709   0.00000  Uiso   1.00
O745   O     0.12975   0.57952   0.75299   0.00000  Uiso   1.00
O746   O     0.20358   0.42048   0.74702   0.00000  Uiso   1.00
O747   O     0.22613   0.57054   0.74519   0.00000  Uiso   1.00
O748   O     0.10720   0.42946   0.75482   0.00000  Uiso   1.00
C749   C     0.18154   0.59786   0.74875   0.00000  Uiso   1.00
C750   C     0.15179   0.40214   0.75125   0.00000  Uiso   1.00
O751   O     0.11847   0.50450   0.81998   0.00000  Uiso   1.00
O752   O     0.21486   0.49550   0.68003   0.00000  Uiso   1.00
O753   O     0.21485   0.49552   0.81218   0.00000  Uiso   1.00
O754   O     0.11848   0.50448   0.68783   0.00000  Uiso   1.00
C755   C     0.16771   0.50038   0.83619   0.00000  Uiso   1.00
C756   C     0.16563   0.49962   0.66381   0.00000  Uiso   1.00
Zn757  Zn    0.10231   0.50600   0.75521   0.00000  Uiso   1.00
Zn758  Zn    0.23102   0.49400   0.74479   0.00000  Uiso   1.00
C759   C     0.15270   0.45332   0.59327   0.00000  Uiso   1.00
C760   C     0.18063   0.54668   0.90673   0.00000  Uiso   1.00
C761   C     0.16358   0.49981   0.61630   0.00000  Uiso   1.00
C762   C     0.16975   0.50018   0.88370   0.00000  Uiso   1.00
C763   C     0.17506   0.54631   0.59432   0.00000  Uiso   1.00
C764   C     0.15828   0.45369   0.90568   0.00000  Uiso   1.00
C765   C     0.17612   0.54662   0.54758   0.00000  Uiso   1.00
C766   C     0.15721   0.45338   0.95242   0.00000  Uiso   1.00
C767   C     0.16578   0.49996   0.52353   0.00000  Uiso   1.00
C768   C     0.16756   0.50004   0.97647   0.00000  Uiso   1.00
C769   C     0.15390   0.45320   0.54642   0.00000  Uiso   1.00
C770   C     0.17943   0.54680   0.95358   0.00000  Uiso   1.00
C771   C     0.18671   0.59264   0.52446   0.00000  Uiso   1.00
C772   C     0.14663   0.40735   0.97554   0.00000  Uiso   1.00
C773   C     0.18823   0.59275   0.97808   0.00000  Uiso   1.00
C774   C     0.14511   0.40725   0.52192   0.00000  Uiso   1.00
H775   H     0.19374   0.62899   0.54197   0.00000  Uiso   1.00
H776   H     0.13960   0.37101   0.95803   0.00000  Uiso   1.00
H777   H     0.19610   0.62924   0.96178   0.00000  Uiso   1.00
H778   H     0.13725   0.37076   0.53822   0.00000  Uiso   1.00
C779   C     0.18966   0.65172   0.74779   0.00000  Uiso   1.00
C780   C     0.14367   0.34828   0.75220   0.00000  Uiso   1.00
N781   N     0.31678   0.48598   0.73783   0.00000  Uiso   1.00
N782   N     0.01656   0.51402   0.76217   0.00000  Uiso   1.00
N783   N     0.14205   0.40648   0.61763   0.00000  Uiso   1.00
O784   O     0.18087   0.39032   0.64243   0.00000  Uiso   1.00
O785   O     0.09314   0.38051   0.61579   0.00000  Uiso   1.00
N786   N     0.19128   0.59352   0.88237   0.00000  Uiso   1.00
O787   O     0.15246   0.60968   0.85757   0.00000  Uiso   1.00
O788   O     0.24020   0.61948   0.88420   0.00000  Uiso   1.00
N789   N     0.18610   0.59282   0.61978   0.00000  Uiso   1.00
O790   O     0.23693   0.61580   0.61745   0.00000  Uiso   1.00
O791   O     0.14620   0.61057   0.64712   0.00000  Uiso   1.00
N792   N     0.14724   0.40718   0.88022   0.00000  Uiso   1.00
O793   O     0.09641   0.38420   0.88255   0.00000  Uiso   1.00
O794   O     0.18714   0.38943   0.85287   0.00000  Uiso   1.00
N795   N     0.24809   0.33826   0.74217   0.00000  Uiso   1.00
O796   O     0.27465   0.33706   0.70261   0.00000  Uiso   1.00
O797   O     0.27672   0.35003   0.77733   0.00000  Uiso   1.00
N798   N     0.08524   0.66174   0.75782   0.00000  Uiso   1.00
O799   O     0.05868   0.66296   0.79739   0.00000  Uiso   1.00
O800   O     0.05661   0.64996   0.72267   0.00000  Uiso   1.00
N801   N     0.00648   0.47650   0.69482   0.00000  Uiso   1.00
O802   O     0.00329   0.51052   0.66399   0.00000  Uiso   1.00
O803   O     0.01876   0.42999   0.68297   0.00000  Uiso   1.00
N804   N     0.32686   0.52346   0.80519   0.00000  Uiso   1.00
O805   O     0.32999   0.48939   0.83598   0.00000  Uiso   1.00
O806   O     0.31469   0.56999   0.81709   0.00000  Uiso   1.00
O807   O     0.46308   0.57952   0.75299   0.00000  Uiso   1.00
O808   O     0.53692   0.42048   0.74702   0.00000  Uiso   1.00
O809   O     0.55946   0.57054   0.74519   0.00000  Uiso   1.00
O810   O     0.44054   0.42946   0.75482   0.00000  Uiso   1.00
C811   C     0.51488   0.59786   0.74875   0.00000  Uiso   1.00
C812   C     0.48512   0.40214   0.75125   0.00000  Uiso   1.00
O813   O     0.45181   0.50450   0.81998   0.00000  Uiso   1.00
O814   O     0.54819   0.49550   0.68003   0.00000  Uiso   1.00
O815   O     0.54819   0.49552   0.81218   0.00000  Uiso   1.00
O816   O     0.45181   0.50448   0.68783   0.00000  Uiso   1.00
C817   C     0.50104   0.50038   0.83619   0.00000  Uiso   1.00
C818   C     0.49896   0.49962   0.66381   0.00000  Uiso   1.00
Zn819  Zn    0.43565   0.50600   0.75521   0.00000  Uiso   1.00
Zn820  Zn    0.56435   0.49400   0.74479   0.00000  Uiso   1.00
C821   C     0.48604   0.45332   0.59327   0.00000  Uiso   1.00
C822   C     0.51396   0.54668   0.90673   0.00000  Uiso   1.00
C823   C     0.49691   0.49981   0.61630   0.00000  Uiso   1.00
C824   C     0.50309   0.50018   0.88370   0.00000  Uiso   1.00
C825   C     0.50839   0.54631   0.59432   0.00000  Uiso   1.00
C826   C     0.49161   0.45369   0.90568   0.00000  Uiso   1.00
C827   C     0.50946   0.54662   0.54758   0.00000  Uiso   1.00
C828   C     0.49055   0.45338   0.95242   0.00000  Uiso   1.00
C829   C     0.49911   0.49996   0.52353   0.00000  Uiso   1.00
C830   C     0.50089   0.50004   0.97647   0.00000  Uiso   1.00
C831   C     0.48724   0.45320   0.54642   0.00000  Uiso   1.00
C832   C     0.51277   0.54680   0.95358   0.00000  Uiso   1.00
C833   C     0.52004   0.59264   0.52446   0.00000  Uiso   1.00
C834   C     0.47996   0.40735   0.97554   0.00000  Uiso   1.00
C835   C     0.52156   0.59275   0.97808   0.00000  Uiso   1.00
C836   C     0.47844   0.40725   0.52192   0.00000  Uiso   1.00
H837   H     0.52708   0.62899   0.54197   0.00000  Uiso   1.00
H838   H     0.47293   0.37101   0.95803   0.00000  Uiso   1.00
H839   H     0.52943   0.62924   0.96178   0.00000  Uiso   1.00
H840   H     0.47058   0.37076   0.53822   0.00000  Uiso   1.00
C841   C     0.52299   0.65172   0.74779   0.00000  Uiso   1.00
C842   C     0.47700   0.34828   0.75220   0.00000  Uiso   1.00
N843   N     0.65011   0.48598   0.73783   0.00000  Uiso   1.00
N844   N     0.34989   0.51402   0.76217   0.00000  Uiso   1.00
N845   N     0.47539   0.40648   0.61763   0.00000  Uiso   1.00
O846   O     0.51421   0.39032   0.64243   0.00000  Uiso   1.00
O847   O     0.42647   0.38051   0.61579   0.00000  Uiso   1.00
N848   N     0.52462   0.59352   0.88237   0.00000  Uiso   1.00
O849   O     0.48579   0.60968   0.85757   0.00000  Uiso   1.00
O850   O     0.57353   0.61948   0.88420   0.00000  Uiso   1.00
N851   N     0.51943   0.59282   0.61978   0.00000  Uiso   1.00
O852   O     0.57026   0.61580   0.61745   0.00000  Uiso   1.00
O853   O     0.47953   0.61057   0.64712   0.00000  Uiso   1.00
N854   N     0.48057   0.40718   0.88022   0.00000  Uiso   1.00
O855   O     0.42974   0.38420   0.88255   0.00000  Uiso   1.00
O856   O     0.52047   0.38943   0.85287   0.00000  Uiso   1.00
N857   N     0.58142   0.33826   0.74217   0.00000  Uiso   1.00
O858   O     0.60798   0.33706   0.70261   0.00000  Uiso   1.00
O859   O     0.61005   0.35003   0.77733   0.00000  Uiso   1.00
N860   N     0.41857   0.66174   0.75782   0.00000  Uiso   1.00
O861   O     0.39201   0.66296   0.79739   0.00000  Uiso   1.00
O862   O     0.38995   0.64996   0.72267   0.00000  Uiso   1.00
N863   N     0.33981   0.47650   0.69482   0.00000  Uiso   1.00
O864   O     0.33663   0.51052   0.66399   0.00000  Uiso   1.00
O865   O     0.35209   0.42999   0.68297   0.00000  Uiso   1.00
N866   N     0.66020   0.52346   0.80519   0.00000  Uiso   1.00
O867   O     0.66332   0.48939   0.83598   0.00000  Uiso   1.00
O868   O     0.64803   0.56999   0.81709   0.00000  Uiso   1.00
O869   O     0.79642   0.57952   0.75299   0.00000  Uiso   1.00
O870   O     0.87025   0.42048   0.74702   0.00000  Uiso   1.00
O871   O     0.89280   0.57054   0.74519   0.00000  Uiso   1.00
O872   O     0.77387   0.42946   0.75482   0.00000  Uiso   1.00
C873   C     0.84821   0.59786   0.74875   0.00000  Uiso   1.00
C874   C     0.81846   0.40214   0.75125   0.00000  Uiso   1.00
O875   O     0.78514   0.50450   0.81998   0.00000  Uiso   1.00
O876   O     0.88153   0.49550   0.68003   0.00000  Uiso   1.00
O877   O     0.88152   0.49552   0.81218   0.00000  Uiso   1.00
O878   O     0.78515   0.50448   0.68783   0.00000  Uiso   1.00
C879   C     0.83437   0.50038   0.83619   0.00000  Uiso   1.00
C880   C     0.83229   0.49962   0.66381   0.00000  Uiso   1.00
Zn881  Zn    0.76898   0.50600   0.75521   0.00000  Uiso   1.00
Zn882  Zn    0.89769   0.49400   0.74479   0.00000  Uiso   1.00
C883   C     0.81937   0.45332   0.59327   0.00000  Uiso   1.00
C884   C     0.84730   0.54668   0.90673   0.00000  Uiso   1.00
C885   C     0.83025   0.49981   0.61630   0.00000  Uiso   1.00
C886   C     0.83642   0.50018   0.88370   0.00000  Uiso   1.00
C887   C     0.84173   0.54631   0.59432   0.00000  Uiso   1.00
C888   C     0.82494   0.45369   0.90568   0.00000  Uiso   1.00
C889   C     0.84279   0.54662   0.54758   0.00000  Uiso   1.00
C890   C     0.82388   0.45338   0.95242   0.00000  Uiso   1.00
C891   C     0.83245   0.49996   0.52353   0.00000  Uiso   1.00
C892   C     0.83423   0.50004   0.97647   0.00000  Uiso   1.00
C893   C     0.82057   0.45320   0.54642   0.00000  Uiso   1.00
C894   C     0.84610   0.54680   0.95358   0.00000  Uiso   1.00
C895   C     0.85338   0.59264   0.52446   0.00000  Uiso   1.00
C896   C     0.81330   0.40735   0.97554   0.00000  Uiso   1.00
C897   C     0.85490   0.59275   0.97808   0.00000  Uiso   1.00
C898   C     0.81178   0.40725   0.52192   0.00000  Uiso   1.00
H899   H     0.86041   0.62899   0.54197   0.00000  Uiso   1.00
H900   H     0.80626   0.37101   0.95803   0.00000  Uiso   1.00
H901   H     0.86276   0.62924   0.96178   0.00000  Uiso   1.00
H902   H     0.80391   0.37076   0.53822   0.00000  Uiso   1.00
C903   C     0.85633   0.65172   0.74779   0.00000  Uiso   1.00
C904   C     0.81034   0.34828   0.75220   0.00000  Uiso   1.00
N905   N     0.98344   0.48598   0.73783   0.00000  Uiso   1.00
N906   N     0.68322   0.51402   0.76217   0.00000  Uiso   1.00
N907   N     0.80872   0.40648   0.61763   0.00000  Uiso   1.00
O908   O     0.84754   0.39032   0.64243   0.00000  Uiso   1.00
O909   O     0.75980   0.38051   0.61579   0.00000  Uiso   1.00
N910   N     0.85795   0.59352   0.88237   0.00000  Uiso   1.00
O911   O     0.81912   0.60968   0.85757   0.00000  Uiso   1.00
O912   O     0.90687   0.61948   0.88420   0.00000  Uiso   1.00
N913   N     0.85277   0.59282   0.61978   0.00000  Uiso   1.00
O914   O     0.90359   0.61580   0.61745   0.00000  Uiso   1.00
O915   O     0.81286   0.61057   0.64712   0.00000  Uiso   1.00
N916   N     0.81390   0.40718   0.88022   0.00000  Uiso   1.00
O917   O     0.76308   0.38420   0.88255   0.00000  Uiso   1.00
O918   O     0.85380   0.38943   0.85287   0.00000  Uiso   1.00
N919   N     0.91476   0.33826   0.74217   0.00000  Uiso   1.00
O920   O     0.94131   0.33706   0.70261   0.00000  Uiso   1.00
O921   O     0.94339   0.35003   0.77733   0.00000  Uiso   1.00
N922   N     0.75191   0.66174   0.75782   0.00000  Uiso   1.00
O923   O     0.72535   0.66296   0.79739   0.00000  Uiso   1.00
O924   O     0.72328   0.64996   0.72267   0.00000  Uiso   1.00
N925   N     0.67315   0.47650   0.69482   0.00000  Uiso   1.00
O926   O     0.66996   0.51052   0.66399   0.00000  Uiso   1.00
O927   O     0.68542   0.42999   0.68297   0.00000  Uiso   1.00
N928   N     0.99353   0.52346   0.80519   0.00000  Uiso   1.00
O929   O     0.99666   0.48939   0.83598   0.00000  Uiso   1.00
O930   O     0.98136   0.56999   0.81709   0.00000  Uiso   1.00
O931   O     0.12975   0.91286   0.75299   0.00000  Uiso   1.00
O932   O     0.20358   0.75381   0.74702   0.00000  Uiso   1.00
O933   O     0.22613   0.90387   0.74519   0.00000  Uiso   1.00
O934   O     0.10720   0.76279   0.75482   0.00000  Uiso   1.00
C935   C     0.18154   0.93119   0.74875   0.00000  Uiso   1.00
C936   C     0.15179   0.73548   0.75125   0.00000  Uiso   1.00
O937   O     0.11847   0.83784   0.81998   0.00000  Uiso   1.00
O938   O     0.21486   0.82883   0.68003   0.00000  Uiso   1.00
O939   O     0.21485   0.82885   0.81218   0.00000  Uiso   1.00
O940   O     0.11848   0.83781   0.68783   0.00000  Uiso   1.00
C941   C     0.16771   0.83371   0.83619   0.00000  Uiso   1.00
C942   C     0.16563   0.83296   0.66381   0.00000  Uiso   1.00
Zn943  Zn    0.10231   0.83933   0.75521   0.00000  Uiso   1.00
Zn944  Zn    0.23102   0.82734   0.74479   0.00000  Uiso   1.00
C945   C     0.15270   0.78665   0.59327   0.00000  Uiso   1.00
C946   C     0.18063   0.88001   0.90673   0.00000  Uiso   1.00
C947   C     0.16358   0.83315   0.61630   0.00000  Uiso   1.00
C948   C     0.16975   0.83352   0.88370   0.00000  Uiso   1.00
C949   C     0.17506   0.87964   0.59432   0.00000  Uiso   1.00
C950   C     0.15828   0.78702   0.90568   0.00000  Uiso   1.00
C951   C     0.17612   0.87996   0.54758   0.00000  Uiso   1.00
C952   C     0.15721   0.78671   0.95242   0.00000  Uiso   1.00
C953   C     0.16578   0.83329   0.52353   0.00000  Uiso   1.00
C954   C     0.16756   0.83337   0.97647   0.00000  Uiso   1.00
C955   C     0.15390   0.78654   0.54642   0.00000  Uiso   1.00
C956   C     0.17943   0.88013   0.95358   0.00000  Uiso   1.00
C957   C     0.18671   0.92598   0.52446   0.00000  Uiso   1.00
C958   C     0.14663   0.74069   0.97554   0.00000  Uiso   1.00
C959   C     0.18823   0.92608   0.97808   0.00000  Uiso   1.00
C960   C     0.14511   0.74058   0.52192   0.00000  Uiso   1.00
H961   H     0.19374   0.96232   0.54197   0.00000  Uiso   1.00
H962   H     0.13960   0.70435   0.95803   0.00000  Uiso   1.00
H963   H     0.19610   0.96258   0.96178   0.00000  Uiso   1.00
H964   H     0.13725   0.70409   0.53822   0.00000  Uiso   1.00
C965   C     0.18966   0.98506   0.74779   0.00000  Uiso   1.00
C966   C     0.14367   0.68161   0.75220   0.00000  Uiso   1.00
N967   N     0.31678   0.81932   0.73783   0.00000  Uiso   1.00
N968   N     0.01656   0.84735   0.76217   0.00000  Uiso   1.00
N969   N     0.14205   0.73981   0.61763   0.00000  Uiso   1.00
O970   O     0.18087   0.72365   0.64243   0.00000  Uiso   1.00
O971   O     0.09314   0.71385   0.61579   0.00000  Uiso   1.00
N972   N     0.19128   0.92686   0.88237   0.00000  Uiso   1.00
O973   O     0.15246   0.94301   0.85757   0.00000  Uiso   1.00
O974   O     0.24020   0.95281   0.88420   0.00000  Uiso   1.00
N975   N     0.18610   0.92616   0.61978   0.00000  Uiso   1.00
O976   O     0.23693   0.94913   0.61745   0.00000  Uiso   1.00
O977   O     0.14620   0.94390   0.64712   0.00000  Uiso   1.00
N978   N     0.14724   0.74051   0.88022   0.00000  Uiso   1.00
O979   O     0.09641   0.71753   0.88255   0.00000  Uiso   1.00
O980   O     0.18714   0.72277   0.85287   0.00000  Uiso   1.00
N981   N     0.24809   0.67159   0.74217   0.00000  Uiso   1.00
O982   O     0.27465   0.67039   0.70261   0.00000  Uiso   1.00
O983   O     0.27672   0.68337   0.77733   0.00000  Uiso   1.00
N984   N     0.08524   0.99508   0.75782   0.00000  Uiso   1.00
O985   O     0.05868   0.99629   0.79739   0.00000  Uiso   1.00
O986   O     0.05661   0.98329   0.72267   0.00000  Uiso   1.00
N987   N     0.00648   0.80984   0.69482   0.00000  Uiso   1.00
O988   O     0.00329   0.84386   0.66399   0.00000  Uiso   1.00
O989   O     0.01876   0.76332   0.68297   0.00000  Uiso   1.00
N990   N     0.32686   0.85680   0.80519   0.00000  Uiso   1.00
O991   O     0.32999   0.82272   0.83598   0.00000  Uiso   1.00
O992   O     0.31469   0.90332   0.81709   0.00000  Uiso   1.00
O993   O     0.46308   0.91286   0.75299   0.00000  Uiso   1.00
O994   O     0.53692   0.75381   0.74702   0.00000  Uiso   1.00
O995   O     0.55946   0.90387   0.74519   0.00000  Uiso   1.00
O996   O     0.44054   0.76279   0.75482   0.00000  Uiso   1.00
C997   C     0.51488   0.93119   0.74875   0.00000  Uiso   1.00
C998   C     0.48512   0.73548   0.75125   0.00000  Uiso   1.00
O999   O     0.45181   0.83784   0.81998   0.00000  Uiso   1.00
O1000  O     0.54819   0.82883   0.68003   0.00000  Uiso   1.00
O1001  O     0.54819   0.82885   0.81218   0.00000  Uiso   1.00
O1002  O     0.45181   0.83781   0.68783   0.00000  Uiso   1.00
C1003  C     0.50104   0.83371   0.83619   0.00000  Uiso   1.00
C1004  C     0.49896   0.83296   0.66381   0.00000  Uiso   1.00
Zn1005 Zn    0.43565   0.83933   0.75521   0.00000  Uiso   1.00
Zn1006 Zn    0.56435   0.82734   0.74479   0.00000  Uiso   1.00
C1007  C     0.48604   0.78665   0.59327   0.00000  Uiso   1.00
C1008  C     0.51396   0.88001   0.90673   0.00000  Uiso   1.00
C1009  C     0.49691   0.83315   0.61630   0.00000  Uiso   1.00
C1010  C     0.50309   0.83352   0.88370   0.00000  Uiso   1.00
C1011  C     0.50839   0.87964   0.59432   0.00000  Uiso   1.00
C1012  C     0.49161   0.78702   0.90568   0.00000  Uiso   1.00
C1013  C     0.50946   0.87996   0.54758   0.00000  Uiso   1.00
C1014  C     0.49055   0.78671   0.95242   0.00000  Uiso   1.00
C1015  C     0.49911   0.83329   0.52353   0.00000  Uiso   1.00
C1016  C     0.50089   0.83337   0.97647   0.00000  Uiso   1.00
C1017  C     0.48724   0.78654   0.54642   0.00000  Uiso   1.00
C1018  C     0.51277   0.88013   0.95358   0.00000  Uiso   1.00
C1019  C     0.52004   0.92598   0.52446   0.00000  Uiso   1.00
C1020  C     0.47996   0.74069   0.97554   0.00000  Uiso   1.00
C1021  C     0.52156   0.92608   0.97808   0.00000  Uiso   1.00
C1022  C     0.47844   0.74058   0.52192   0.00000  Uiso   1.00
H1023  H     0.52708   0.96232   0.54197   0.00000  Uiso   1.00
H1024  H     0.47293   0.70435   0.95803   0.00000  Uiso   1.00
H1025  H     0.52943   0.96258   0.96178   0.00000  Uiso   1.00
H1026  H     0.47058   0.70409   0.53822   0.00000  Uiso   1.00
C1027  C     0.52299   0.98506   0.74779   0.00000  Uiso   1.00
C1028  C     0.47700   0.68161   0.75220   0.00000  Uiso   1.00
N1029  N     0.65011   0.81932   0.73783   0.00000  Uiso   1.00
N1030  N     0.34989   0.84735   0.76217   0.00000  Uiso   1.00
N1031  N     0.47539   0.73981   0.61763   0.00000  Uiso   1.00
O1032  O     0.51421   0.72365   0.64243   0.00000  Uiso   1.00
O1033  O     0.42647   0.71385   0.61579   0.00000  Uiso   1.00
N1034  N     0.52462   0.92686   0.88237   0.00000  Uiso   1.00
O1035  O     0.48579   0.94301   0.85757   0.00000  Uiso   1.00
O1036  O     0.57353   0.95281   0.88420   0.00000  Uiso   1.00
N1037  N     0.51943   0.92616   0.61978   0.00000  Uiso   1.00
O1038  O     0.57026   0.94913   0.61745   0.00000  Uiso   1.00
O1039  O     0.47953   0.94390   0.64712   0.00000  Uiso   1.00
N1040  N     0.48057   0.74051   0.88022   0.00000  Uiso   1.00
O1041  O     0.42974   0.71753   0.88255   0.00000  Uiso   1.00
O1042  O     0.52047   0.72277   0.85287   0.00000  Uiso   1.00
N1043  N     0.58142   0.67159   0.74217   0.00000  Uiso   1.00
O1044  O     0.60798   0.67039   0.70261   0.00000  Uiso   1.00
O1045  O     0.61005   0.68337   0.77733   0.00000  Uiso   1.00
N1046  N     0.41857   0.99508   0.75782   0.00000  Uiso   1.00
O1047  O     0.39201   0.99629   0.79739   0.00000  Uiso   1.00
O1048  O     0.38995   0.98329   0.72267   0.00000  Uiso   1.00
N1049  N     0.33981   0.80984   0.69482   0.00000  Uiso   1.00
O1050  O     0.33663   0.84386   0.66399   0.00000  Uiso   1.00
O1051  O     0.35209   0.76332   0.68297   0.00000  Uiso   1.00
N1052  N     0.66020   0.85680   0.80519   0.00000  Uiso   1.00
O1053  O     0.66332   0.82272   0.83598   0.00000  Uiso   1.00
O1054  O     0.64803   0.90332   0.81709   0.00000  Uiso   1.00
O1055  O     0.79642   0.91286   0.75299   0.00000  Uiso   1.00
O1056  O     0.87025   0.75381   0.74702   0.00000  Uiso   1.00
O1057  O     0.89280   0.90387   0.74519   0.00000  Uiso   1.00
O1058  O     0.77387   0.76279   0.75482   0.00000  Uiso   1.00
C1059  C     0.84821   0.93119   0.74875   0.00000  Uiso   1.00
C1060  C     0.81846   0.73548   0.75125   0.00000  Uiso   1.00
O1061  O     0.78514   0.83784   0.81998   0.00000  Uiso   1.00
O1062  O     0.88153   0.82883   0.68003   0.00000  Uiso   1.00
O1063  O     0.88152   0.82885   0.81218   0.00000  Uiso   1.00
O1064  O     0.78515   0.83781   0.68783   0.00000  Uiso   1.00
C1065  C     0.83437   0.83371   0.83619   0.00000  Uiso   1.00
C1066  C     0.83229   0.83296   0.66381   0.00000  Uiso   1.00
Zn1067 Zn    0.76898   0.83933   0.75521   0.00000  Uiso   1.00
Zn1068 Zn    0.89769   0.82734   0.74479   0.00000  Uiso   1.00
C1069  C     0.81937   0.78665   0.59327   0.00000  Uiso   1.00
C1070  C     0.84730   0.88001   0.90673   0.00000  Uiso   1.00
C1071  C     0.83025   0.83315   0.61630   0.00000  Uiso   1.00
C1072  C     0.83642   0.83352   0.88370   0.00000  Uiso   1.00
C1073  C     0.84173   0.87964   0.59432   0.00000  Uiso   1.00
C1074  C     0.82494   0.78702   0.90568   0.00000  Uiso   1.00
C1075  C     0.84279   0.87996   0.54758   0.00000  Uiso   1.00
C1076  C     0.82388   0.78671   0.95242   0.00000  Uiso   1.00
C1077  C     0.83245   0.83329   0.52353   0.00000  Uiso   1.00
C1078  C     0.83423   0.83337   0.97647   0.00000  Uiso   1.00
C1079  C     0.82057   0.78654   0.54642   0.00000  Uiso   1.00
C1080  C     0.84610   0.88013   0.95358   0.00000  Uiso   1.00
C1081  C     0.85338   0.92598   0.52446   0.00000  Uiso   1.00
C1082  C     0.81330   0.74069   0.97554   0.00000  Uiso   1.00
C1083  C     0.85490   0.92608   0.97808   0.00000  Uiso   1.00
C1084  C     0.81178   0.74058   0.52192   0.00000  Uiso   1.00
H1085  H     0.86041   0.96232   0.54197   0.00000  Uiso   1.00
H1086  H     0.80626   0.70435   0.95803   0.00000  Uiso   1.00
H1087  H     0.86276   0.96258   0.96178   0.00000  Uiso   1.00
H1088  H     0.80391   0.70409   0.53822   0.00000  Uiso   1.00
C1089  C     0.85633   0.98506   0.74779   0.00000  Uiso   1.00
C1090  C     0.81034   0.68161   0.75220   0.00000  Uiso   1.00
N1091  N     0.98344   0.81932   0.73783   0.00000  Uiso   1.00
N1092  N     0.68322   0.84735   0.76217   0.00000  Uiso   1.00
N1093  N     0.80872   0.73981   0.61763   0.00000  Uiso   1.00
O1094  O     0.84754   0.72365   0.64243   0.00000  Uiso   1.00
O1095  O     0.75980   0.71385   0.61579   0.00000  Uiso   1.00
N1096  N     0.85795   0.92686   0.88237   0.00000  Uiso   1.00
O1097  O     0.81912   0.94301   0.85757   0.00000  Uiso   1.00
O1098  O     0.90687   0.95281   0.88420   0.00000  Uiso   1.00
N1099  N     0.85277   0.92616   0.61978   0.00000  Uiso   1.00
O1100  O     0.90359   0.94913   0.61745   0.00000  Uiso   1.00
O1101  O     0.81286   0.94390   0.64712   0.00000  Uiso   1.00
N1102  N     0.81390   0.74051   0.88022   0.00000  Uiso   1.00
O1103  O     0.76308   0.71753   0.88255   0.00000  Uiso   1.00
O1104  O     0.85380   0.72277   0.85287   0.00000  Uiso   1.00
N1105  N     0.91476   0.67159   0.74217   0.00000  Uiso   1.00
O1106  O     0.94131   0.67039   0.70261   0.00000  Uiso   1.00
O1107  O     0.94339   0.68337   0.77733   0.00000  Uiso   1.00
N1108  N     0.75191   0.99508   0.75782   0.00000  Uiso   1.00
O1109  O     0.72535   0.99629   0.79739   0.00000  Uiso   1.00
O1110  O     0.72328   0.98329   0.72267   0.00000  Uiso   1.00
N1111  N     0.67315   0.80984   0.69482   0.00000  Uiso   1.00
O1112  O     0.66996   0.84386   0.66399   0.00000  Uiso   1.00
O1113  O     0.68542   0.76332   0.68297   0.00000  Uiso   1.00
N1114  N     0.99353   0.85680   0.80519   0.00000  Uiso   1.00
O1115  O     0.99666   0.82272   0.83598   0.00000  Uiso   1.00
O1116  O     0.98136   0.90332   0.81709   0.00000  Uiso   1.00
loop_
_geom_bond_atom_site_label_1
_geom_bond_atom_site_label_2
_geom_bond_distance
_geom_bond_site_symmetry_2
_ccdc_geom_bond_type
O1     Zn13    1.990   .     S
O1     C5      1.278   .     A
O2     Zn14    1.990   .     S
O2     C6      1.278   .     A
O3     C5      1.295   .     A
O3     Zn14    2.007   .     S
O4     C6      1.295   .     A
O4     Zn13    2.007   .     S
C5     C35     1.408   .     S
C6     C36     1.408   .     S
O7     Zn13    1.993   .     S
O7     C11     1.288   .     A
O8     C12     1.288   .     A
O8     Zn14    1.993   .     S
O9     Zn14    2.022   .     S
O9     C11     1.289   .     A
O10    C12     1.289   .     A
O10    Zn13    2.022   .     S
C11    C18     1.421   .     S
C12    C17     1.421   .     S
Zn13   N38     2.029   .     S
Zn14   N37     2.029   .     S
C15    N39     1.438   .     S
C15    C25     1.396   .     A
C15    C17     1.399   .     A
C16    N42     1.438   .     S
C16    C26     1.396   .     A
C16    C18     1.399   .     A
C17    C19     1.397   .     A
C18    C20     1.397   .     A
C19    N45     1.436   .     S
C19    C21     1.393   .     A
C20    N48     1.436   .     S
C20    C22     1.393   .     A
C21    C27     1.401   .     A
C21    C23     1.416   .     A
C22    C24     1.416   .     A
C22    C28     1.401   .     A
C23    C25     1.417   .     A
C23    C582    1.402   1_554 S
C24    C26     1.417   .     A
C24    C581    1.402   .     S
C25    C30     1.402   .     A
C26    C29     1.402   .     A
C27    H31     1.081   .     S
C27    C587    1.382   1_554 S
C28    H32     1.081   .     S
C28    C588    1.382   .     S
C29    H33     1.080   .     S
C29    C585    1.382   .     S
C30    H34     1.080   .     S
C30    C586    1.382   1_554 S
C35    C222    1.363   .     S
C35    N237    1.437   .     S
C36    C407    1.363   1_545 S
C36    N426    1.437   1_545 S
N37    N100    1.282   .     S
N37    N119    1.383   .     S
N38    N161    1.282   1_455 S
N38    N184    1.383   1_455 S
N39    O41     1.301   .     A
N39    O40     1.301   .     A
N42    O44     1.301   .     A
N42    O43     1.301   .     A
N45    O46     1.301   .     A
N45    O47     1.300   .     A
N48    O50     1.300   .     A
N48    O49     1.301   .     A
N51    O52     1.300   .     A
N51    O53     1.301   .     A
N51    C407    1.437   1_545 S
N54    O56     1.301   .     A
N54    O55     1.300   .     A
N54    C222    1.437   .     S
N57    O59     1.299   .     A
N57    O58     1.301   .     A
N57    N161    1.383   1_455 S
N60    O62     1.299   .     A
N60    O61     1.301   .     A
N60    N100    1.383   .     S
O63    Zn75    1.990   .     S
O63    C67     1.278   .     A
O64    Zn76    1.990   .     S
O64    C68     1.278   .     A
O65    C67     1.295   .     A
O65    Zn76    2.007   .     S
O66    C68     1.295   .     A
O66    Zn75    2.007   .     S
C67    C97     1.408   .     S
C68    C98     1.408   .     S
O69    Zn75    1.993   .     S
O69    C73     1.288   .     A
O70    C74     1.288   .     A
O70    Zn76    1.993   .     S
O71    Zn76    2.022   .     S
O71    C73     1.289   .     A
O72    C74     1.289   .     A
O72    Zn75    2.022   .     S
C73    C80     1.421   .     S
C74    C79     1.421   .     S
Zn75   N100    2.029   .     S
Zn76   N99     2.029   .     S
C77    N101    1.438   .     S
C77    C87     1.396   .     A
C77    C79     1.399   .     A
C78    N104    1.438   .     S
C78    C88     1.396   .     A
C78    C80     1.399   .     A
C79    C81     1.397   .     A
C80    C82     1.397   .     A
C81    N107    1.436   .     S
C81    C83     1.393   .     A
C82    N110    1.436   .     S
C82    C84     1.393   .     A
C83    C89     1.401   .     A
C83    C85     1.416   .     A
C84    C86     1.416   .     A
C84    C90     1.401   .     A
C85    C87     1.417   .     A
C85    C644    1.402   1_554 S
C86    C88     1.417   .     A
C86    C643    1.402   .     S
C87    C92     1.402   .     A
C88    C91     1.402   .     A
C89    H93     1.081   .     S
C89    C649    1.382   1_554 S
C90    H94     1.081   .     S
C90    C650    1.382   .     S
C91    H95     1.080   .     S
C91    C647    1.382   .     S
C92    H96     1.080   .     S
C92    C648    1.382   1_554 S
C97    C284    1.363   .     S
C97    N299    1.437   .     S
C98    C469    1.363   1_545 S
C98    N488    1.437   1_545 S
N99    N162    1.282   .     S
N99    N181    1.383   .     S
N101   O103    1.301   .     A
N101   O102    1.301   .     A
N104   O106    1.301   .     A
N104   O105    1.301   .     A
N107   O108    1.301   .     A
N107   O109    1.300   .     A
N110   O112    1.300   .     A
N110   O111    1.301   .     A
N113   O114    1.300   .     A
N113   O115    1.301   .     A
N113   C469    1.437   1_545 S
N116   O118    1.301   .     A
N116   O117    1.300   .     A
N116   C284    1.437   .     S
N119   O121    1.299   .     A
N119   O120    1.301   .     A
N122   O124    1.299   .     A
N122   O123    1.301   .     A
N122   N162    1.383   .     S
O125   Zn137   1.990   .     S
O125   C129    1.278   .     A
O126   Zn138   1.990   .     S
O126   C130    1.278   .     A
O127   C129    1.295   .     A
O127   Zn138   2.007   .     S
O128   C130    1.295   .     A
O128   Zn137   2.007   .     S
C129   C159    1.408   .     S
C130   C160    1.408   .     S
O131   Zn137   1.993   .     S
O131   C135    1.288   .     A
O132   C136    1.288   .     A
O132   Zn138   1.993   .     S
O133   Zn138   2.022   .     S
O133   C135    1.289   .     A
O134   C136    1.289   .     A
O134   Zn137   2.022   .     S
C135   C142    1.421   .     S
C136   C141    1.421   .     S
Zn137  N162    2.029   .     S
Zn138  N161    2.029   .     S
C139   N163    1.438   .     S
C139   C149    1.396   .     A
C139   C141    1.399   .     A
C140   N166    1.438   .     S
C140   C150    1.396   .     A
C140   C142    1.399   .     A
C141   C143    1.397   .     A
C142   C144    1.397   .     A
C143   N169    1.436   .     S
C143   C145    1.393   .     A
C144   N172    1.436   .     S
C144   C146    1.393   .     A
C145   C151    1.401   .     A
C145   C147    1.416   .     A
C146   C148    1.416   .     A
C146   C152    1.401   .     A
C147   C149    1.417   .     A
C147   C706    1.402   1_554 S
C148   C150    1.417   .     A
C148   C705    1.402   .     S
C149   C154    1.402   .     A
C150   C153    1.402   .     A
C151   H155    1.081   .     S
C151   C711    1.382   1_554 S
C152   H156    1.081   .     S
C152   C712    1.382   .     S
C153   H157    1.080   .     S
C153   C709    1.382   .     S
C154   H158    1.080   .     S
C154   C710    1.382   1_554 S
C159   C346    1.363   .     S
C159   N361    1.437   .     S
C160   C531    1.363   1_545 S
C160   N550    1.437   1_545 S
N161   N38     1.282   1_655 S
N161   N57     1.383   1_655 S
N163   O165    1.301   .     A
N163   O164    1.301   .     A
N166   O168    1.301   .     A
N166   O167    1.301   .     A
N169   O170    1.301   .     A
N169   O171    1.300   .     A
N172   O174    1.300   .     A
N172   O173    1.301   .     A
N175   O176    1.300   .     A
N175   O177    1.301   .     A
N175   C531    1.437   1_545 S
N178   O180    1.301   .     A
N178   O179    1.300   .     A
N178   C346    1.437   .     S
N181   O183    1.299   .     A
N181   O182    1.301   .     A
N184   O186    1.299   .     A
N184   O185    1.301   .     A
N184   N38     1.383   1_655 S
O187   Zn199   1.990   .     S
O187   C191    1.278   .     A
O188   Zn200   1.990   .     S
O188   C192    1.278   .     A
O189   C191    1.295   .     A
O189   Zn200   2.007   .     S
O190   C192    1.295   .     A
O190   Zn199   2.007   .     S
C191   C221    1.408   .     S
C192   C222    1.408   .     S
O193   Zn199   1.993   .     S
O193   C197    1.288   .     A
O194   C198    1.288   .     A
O194   Zn200   1.993   .     S
O195   Zn200   2.022   .     S
O195   C197    1.289   .     A
O196   C198    1.289   .     A
O196   Zn199   2.022   .     S
C197   C204    1.421   .     S
C198   C203    1.421   .     S
Zn199  N224    2.029   .     S
Zn200  N223    2.029   .     S
C201   N225    1.438   .     S
C201   C211    1.396   .     A
C201   C203    1.399   .     A
C202   N228    1.438   .     S
C202   C212    1.396   .     A
C202   C204    1.399   .     A
C203   C205    1.397   .     A
C204   C206    1.397   .     A
C205   N231    1.436   .     S
C205   C207    1.393   .     A
C206   N234    1.436   .     S
C206   C208    1.393   .     A
C207   C213    1.401   .     A
C207   C209    1.416   .     A
C208   C210    1.416   .     A
C208   C214    1.401   .     A
C209   C211    1.417   .     A
C209   C768    1.402   1_554 S
C210   C212    1.417   .     A
C210   C767    1.402   .     S
C211   C216    1.402   .     A
C212   C215    1.402   .     A
C213   H217    1.081   .     S
C213   C773    1.382   1_554 S
C214   H218    1.081   .     S
C214   C774    1.382   .     S
C215   H219    1.080   .     S
C215   C771    1.382   .     S
C216   H220    1.080   .     S
C216   C772    1.382   1_554 S
C221   C408    1.363   .     S
C221   N423    1.437   .     S
N223   N286    1.282   .     S
N223   N305    1.383   .     S
N224   N347    1.282   1_455 S
N224   N370    1.383   1_455 S
N225   O227    1.301   .     A
N225   O226    1.301   .     A
N228   O230    1.301   .     A
N228   O229    1.301   .     A
N231   O232    1.301   .     A
N231   O233    1.300   .     A
N234   O236    1.300   .     A
N234   O235    1.301   .     A
N237   O238    1.300   .     A
N237   O239    1.301   .     A
N240   O242    1.301   .     A
N240   O241    1.300   .     A
N240   C408    1.437   .     S
N243   O245    1.299   .     A
N243   O244    1.301   .     A
N243   N347    1.383   1_455 S
N246   O248    1.299   .     A
N246   O247    1.301   .     A
N246   N286    1.383   .     S
O249   Zn261   1.990   .     S
O249   C253    1.278   .     A
O250   Zn262   1.990   .     S
O250   C254    1.278   .     A
O251   C253    1.295   .     A
O251   Zn262   2.007   .     S
O252   C254    1.295   .     A
O252   Zn261   2.007   .     S
C253   C283    1.408   .     S
C254   C284    1.408   .     S
O255   Zn261   1.993   .     S
O255   C259    1.288   .     A
O256   C260    1.288   .     A
O256   Zn262   1.993   .     S
O257   Zn262   2.022   .     S
O257   C259    1.289   .     A
O258   C260    1.289   .     A
O258   Zn261   2.022   .     S
C259   C266    1.421   .     S
C260   C265    1.421   .     S
Zn261  N286    2.029   .     S
Zn262  N285    2.029   .     S
C263   N287    1.438   .     S
C263   C273    1.396   .     A
C263   C265    1.399   .     A
C264   N290    1.438   .     S
C264   C274    1.396   .     A
C264   C266    1.399   .     A
C265   C267    1.397   .     A
C266   C268    1.397   .     A
C267   N293    1.436   .     S
C267   C269    1.393   .     A
C268   N296    1.436   .     S
C268   C270    1.393   .     A
C269   C275    1.401   .     A
C269   C271    1.416   .     A
C270   C272    1.416   .     A
C270   C276    1.401   .     A
C271   C273    1.417   .     A
C271   C830    1.402   1_554 S
C272   C274    1.417   .     A
C272   C829    1.402   .     S
C273   C278    1.402   .     A
C274   C277    1.402   .     A
C275   H279    1.081   .     S
C275   C835    1.382   1_554 S
C276   H280    1.081   .     S
C276   C836    1.382   .     S
C277   H281    1.080   .     S
C277   C833    1.382   .     S
C278   H282    1.080   .     S
C278   C834    1.382   1_554 S
C283   C470    1.363   .     S
C283   N485    1.437   .     S
N285   N348    1.282   .     S
N285   N367    1.383   .     S
N287   O289    1.301   .     A
N287   O288    1.301   .     A
N290   O292    1.301   .     A
N290   O291    1.301   .     A
N293   O294    1.301   .     A
N293   O295    1.300   .     A
N296   O298    1.300   .     A
N296   O297    1.301   .     A
N299   O300    1.300   .     A
N299   O301    1.301   .     A
N302   O304    1.301   .     A
N302   O303    1.300   .     A
N302   C470    1.437   .     S
N305   O307    1.299   .     A
N305   O306    1.301   .     A
N308   O310    1.299   .     A
N308   O309    1.301   .     A
N308   N348    1.383   .     S
O311   Zn323   1.990   .     S
O311   C315    1.278   .     A
O312   Zn324   1.990   .     S
O312   C316    1.278   .     A
O313   C315    1.295   .     A
O313   Zn324   2.007   .     S
O314   C316    1.295   .     A
O314   Zn323   2.007   .     S
C315   C345    1.408   .     S
C316   C346    1.408   .     S
O317   Zn323   1.993   .     S
O317   C321    1.288   .     A
O318   C322    1.288   .     A
O318   Zn324   1.993   .     S
O319   Zn324   2.022   .     S
O319   C321    1.289   .     A
O320   C322    1.289   .     A
O320   Zn323   2.022   .     S
C321   C328    1.421   .     S
C322   C327    1.421   .     S
Zn323  N348    2.029   .     S
Zn324  N347    2.029   .     S
C325   N349    1.438   .     S
C325   C335    1.396   .     A
C325   C327    1.399   .     A
C326   N352    1.438   .     S
C326   C336    1.396   .     A
C326   C328    1.399   .     A
C327   C329    1.397   .     A
C328   C330    1.397   .     A
C329   N355    1.436   .     S
C329   C331    1.393   .     A
C330   N358    1.436   .     S
C330   C332    1.393   .     A
C331   C337    1.401   .     A
C331   C333    1.416   .     A
C332   C334    1.416   .     A
C332   C338    1.401   .     A
C333   C335    1.417   .     A
C333   C892    1.402   1_554 S
C334   C336    1.417   .     A
C334   C891    1.402   .     S
C335   C340    1.402   .     A
C336   C339    1.402   .     A
C337   H341    1.081   .     S
C337   C897    1.382   1_554 S
C338   H342    1.081   .     S
C338   C898    1.382   .     S
C339   H343    1.080   .     S
C339   C895    1.382   .     S
C340   H344    1.080   .     S
C340   C896    1.382   1_554 S
C345   C532    1.363   .     S
C345   N547    1.437   .     S
N347   N224    1.282   1_655 S
N347   N243    1.383   1_655 S
N349   O351    1.301   .     A
N349   O350    1.301   .     A
N352   O354    1.301   .     A
N352   O353    1.301   .     A
N355   O356    1.301   .     A
N355   O357    1.300   .     A
N358   O360    1.300   .     A
N358   O359    1.301   .     A
N361   O362    1.300   .     A
N361   O363    1.301   .     A
N364   O366    1.301   .     A
N364   O365    1.300   .     A
N364   C532    1.437   .     S
N367   O369    1.299   .     A
N367   O368    1.301   .     A
N370   O372    1.299   .     A
N370   O371    1.301   .     A
N370   N224    1.383   1_655 S
O373   Zn385   1.990   .     S
O373   C377    1.278   .     A
O374   Zn386   1.990   .     S
O374   C378    1.278   .     A
O375   C377    1.295   .     A
O375   Zn386   2.007   .     S
O376   C378    1.295   .     A
O376   Zn385   2.007   .     S
C377   C407    1.408   .     S
C378   C408    1.408   .     S
O379   Zn385   1.993   .     S
O379   C383    1.288   .     A
O380   C384    1.288   .     A
O380   Zn386   1.993   .     S
O381   Zn386   2.022   .     S
O381   C383    1.289   .     A
O382   C384    1.289   .     A
O382   Zn385   2.022   .     S
C383   C390    1.421   .     S
C384   C389    1.421   .     S
Zn385  N410    2.029   .     S
Zn386  N409    2.029   .     S
C387   N411    1.438   .     S
C387   C397    1.396   .     A
C387   C389    1.399   .     A
C388   N414    1.438   .     S
C388   C398    1.396   .     A
C388   C390    1.399   .     A
C389   C391    1.397   .     A
C390   C392    1.397   .     A
C391   N417    1.436   .     S
C391   C393    1.393   .     A
C392   N420    1.436   .     S
C392   C394    1.393   .     A
C393   C399    1.401   .     A
C393   C395    1.416   .     A
C394   C396    1.416   .     A
C394   C400    1.401   .     A
C395   C397    1.417   .     A
C395   C954    1.402   1_554 S
C396   C398    1.417   .     A
C396   C953    1.402   .     S
C397   C402    1.402   .     A
C398   C401    1.402   .     A
C399   H403    1.081   .     S
C399   C959    1.382   1_554 S
C400   H404    1.081   .     S
C400   C960    1.382   .     S
C401   H405    1.080   .     S
C401   C957    1.382   .     S
C402   H406    1.080   .     S
C402   C958    1.382   1_554 S
C407   C36     1.363   1_565 S
C407   N51     1.437   1_565 S
N409   N472    1.282   .     S
N409   N491    1.383   .     S
N410   N533    1.282   1_455 S
N410   N556    1.383   1_455 S
N411   O413    1.301   .     A
N411   O412    1.301   .     A
N414   O416    1.301   .     A
N414   O415    1.301   .     A
N417   O418    1.301   .     A
N417   O419    1.300   .     A
N420   O422    1.300   .     A
N420   O421    1.301   .     A
N423   O424    1.300   .     A
N423   O425    1.301   .     A
N426   O428    1.301   .     A
N426   O427    1.300   .     A
N426   C36     1.437   1_565 S
N429   O431    1.299   .     A
N429   O430    1.301   .     A
N429   N533    1.383   1_455 S
N432   O434    1.299   .     A
N432   O433    1.301   .     A
N432   N472    1.383   .     S
O435   Zn447   1.990   .     S
O435   C439    1.278   .     A
O436   Zn448   1.990   .     S
O436   C440    1.278   .     A
O437   C439    1.295   .     A
O437   Zn448   2.007   .     S
O438   C440    1.295   .     A
O438   Zn447   2.007   .     S
C439   C469    1.408   .     S
C440   C470    1.408   .     S
O441   Zn447   1.993   .     S
O441   C445    1.288   .     A
O442   C446    1.288   .     A
O442   Zn448   1.993   .     S
O443   Zn448   2.022   .     S
O443   C445    1.289   .     A
O444   C446    1.289   .     A
O444   Zn447   2.022   .     S
C445   C452    1.421   .     S
C446   C451    1.421   .     S
Zn447  N472    2.029   .     S
Zn448  N471    2.029   .     S
C449   N473    1.438   .     S
C449   C459    1.396   .     A
C449   C451    1.399   .     A
C450   N476    1.438   .     S
C450   C460    1.396   .     A
C450   C452    1.399   .     A
C451   C453    1.397   .     A
C452   C454    1.397   .     A
C453   N479    1.436   .     S
C453   C455    1.393   .     A
C454   N482    1.436   .     S
C454   C456    1.393   .     A
C455   C461    1.401   .     A
C455   C457    1.416   .     A
C456   C458    1.416   .     A
C456   C462    1.401   .     A
C457   C459    1.417   .     A
C457   C1016   1.402   1_554 S
C458   C460    1.417   .     A
C458   C1015   1.402   .     S
C459   C464    1.402   .     A
C460   C463    1.402   .     A
C461   H465    1.081   .     S
C461   C1021   1.382   1_554 S
C462   H466    1.081   .     S
C462   C1022   1.382   .     S
C463   H467    1.080   .     S
C463   C1019   1.382   .     S
C464   H468    1.080   .     S
C464   C1020   1.382   1_554 S
C469   C98     1.363   1_565 S
C469   N113    1.437   1_565 S
N471   N534    1.282   .     S
N471   N553    1.383   .     S
N473   O475    1.301   .     A
N473   O474    1.301   .     A
N476   O478    1.301   .     A
N476   O477    1.301   .     A
N479   O480    1.301   .     A
N479   O481    1.300   .     A
N482   O484    1.300   .     A
N482   O483    1.301   .     A
N485   O486    1.300   .     A
N485   O487    1.301   .     A
N488   O490    1.301   .     A
N488   O489    1.300   .     A
N488   C98     1.437   1_565 S
N491   O493    1.299   .     A
N491   O492    1.301   .     A
N494   O496    1.299   .     A
N494   O495    1.301   .     A
N494   N534    1.383   .     S
O497   Zn509   1.990   .     S
O497   C501    1.278   .     A
O498   Zn510   1.990   .     S
O498   C502    1.278   .     A
O499   C501    1.295   .     A
O499   Zn510   2.007   .     S
O500   C502    1.295   .     A
O500   Zn509   2.007   .     S
C501   C531    1.408   .     S
C502   C532    1.408   .     S
O503   Zn509   1.993   .     S
O503   C507    1.288   .     A
O504   C508    1.288   .     A
O504   Zn510   1.993   .     S
O505   Zn510   2.022   .     S
O505   C507    1.289   .     A
O506   C508    1.289   .     A
O506   Zn509   2.022   .     S
C507   C514    1.421   .     S
C508   C513    1.421   .     S
Zn509  N534    2.029   .     S
Zn510  N533    2.029   .     S
C511   N535    1.438   .     S
C511   C521    1.396   .     A
C511   C513    1.399   .     A
C512   N538    1.438   .     S
C512   C522    1.396   .     A
C512   C514    1.399   .     A
C513   C515    1.397   .     A
C514   C516    1.397   .     A
C515   N541    1.436   .     S
C515   C517    1.393   .     A
C516   N544    1.436   .     S
C516   C518    1.393   .     A
C517   C523    1.401   .     A
C517   C519    1.416   .     A
C518   C520    1.416   .     A
C518   C524    1.401   .     A
C519   C521    1.417   .     A
C519   C1078   1.402   1_554 S
C520   C522    1.417   .     A
C520   C1077   1.402   .     S
C521   C526    1.402   .     A
C522   C525    1.402   .     A
C523   H527    1.081   .     S
C523   C1083   1.382   1_554 S
C524   H528    1.081   .     S
C524   C1084   1.382   .     S
C525   H529    1.080   .     S
C525   C1081   1.382   .     S
C526   H530    1.080   .     S
C526   C1082   1.382   1_554 S
C531   C160    1.363   1_565 S
C531   N175    1.437   1_565 S
N533   N410    1.282   1_655 S
N533   N429    1.383   1_655 S
N535   O537    1.301   .     A
N535   O536    1.301   .     A
N538   O540    1.301   .     A
N538   O539    1.301   .     A
N541   O542    1.301   .     A
N541   O543    1.300   .     A
N544   O546    1.300   .     A
N544   O545    1.301   .     A
N547   O548    1.300   .     A
N547   O549    1.301   .     A
N550   O552    1.301   .     A
N550   O551    1.300   .     A
N550   C160    1.437   1_565 S
N553   O555    1.299   .     A
N553   O554    1.301   .     A
N556   O558    1.299   .     A
N556   O557    1.301   .     A
N556   N410    1.383   1_655 S
O559   Zn571   1.990   .     S
O559   C563    1.278   .     A
O560   Zn572   1.990   .     S
O560   C564    1.278   .     A
O561   C563    1.295   .     A
O561   Zn572   2.007   .     S
O562   C564    1.295   .     A
O562   Zn571   2.007   .     S
C563   C593    1.408   .     S
C564   C594    1.408   .     S
O565   Zn571   1.993   .     S
O565   C569    1.288   .     A
O566   C570    1.288   .     A
O566   Zn572   1.993   .     S
O567   Zn572   2.022   .     S
O567   C569    1.289   .     A
O568   C570    1.289   .     A
O568   Zn571   2.022   .     S
C569   C576    1.421   .     S
C570   C575    1.421   .     S
Zn571  N596    2.029   .     S
Zn572  N595    2.029   .     S
C573   N597    1.438   .     S
C573   C583    1.396   .     A
C573   C575    1.399   .     A
C574   N600    1.438   .     S
C574   C584    1.396   .     A
C574   C576    1.399   .     A
C575   C577    1.397   .     A
C576   C578    1.397   .     A
C577   N603    1.436   .     S
C577   C579    1.393   .     A
C578   N606    1.436   .     S
C578   C580    1.393   .     A
C579   C585    1.401   .     A
C579   C581    1.416   .     A
C580   C582    1.416   .     A
C580   C586    1.401   .     A
C581   C583    1.417   .     A
C582   C584    1.417   .     A
C582   C23     1.402   1_556 S
C583   C588    1.402   .     A
C584   C587    1.402   .     A
C585   H589    1.081   .     S
C586   H590    1.081   .     S
C586   C30     1.382   1_556 S
C587   H591    1.080   .     S
C587   C27     1.382   1_556 S
C588   H592    1.080   .     S
C593   C780    1.363   .     S
C593   N795    1.437   .     S
C594   C965    1.363   1_545 S
C594   N984    1.437   1_545 S
N595   N658    1.282   .     S
N595   N677    1.383   .     S
N596   N719    1.282   1_455 S
N596   N742    1.383   1_455 S
N597   O599    1.301   .     A
N597   O598    1.301   .     A
N600   O602    1.301   .     A
N600   O601    1.301   .     A
N603   O604    1.301   .     A
N603   O605    1.300   .     A
N606   O608    1.300   .     A
N606   O607    1.301   .     A
N609   O610    1.300   .     A
N609   O611    1.301   .     A
N609   C965    1.437   1_545 S
N612   O614    1.301   .     A
N612   O613    1.300   .     A
N612   C780    1.437   .     S
N615   O617    1.299   .     A
N615   O616    1.301   .     A
N615   N719    1.383   1_455 S
N618   O620    1.299   .     A
N618   O619    1.301   .     A
N618   N658    1.383   .     S
O621   Zn633   1.990   .     S
O621   C625    1.278   .     A
O622   Zn634   1.990   .     S
O622   C626    1.278   .     A
O623   C625    1.295   .     A
O623   Zn634   2.007   .     S
O624   C626    1.295   .     A
O624   Zn633   2.007   .     S
C625   C655    1.408   .     S
C626   C656    1.408   .     S
O627   Zn633   1.993   .     S
O627   C631    1.288   .     A
O628   C632    1.288   .     A
O628   Zn634   1.993   .     S
O629   Zn634   2.022   .     S
O629   C631    1.289   .     A
O630   C632    1.289   .     A
O630   Zn633   2.022   .     S
C631   C638    1.421   .     S
C632   C637    1.421   .     S
Zn633  N658    2.029   .     S
Zn634  N657    2.029   .     S
C635   N659    1.438   .     S
C635   C645    1.396   .     A
C635   C637    1.399   .     A
C636   N662    1.438   .     S
C636   C646    1.396   .     A
C636   C638    1.399   .     A
C637   C639    1.397   .     A
C638   C640    1.397   .     A
C639   N665    1.436   .     S
C639   C641    1.393   .     A
C640   N668    1.436   .     S
C640   C642    1.393   .     A
C641   C647    1.401   .     A
C641   C643    1.416   .     A
C642   C644    1.416   .     A
C642   C648    1.401   .     A
C643   C645    1.417   .     A
C644   C646    1.417   .     A
C644   C85     1.402   1_556 S
C645   C650    1.402   .     A
C646   C649    1.402   .     A
C647   H651    1.081   .     S
C648   H652    1.081   .     S
C648   C92     1.382   1_556 S
C649   H653    1.080   .     S
C649   C89     1.382   1_556 S
C650   H654    1.080   .     S
C655   C842    1.363   .     S
C655   N857    1.437   .     S
C656   C1027   1.363   1_545 S
C656   N1046   1.437   1_545 S
N657   N720    1.282   .     S
N657   N739    1.383   .     S
N659   O661    1.301   .     A
N659   O660    1.301   .     A
N662   O664    1.301   .     A
N662   O663    1.301   .     A
N665   O666    1.301   .     A
N665   O667    1.300   .     A
N668   O670    1.300   .     A
N668   O669    1.301   .     A
N671   O672    1.300   .     A
N671   O673    1.301   .     A
N671   C1027   1.437   1_545 S
N674   O676    1.301   .     A
N674   O675    1.300   .     A
N674   C842    1.437   .     S
N677   O679    1.299   .     A
N677   O678    1.301   .     A
N680   O682    1.299   .     A
N680   O681    1.301   .     A
N680   N720    1.383   .     S
O683   Zn695   1.990   .     S
O683   C687    1.278   .     A
O684   Zn696   1.990   .     S
O684   C688    1.278   .     A
O685   C687    1.295   .     A
O685   Zn696   2.007   .     S
O686   C688    1.295   .     A
O686   Zn695   2.007   .     S
C687   C717    1.408   .     S
C688   C718    1.408   .     S
O689   Zn695   1.993   .     S
O689   C693    1.288   .     A
O690   C694    1.288   .     A
O690   Zn696   1.993   .     S
O691   Zn696   2.022   .     S
O691   C693    1.289   .     A
O692   C694    1.289   .     A
O692   Zn695   2.022   .     S
C693   C700    1.421   .     S
C694   C699    1.421   .     S
Zn695  N720    2.029   .     S
Zn696  N719    2.029   .     S
C697   N721    1.438   .     S
C697   C707    1.396   .     A
C697   C699    1.399   .     A
C698   N724    1.438   .     S
C698   C708    1.396   .     A
C698   C700    1.399   .     A
C699   C701    1.397   .     A
C700   C702    1.397   .     A
C701   N727    1.436   .     S
C701   C703    1.393   .     A
C702   N730    1.436   .     S
C702   C704    1.393   .     A
C703   C709    1.401   .     A
C703   C705    1.416   .     A
C704   C706    1.416   .     A
C704   C710    1.401   .     A
C705   C707    1.417   .     A
C706   C708    1.417   .     A
C706   C147    1.402   1_556 S
C707   C712    1.402   .     A
C708   C711    1.402   .     A
C709   H713    1.081   .     S
C710   H714    1.081   .     S
C710   C154    1.382   1_556 S
C711   H715    1.080   .     S
C711   C151    1.382   1_556 S
C712   H716    1.080   .     S
C717   C904    1.363   .     S
C717   N919    1.437   .     S
C718   C1089   1.363   1_545 S
C718   N1108   1.437   1_545 S
N719   N596    1.282   1_655 S
N719   N615    1.383   1_655 S
N721   O723    1.301   .     A
N721   O722    1.301   .     A
N724   O726    1.301   .     A
N724   O725    1.301   .     A
N727   O728    1.301   .     A
N727   O729    1.300   .     A
N730   O732    1.300   .     A
N730   O731    1.301   .     A
N733   O734    1.300   .     A
N733   O735    1.301   .     A
N733   C1089   1.437   1_545 S
N736   O738    1.301   .     A
N736   O737    1.300   .     A
N736   C904    1.437   .     S
N739   O741    1.299   .     A
N739   O740    1.301   .     A
N742   O744    1.299   .     A
N742   O743    1.301   .     A
N742   N596    1.383   1_655 S
O745   Zn757   1.990   .     S
O745   C749    1.278   .     A
O746   Zn758   1.990   .     S
O746   C750    1.278   .     A
O747   C749    1.295   .     A
O747   Zn758   2.007   .     S
O748   C750    1.295   .     A
O748   Zn757   2.007   .     S
C749   C779    1.408   .     S
C750   C780    1.408   .     S
O751   Zn757   1.993   .     S
O751   C755    1.288   .     A
O752   C756    1.288   .     A
O752   Zn758   1.993   .     S
O753   Zn758   2.022   .     S
O753   C755    1.289   .     A
O754   C756    1.289   .     A
O754   Zn757   2.022   .     S
C755   C762    1.421   .     S
C756   C761    1.421   .     S
Zn757  N782    2.029   .     S
Zn758  N781    2.029   .     S
C759   N783    1.438   .     S
C759   C769    1.396   .     A
C759   C761    1.399   .     A
C760   N786    1.438   .     S
C760   C770    1.396   .     A
C760   C762    1.399   .     A
C761   C763    1.397   .     A
C762   C764    1.397   .     A
C763   N789    1.436   .     S
C763   C765    1.393   .     A
C764   N792    1.436   .     S
C764   C766    1.393   .     A
C765   C771    1.401   .     A
C765   C767    1.416   .     A
C766   C768    1.416   .     A
C766   C772    1.401   .     A
C767   C769    1.417   .     A
C768   C770    1.417   .     A
C768   C209    1.402   1_556 S
C769   C774    1.402   .     A
C770   C773    1.402   .     A
C771   H775    1.081   .     S
C772   H776    1.081   .     S
C772   C216    1.382   1_556 S
C773   H777    1.080   .     S
C773   C213    1.382   1_556 S
C774   H778    1.080   .     S
C779   C966    1.363   .     S
C779   N981    1.437   .     S
N781   N844    1.282   .     S
N781   N863    1.383   .     S
N782   N905    1.282   1_455 S
N782   N928    1.383   1_455 S
N783   O785    1.301   .     A
N783   O784    1.301   .     A
N786   O788    1.301   .     A
N786   O787    1.301   .     A
N789   O790    1.301   .     A
N789   O791    1.300   .     A
N792   O794    1.300   .     A
N792   O793    1.301   .     A
N795   O796    1.300   .     A
N795   O797    1.301   .     A
N798   O800    1.301   .     A
N798   O799    1.300   .     A
N798   C966    1.437   .     S
N801   O803    1.299   .     A
N801   O802    1.301   .     A
N801   N905    1.383   1_455 S
N804   O806    1.299   .     A
N804   O805    1.301   .     A
N804   N844    1.383   .     S
O807   Zn819   1.990   .     S
O807   C811    1.278   .     A
O808   Zn820   1.990   .     S
O808   C812    1.278   .     A
O809   C811    1.295   .     A
O809   Zn820   2.007   .     S
O810   C812    1.295   .     A
O810   Zn819   2.007   .     S
C811   C841    1.408   .     S
C812   C842    1.408   .     S
O813   Zn819   1.993   .     S
O813   C817    1.288   .     A
O814   C818    1.288   .     A
O814   Zn820   1.993   .     S
O815   Zn820   2.022   .     S
O815   C817    1.289   .     A
O816   C818    1.289   .     A
O816   Zn819   2.022   .     S
C817   C824    1.421   .     S
C818   C823    1.421   .     S
Zn819  N844    2.029   .     S
Zn820  N843    2.029   .     S
C821   N845    1.438   .     S
C821   C831    1.396   .     A
C821   C823    1.399   .     A
C822   N848    1.438   .     S
C822   C832    1.396   .     A
C822   C824    1.399   .     A
C823   C825    1.397   .     A
C824   C826    1.397   .     A
C825   N851    1.436   .     S
C825   C827    1.393   .     A
C826   N854    1.436   .     S
C826   C828    1.393   .     A
C827   C833    1.401   .     A
C827   C829    1.416   .     A
C828   C830    1.416   .     A
C828   C834    1.401   .     A
C829   C831    1.417   .     A
C830   C832    1.417   .     A
C830   C271    1.402   1_556 S
C831   C836    1.402   .     A
C832   C835    1.402   .     A
C833   H837    1.081   .     S
C834   H838    1.081   .     S
C834   C278    1.382   1_556 S
C835   H839    1.080   .     S
C835   C275    1.382   1_556 S
C836   H840    1.080   .     S
C841   C1028   1.363   .     S
C841   N1043   1.437   .     S
N843   N906    1.282   .     S
N843   N925    1.383   .     S
N845   O847    1.301   .     A
N845   O846    1.301   .     A
N848   O850    1.301   .     A
N848   O849    1.301   .     A
N851   O852    1.301   .     A
N851   O853    1.300   .     A
N854   O856    1.300   .     A
N854   O855    1.301   .     A
N857   O858    1.300   .     A
N857   O859    1.301   .     A
N860   O862    1.301   .     A
N860   O861    1.300   .     A
N860   C1028   1.437   .     S
N863   O865    1.299   .     A
N863   O864    1.301   .     A
N866   O868    1.299   .     A
N866   O867    1.301   .     A
N866   N906    1.383   .     S
O869   Zn881   1.990   .     S
O869   C873    1.278   .     A
O870   Zn882   1.990   .     S
O870   C874    1.278   .     A
O871   C873    1.295   .     A
O871   Zn882   2.007   .     S
O872   C874    1.295   .     A
O872   Zn881   2.007   .     S
C873   C903    1.408   .     S
C874   C904    1.408   .     S
O875   Zn881   1.993   .     S
O875   C879    1.288   .     A
O876   C880    1.288   .     A
O876   Zn882   1.993   .     S
O877   Zn882   2.022   .     S
O877   C879    1.289   .     A
O878   C880    1.289   .     A
O878   Zn881   2.022   .     S
C879   C886    1.421   .     S
C880   C885    1.421   .     S
Zn881  N906    2.029   .     S
Zn882  N905    2.029   .     S
C883   N907    1.438   .     S
C883   C893    1.396   .     A
C883   C885    1.399   .     A
C884   N910    1.438   .     S
C884   C894    1.396   .     A
C884   C886    1.399   .     A
C885   C887    1.397   .     A
C886   C888    1.397   .     A
C887   N913    1.436   .     S
C887   C889    1.393   .     A
C888   N916    1.436   .     S
C888   C890    1.393   .     A
C889   C895    1.401   .     A
C889   C891    1.416   .     A
C890   C892    1.416   .     A
C890   C896    1.401   .     A
C891   C893    1.417   .     A
C892   C894    1.417   .     A
C892   C333    1.402   1_556 S
C893   C898    1.402   .     A
C894   C897    1.402   .     A
C895   H899    1.081   .     S
C896   H900    1.081   .     S
C896   C340    1.382   1_556 S
C897   H901    1.080   .     S
C897   C337    1.382   1_556 S
C898   H902    1.080   .     S
C903   C1090   1.363   .     S
C903   N1105   1.437   .     S
N905   N782    1.282   1_655 S
N905   N801    1.383   1_655 S
N907   O909    1.301   .     A
N907   O908    1.301   .     A
N910   O912    1.301   .     A
N910   O911    1.301   .     A
N913   O914    1.301   .     A
N913   O915    1.300   .     A
N916   O918    1.300   .     A
N916   O917    1.301   .     A
N919   O920    1.300   .     A
N919   O921    1.301   .     A
N922   O924    1.301   .     A
N922   O923    1.300   .     A
N922   C1090   1.437   .     S
N925   O927    1.299   .     A
N925   O926    1.301   .     A
N928   O930    1.299   .     A
N928   O929    1.301   .     A
N928   N782    1.383   1_655 S
O931   Zn943   1.990   .     S
O931   C935    1.278   .     A
O932   Zn944   1.990   .     S
O932   C936    1.278   .     A
O933   C935    1.295   .     A
O933   Zn944   2.007   .     S
O934   C936    1.295   .     A
O934   Zn943   2.007   .     S
C935   C965    1.408   .     S
C936   C966    1.408   .     S
O937   Zn943   1.993   .     S
O937   C941    1.288   .     A
O938   C942    1.288   .     A
O938   Zn944   1.993   .     S
O939   Zn944   2.022   .     S
O939   C941    1.289   .     A
O940   C942    1.289   .     A
O940   Zn943   2.022   .     S
C941   C948    1.421   .     S
C942   C947    1.421   .     S
Zn943  N968    2.029   .     S
Zn944  N967    2.029   .     S
C945   N969    1.438   .     S
C945   C955    1.396   .     A
C945   C947    1.399   .     A
C946   N972    1.438   .     S
C946   C956    1.396   .     A
C946   C948    1.399   .     A
C947   C949    1.397   .     A
C948   C950    1.397   .     A
C949   N975    1.436   .     S
C949   C951    1.393   .     A
C950   N978    1.436   .     S
C950   C952    1.393   .     A
C951   C957    1.401   .     A
C951   C953    1.416   .     A
C952   C954    1.416   .     A
C952   C958    1.401   .     A
C953   C955    1.417   .     A
C954   C956    1.417   .     A
C954   C395    1.402   1_556 S
C955   C960    1.402   .     A
C956   C959    1.402   .     A
C957   H961    1.081   .     S
C958   H962    1.081   .     S
C958   C402    1.382   1_556 S
C959   H963    1.080   .     S
C959   C399    1.382   1_556 S
C960   H964    1.080   .     S
C965   C594    1.363   1_565 S
C965   N609    1.437   1_565 S
N967   N1030   1.282   .     S
N967   N1049   1.383   .     S
N968   N1091   1.282   1_455 S
N968   N1114   1.383   1_455 S
N969   O971    1.301   .     A
N969   O970    1.301   .     A
N972   O974    1.301   .     A
N972   O973    1.301   .     A
N975   O976    1.301   .     A
N975   O977    1.300   .     A
N978   O980    1.300   .     A
N978   O979    1.301   .     A
N981   O982    1.300   .     A
N981   O983    1.301   .     A
N984   O986    1.301   .     A
N984   O985    1.300   .     A
N984   C594    1.437   1_565 S
N987   O989    1.299   .     A
N987   O988    1.301   .     A
N987   N1091   1.383   1_455 S
N990   O992    1.299   .     A
N990   O991    1.301   .     A
N990   N1030   1.383   .     S
O993   Zn1005  1.990   .     S
O993   C997    1.278   .     A
O994   Zn1006  1.990   .     S
O994   C998    1.278   .     A
O995   C997    1.295   .     A
O995   Zn1006  2.007   .     S
O996   C998    1.295   .     A
O996   Zn1005  2.007   .     S
C997   C1027   1.408   .     S
C998   C1028   1.408   .     S
O999   Zn1005  1.993   .     S
O999   C1003   1.288   .     A
O1000  C1004   1.288   .     A
O1000  Zn1006  1.993   .     S
O1001  Zn1006  2.022   .     S
O1001  C1003   1.289   .     A
O1002  C1004   1.289   .     A
O1002  Zn1005  2.022   .     S
C1003  C1010   1.421   .     S
C1004  C1009   1.421   .     S
Zn1005 N1030   2.029   .     S
Zn1006 N1029   2.029   .     S
C1007  N1031   1.438   .     S
C1007  C1017   1.396   .     A
C1007  C1009   1.399   .     A
C1008  N1034   1.438   .     S
C1008  C1018   1.396   .     A
C1008  C1010   1.399   .     A
C1009  C1011   1.397   .     A
C1010  C1012   1.397   .     A
C1011  N1037   1.436   .     S
C1011  C1013   1.393   .     A
C1012  N1040   1.436   .     S
C1012  C1014   1.393   .     A
C1013  C1019   1.401   .     A
C1013  C1015   1.416   .     A
C1014  C1016   1.416   .     A
C1014  C1020   1.401   .     A
C1015  C1017   1.417   .     A
C1016  C1018   1.417   .     A
C1016  C457    1.402   1_556 S
C1017  C1022   1.402   .     A
C1018  C1021   1.402   .     A
C1019  H1023   1.081   .     S
C1020  H1024   1.081   .     S
C1020  C464    1.382   1_556 S
C1021  H1025   1.080   .     S
C1021  C461    1.382   1_556 S
C1022  H1026   1.080   .     S
C1027  C656    1.363   1_565 S
C1027  N671    1.437   1_565 S
N1029  N1092   1.282   .     S
N1029  N1111   1.383   .     S
N1031  O1033   1.301   .     A
N1031  O1032   1.301   .     A
N1034  O1036   1.301   .     A
N1034  O1035   1.301   .     A
N1037  O1038   1.301   .     A
N1037  O1039   1.300   .     A
N1040  O1042   1.300   .     A
N1040  O1041   1.301   .     A
N1043  O1044   1.300   .     A
N1043  O1045   1.301   .     A
N1046  O1048   1.301   .     A
N1046  O1047   1.300   .     A
N1046  C656    1.437   1_565 S
N1049  O1051   1.299   .     A
N1049  O1050   1.301   .     A
N1052  O1054   1.299   .     A
N1052  O1053   1.301   .     A
N1052  N1092   1.383   .     S
O1055  Zn1067  1.990   .     S
O1055  C1059   1.278   .     A
O1056  Zn1068  1.990   .     S
O1056  C1060   1.278   .     A
O1057  C1059   1.295   .     A
O1057  Zn1068  2.007   .     S
O1058  C1060   1.295   .     A
O1058  Zn1067  2.007   .     S
C1059  C1089   1.408   .     S
C1060  C1090   1.408   .     S
O1061  Zn1067  1.993   .     S
O1061  C1065   1.288   .     A
O1062  C1066   1.288   .     A
O1062  Zn1068  1.993   .     S
O1063  Zn1068  2.022   .     S
O1063  C1065   1.289   .     A
O1064  C1066   1.289   .     A
O1064  Zn1067  2.022   .     S
C1065  C1072   1.421   .     S
C1066  C1071   1.421   .     S
Zn1067 N1092   2.029   .     S
Zn1068 N1091   2.029   .     S
C1069  N1093   1.438   .     S
C1069  C1079   1.396   .     A
C1069  C1071   1.399   .     A
C1070  N1096   1.438   .     S
C1070  C1080   1.396   .     A
C1070  C1072   1.399   .     A
C1071  C1073   1.397   .     A
C1072  C1074   1.397   .     A
C1073  N1099   1.436   .     S
C1073  C1075   1.393   .     A
C1074  N1102   1.436   .     S
C1074  C1076   1.393   .     A
C1075  C1081   1.401   .     A
C1075  C1077   1.416   .     A
C1076  C1078   1.416   .     A
C1076  C1082   1.401   .     A
C1077  C1079   1.417   .     A
C1078  C1080   1.417   .     A
C1078  C519    1.402   1_556 S
C1079  C1084   1.402   .     A
C1080  C1083   1.402   .     A
C1081  H1085   1.081   .     S
C1082  H1086   1.081   .     S
C1082  C526    1.382   1_556 S
C1083  H1087   1.080   .     S
C1083  C523    1.382   1_556 S
C1084  H1088   1.080   .     S
C1089  C718    1.363   1_565 S
C1089  N733    1.437   1_565 S
N1091  N968    1.282   1_655 S
N1091  N987    1.383   1_655 S
N1093  O1095   1.301   .     A
N1093  O1094   1.301   .     A
N1096  O1098   1.301   .     A
N1096  O1097   1.301   .     A
N1099  O1100   1.301   .     A
N1099  O1101   1.300   .     A
N1102  O1104   1.300   .     A
N1102  O1103   1.301   .     A
N1105  O1106   1.300   .     A
N1105  O1107   1.301   .     A
N1108  O1110   1.301   .     A
N1108  O1109   1.300   .     A
N1108  C718    1.437   1_565 S
N1111  O1113   1.299   .     A
N1111  O1112   1.301   .     A
N1114  O1116   1.299   .     A
N1114  O1115   1.301   .     A
N1114  N968    1.383   1_655 S
