data_str_m3_o1_o10_pcu_sym.137
_audit_creation_date              2020-01-03
_audit_creation_method            'Materials Studio'
_symmetry_space_group_name_H-M    'P1'
_symmetry_Int_Tables_number       1
_symmetry_cell_setting            triclinic
loop_
_symmetry_equiv_pos_as_xyz
  x,y,z
_cell_length_a                    25.8139
_cell_length_b                    32.1152
_cell_length_c                    29.7006
_cell_angle_alpha                 90.3679
_cell_angle_beta                  97.8522
_cell_angle_gamma                 91.4102
loop_
_atom_site_label
_atom_site_type_symbol
_atom_site_fract_x
_atom_site_fract_y
_atom_site_fract_z
_atom_site_U_iso_or_equiv
_atom_site_adp_type
_atom_site_occupancy
O1     O     0.16666   0.10558   0.20487   0.00000  Uiso   1.00
O2     O     0.16667   0.22775   0.12846   0.00000  Uiso   1.00
O3     O     0.16666   0.10559   0.12843   0.00000  Uiso   1.00
O4     O     0.16667   0.22774   0.20490   0.00000  Uiso   1.00
C5     C     0.16671   0.08680   0.16644   0.00000  Uiso   1.00
C6     C     0.16662   0.24653   0.16690   0.00000  Uiso   1.00
O7     O     0.09058   0.16666   0.19595   0.00000  Uiso   1.00
O8     O     0.24275   0.16667   0.13739   0.00000  Uiso   1.00
O9     O     0.09058   0.16667   0.11950   0.00000  Uiso   1.00
O10    O     0.24275   0.16666   0.21383   0.00000  Uiso   1.00
C11    C     0.06730   0.16565   0.15508   0.00000  Uiso   1.00
C12    C     0.26603   0.16768   0.17825   0.00000  Uiso   1.00
Zn13   Zn    0.16667   0.16666   0.21771   0.00000  Uiso   1.00
Zn14   Zn    0.16667   0.16667   0.11563   0.00000  Uiso   1.00
N15    N     0.16665   0.16666   0.28573   0.00000  Uiso   1.00
N16    N     0.16668   0.16668   0.04760   0.00000  Uiso   1.00
C17    C     0.01291   0.15833   0.15059   0.00000  Uiso   1.00
C18    C     0.32042   0.17501   0.18274   0.00000  Uiso   1.00
C19    C     0.13399   0.02055   0.13240   0.00000  Uiso   1.00
C20    C     0.19934   0.31278   0.20094   0.00000  Uiso   1.00
C21    C     0.13264   0.31086   0.13326   0.00000  Uiso   1.00
C22    C     0.20069   0.02247   0.20007   0.00000  Uiso   1.00
C23    C     0.16560   0.29068   0.16743   0.00000  Uiso   1.00
C24    C     0.16773   0.04265   0.16590   0.00000  Uiso   1.00
C25    C     0.20704   0.18541   0.02829   0.00000  Uiso   1.00
C26    C     0.12629   0.14793   0.30504   0.00000  Uiso   1.00
C27    C     0.20684   0.18486   0.31386   0.00000  Uiso   1.00
C28    C     0.12650   0.14848   0.01948   0.00000  Uiso   1.00
N29    N     0.32392   0.12623   0.11875   0.00000  Uiso   1.00
O30    O     0.00457   0.12418   0.07835   0.00000  Uiso   1.00
O31    O     0.29708   0.09514   0.13255   0.00000  Uiso   1.00
N32    N     0.00941   0.20710   0.21458   0.00000  Uiso   1.00
O33    O     0.32876   0.20916   0.25498   0.00000  Uiso   1.00
O34    O     0.03626   0.23820   0.20079   0.00000  Uiso   1.00
N35    N     0.09822   0.04164   0.09955   0.00000  Uiso   1.00
O36    O     0.11349   0.05374   0.06166   0.00000  Uiso   1.00
O37    O     0.04849   0.03997   0.10283   0.00000  Uiso   1.00
N38    N     0.23510   0.29169   0.23379   0.00000  Uiso   1.00
O39    O     0.21982   0.27960   0.27167   0.00000  Uiso   1.00
O40    O     0.28483   0.29337   0.23053   0.00000  Uiso   1.00
N41    N     0.09717   0.28790   0.09994   0.00000  Uiso   1.00
O42    O     0.06298   0.26163   0.11266   0.00000  Uiso   1.00
O43    O     0.09761   0.29442   0.05680   0.00000  Uiso   1.00
N44    N     0.23616   0.04543   0.23339   0.00000  Uiso   1.00
O45    O     0.27036   0.07169   0.22068   0.00000  Uiso   1.00
O46    O     0.23571   0.03892   0.27654   0.00000  Uiso   1.00
N47    N     0.24977   0.20658   0.05563   0.00000  Uiso   1.00
O48    O     0.29711   0.20153   0.04651   0.00000  Uiso   1.00
O49    O     0.24081   0.23905   0.07939   0.00000  Uiso   1.00
N50    N     0.08356   0.12675   0.27770   0.00000  Uiso   1.00
O51    O     0.03622   0.13180   0.28682   0.00000  Uiso   1.00
O52    O     0.09252   0.09428   0.25394   0.00000  Uiso   1.00
H53    H     0.23867   0.19962   0.29925   0.00000  Uiso   1.00
H54    H     0.09467   0.13371   0.03408   0.00000  Uiso   1.00
O55    O     0.50000   0.10558   0.20487   0.00000  Uiso   1.00
O56    O     0.50000   0.22775   0.12846   0.00000  Uiso   1.00
O57    O     0.50000   0.10559   0.12843   0.00000  Uiso   1.00
O58    O     0.50000   0.22774   0.20490   0.00000  Uiso   1.00
C59    C     0.50004   0.08680   0.16644   0.00000  Uiso   1.00
C60    C     0.49996   0.24653   0.16690   0.00000  Uiso   1.00
O61    O     0.42392   0.16666   0.19595   0.00000  Uiso   1.00
O62    O     0.57608   0.16667   0.13739   0.00000  Uiso   1.00
O63    O     0.42392   0.16667   0.11950   0.00000  Uiso   1.00
O64    O     0.57608   0.16666   0.21383   0.00000  Uiso   1.00
C65    C     0.40063   0.16565   0.15508   0.00000  Uiso   1.00
C66    C     0.59937   0.16768   0.17825   0.00000  Uiso   1.00
Zn67   Zn    0.50000   0.16666   0.21771   0.00000  Uiso   1.00
Zn68   Zn    0.50000   0.16667   0.11563   0.00000  Uiso   1.00
N69    N     0.49999   0.16666   0.28573   0.00000  Uiso   1.00
N70    N     0.50001   0.16668   0.04760   0.00000  Uiso   1.00
C71    C     0.34625   0.15833   0.15059   0.00000  Uiso   1.00
C72    C     0.65375   0.17501   0.18274   0.00000  Uiso   1.00
C73    C     0.46732   0.02055   0.13240   0.00000  Uiso   1.00
C74    C     0.53268   0.31278   0.20094   0.00000  Uiso   1.00
C75    C     0.46597   0.31086   0.13326   0.00000  Uiso   1.00
C76    C     0.53403   0.02247   0.20007   0.00000  Uiso   1.00
C77    C     0.49893   0.29068   0.16743   0.00000  Uiso   1.00
C78    C     0.50107   0.04265   0.16590   0.00000  Uiso   1.00
C79    C     0.54038   0.18541   0.02829   0.00000  Uiso   1.00
C80    C     0.45963   0.14793   0.30504   0.00000  Uiso   1.00
C81    C     0.54017   0.18486   0.31386   0.00000  Uiso   1.00
C82    C     0.45983   0.14848   0.01948   0.00000  Uiso   1.00
N83    N     0.65725   0.12623   0.11875   0.00000  Uiso   1.00
O84    O     0.33790   0.12418   0.07835   0.00000  Uiso   1.00
O85    O     0.63041   0.09514   0.13255   0.00000  Uiso   1.00
N86    N     0.34275   0.20710   0.21458   0.00000  Uiso   1.00
O87    O     0.66209   0.20916   0.25498   0.00000  Uiso   1.00
O88    O     0.36959   0.23820   0.20079   0.00000  Uiso   1.00
N89    N     0.43156   0.04164   0.09955   0.00000  Uiso   1.00
O90    O     0.44682   0.05374   0.06166   0.00000  Uiso   1.00
O91    O     0.38182   0.03997   0.10283   0.00000  Uiso   1.00
N92    N     0.56843   0.29169   0.23379   0.00000  Uiso   1.00
O93    O     0.55315   0.27960   0.27167   0.00000  Uiso   1.00
O94    O     0.61816   0.29337   0.23053   0.00000  Uiso   1.00
N95    N     0.43050   0.28790   0.09994   0.00000  Uiso   1.00
O96    O     0.39631   0.26163   0.11266   0.00000  Uiso   1.00
O97    O     0.43094   0.29442   0.05680   0.00000  Uiso   1.00
N98    N     0.56949   0.04543   0.23339   0.00000  Uiso   1.00
O99    O     0.60369   0.07169   0.22068   0.00000  Uiso   1.00
O100   O     0.56905   0.03892   0.27654   0.00000  Uiso   1.00
N101   N     0.58311   0.20658   0.05563   0.00000  Uiso   1.00
O102   O     0.63044   0.20153   0.04651   0.00000  Uiso   1.00
O103   O     0.57414   0.23905   0.07939   0.00000  Uiso   1.00
N104   N     0.41689   0.12675   0.27770   0.00000  Uiso   1.00
O105   O     0.36956   0.13180   0.28682   0.00000  Uiso   1.00
O106   O     0.42586   0.09428   0.25394   0.00000  Uiso   1.00
H107   H     0.57200   0.19962   0.29925   0.00000  Uiso   1.00
H108   H     0.42800   0.13371   0.03408   0.00000  Uiso   1.00
O109   O     0.83333   0.10558   0.20487   0.00000  Uiso   1.00
O110   O     0.83334   0.22775   0.12846   0.00000  Uiso   1.00
O111   O     0.83333   0.10559   0.12843   0.00000  Uiso   1.00
O112   O     0.83334   0.22774   0.20490   0.00000  Uiso   1.00
C113   C     0.83338   0.08680   0.16644   0.00000  Uiso   1.00
C114   C     0.83329   0.24653   0.16690   0.00000  Uiso   1.00
O115   O     0.75725   0.16666   0.19595   0.00000  Uiso   1.00
O116   O     0.90942   0.16667   0.13739   0.00000  Uiso   1.00
O117   O     0.75725   0.16667   0.11950   0.00000  Uiso   1.00
O118   O     0.90942   0.16666   0.21383   0.00000  Uiso   1.00
C119   C     0.73397   0.16565   0.15508   0.00000  Uiso   1.00
C120   C     0.93270   0.16768   0.17825   0.00000  Uiso   1.00
Zn121  Zn    0.83333   0.16666   0.21771   0.00000  Uiso   1.00
Zn122  Zn    0.83333   0.16667   0.11563   0.00000  Uiso   1.00
N123   N     0.83332   0.16666   0.28573   0.00000  Uiso   1.00
N124   N     0.83335   0.16668   0.04760   0.00000  Uiso   1.00
C125   C     0.67958   0.15833   0.15059   0.00000  Uiso   1.00
C126   C     0.98709   0.17501   0.18274   0.00000  Uiso   1.00
C127   C     0.80065   0.02055   0.13240   0.00000  Uiso   1.00
C128   C     0.86601   0.31278   0.20094   0.00000  Uiso   1.00
C129   C     0.79931   0.31086   0.13326   0.00000  Uiso   1.00
C130   C     0.86736   0.02247   0.20007   0.00000  Uiso   1.00
C131   C     0.83227   0.29068   0.16743   0.00000  Uiso   1.00
C132   C     0.83440   0.04265   0.16590   0.00000  Uiso   1.00
C133   C     0.87371   0.18541   0.02829   0.00000  Uiso   1.00
C134   C     0.79296   0.14793   0.30504   0.00000  Uiso   1.00
C135   C     0.87350   0.18486   0.31386   0.00000  Uiso   1.00
C136   C     0.79316   0.14848   0.01948   0.00000  Uiso   1.00
N137   N     0.99059   0.12623   0.11875   0.00000  Uiso   1.00
O138   O     0.67124   0.12418   0.07835   0.00000  Uiso   1.00
O139   O     0.96375   0.09514   0.13255   0.00000  Uiso   1.00
N140   N     0.67608   0.20710   0.21458   0.00000  Uiso   1.00
O141   O     0.99542   0.20916   0.25498   0.00000  Uiso   1.00
O142   O     0.70293   0.23820   0.20079   0.00000  Uiso   1.00
N143   N     0.76489   0.04164   0.09955   0.00000  Uiso   1.00
O144   O     0.78015   0.05374   0.06166   0.00000  Uiso   1.00
O145   O     0.71516   0.03997   0.10283   0.00000  Uiso   1.00
N146   N     0.90176   0.29169   0.23379   0.00000  Uiso   1.00
O147   O     0.88648   0.27960   0.27167   0.00000  Uiso   1.00
O148   O     0.95150   0.29337   0.23053   0.00000  Uiso   1.00
N149   N     0.76384   0.28790   0.09994   0.00000  Uiso   1.00
O150   O     0.72965   0.26163   0.11266   0.00000  Uiso   1.00
O151   O     0.76428   0.29442   0.05680   0.00000  Uiso   1.00
N152   N     0.90283   0.04543   0.23339   0.00000  Uiso   1.00
O153   O     0.93703   0.07169   0.22068   0.00000  Uiso   1.00
O154   O     0.90238   0.03892   0.27654   0.00000  Uiso   1.00
N155   N     0.91644   0.20658   0.05563   0.00000  Uiso   1.00
O156   O     0.96378   0.20153   0.04651   0.00000  Uiso   1.00
O157   O     0.90747   0.23905   0.07939   0.00000  Uiso   1.00
N158   N     0.75023   0.12675   0.27770   0.00000  Uiso   1.00
O159   O     0.70289   0.13180   0.28682   0.00000  Uiso   1.00
O160   O     0.75919   0.09428   0.25394   0.00000  Uiso   1.00
H161   H     0.90533   0.19962   0.29925   0.00000  Uiso   1.00
H162   H     0.76133   0.13371   0.03408   0.00000  Uiso   1.00
O163   O     0.16666   0.43892   0.20487   0.00000  Uiso   1.00
O164   O     0.16667   0.56108   0.12846   0.00000  Uiso   1.00
O165   O     0.16666   0.43893   0.12843   0.00000  Uiso   1.00
O166   O     0.16667   0.56107   0.20490   0.00000  Uiso   1.00
C167   C     0.16671   0.42013   0.16644   0.00000  Uiso   1.00
C168   C     0.16662   0.57987   0.16690   0.00000  Uiso   1.00
O169   O     0.09058   0.50000   0.19595   0.00000  Uiso   1.00
O170   O     0.24275   0.50000   0.13739   0.00000  Uiso   1.00
O171   O     0.09058   0.50000   0.11950   0.00000  Uiso   1.00
O172   O     0.24275   0.50000   0.21383   0.00000  Uiso   1.00
C173   C     0.06730   0.49899   0.15508   0.00000  Uiso   1.00
C174   C     0.26603   0.50101   0.17825   0.00000  Uiso   1.00
Zn175  Zn    0.16667   0.49999   0.21771   0.00000  Uiso   1.00
Zn176  Zn    0.16667   0.50001   0.11563   0.00000  Uiso   1.00
N177   N     0.16665   0.49999   0.28573   0.00000  Uiso   1.00
N178   N     0.16668   0.50001   0.04760   0.00000  Uiso   1.00
C179   C     0.01291   0.49166   0.15059   0.00000  Uiso   1.00
C180   C     0.32042   0.50834   0.18274   0.00000  Uiso   1.00
C181   C     0.13399   0.35389   0.13240   0.00000  Uiso   1.00
C182   C     0.19934   0.64611   0.20094   0.00000  Uiso   1.00
C183   C     0.13264   0.64419   0.13326   0.00000  Uiso   1.00
C184   C     0.20069   0.35581   0.20007   0.00000  Uiso   1.00
C185   C     0.16560   0.62401   0.16743   0.00000  Uiso   1.00
C186   C     0.16773   0.37599   0.16590   0.00000  Uiso   1.00
C187   C     0.20704   0.51874   0.02829   0.00000  Uiso   1.00
C188   C     0.12629   0.48126   0.30504   0.00000  Uiso   1.00
C189   C     0.20684   0.51819   0.31386   0.00000  Uiso   1.00
C190   C     0.12650   0.48181   0.01948   0.00000  Uiso   1.00
N191   N     0.32392   0.45957   0.11875   0.00000  Uiso   1.00
O192   O     0.00457   0.45751   0.07835   0.00000  Uiso   1.00
O193   O     0.29708   0.42847   0.13255   0.00000  Uiso   1.00
N194   N     0.00941   0.54043   0.21458   0.00000  Uiso   1.00
O195   O     0.32876   0.54249   0.25498   0.00000  Uiso   1.00
O196   O     0.03626   0.57153   0.20079   0.00000  Uiso   1.00
N197   N     0.09822   0.37497   0.09955   0.00000  Uiso   1.00
O198   O     0.11349   0.38707   0.06166   0.00000  Uiso   1.00
O199   O     0.04849   0.37330   0.10283   0.00000  Uiso   1.00
N200   N     0.23510   0.62503   0.23379   0.00000  Uiso   1.00
O201   O     0.21982   0.61293   0.27167   0.00000  Uiso   1.00
O202   O     0.28483   0.62670   0.23053   0.00000  Uiso   1.00
N203   N     0.09717   0.62123   0.09994   0.00000  Uiso   1.00
O204   O     0.06298   0.59497   0.11266   0.00000  Uiso   1.00
O205   O     0.09761   0.62776   0.05680   0.00000  Uiso   1.00
N206   N     0.23616   0.37877   0.23339   0.00000  Uiso   1.00
O207   O     0.27036   0.40503   0.22068   0.00000  Uiso   1.00
O208   O     0.23571   0.37225   0.27654   0.00000  Uiso   1.00
N209   N     0.24977   0.53992   0.05563   0.00000  Uiso   1.00
O210   O     0.29711   0.53487   0.04651   0.00000  Uiso   1.00
O211   O     0.24081   0.57238   0.07939   0.00000  Uiso   1.00
N212   N     0.08356   0.46009   0.27770   0.00000  Uiso   1.00
O213   O     0.03622   0.46514   0.28682   0.00000  Uiso   1.00
O214   O     0.09252   0.42762   0.25394   0.00000  Uiso   1.00
H215   H     0.23867   0.53296   0.29925   0.00000  Uiso   1.00
H216   H     0.09467   0.46705   0.03408   0.00000  Uiso   1.00
O217   O     0.50000   0.43892   0.20487   0.00000  Uiso   1.00
O218   O     0.50000   0.56108   0.12846   0.00000  Uiso   1.00
O219   O     0.50000   0.43893   0.12843   0.00000  Uiso   1.00
O220   O     0.50000   0.56107   0.20490   0.00000  Uiso   1.00
C221   C     0.50004   0.42013   0.16644   0.00000  Uiso   1.00
C222   C     0.49996   0.57987   0.16690   0.00000  Uiso   1.00
O223   O     0.42392   0.50000   0.19595   0.00000  Uiso   1.00
O224   O     0.57608   0.50000   0.13739   0.00000  Uiso   1.00
O225   O     0.42392   0.50000   0.11950   0.00000  Uiso   1.00
O226   O     0.57608   0.50000   0.21383   0.00000  Uiso   1.00
C227   C     0.40063   0.49899   0.15508   0.00000  Uiso   1.00
C228   C     0.59937   0.50101   0.17825   0.00000  Uiso   1.00
Zn229  Zn    0.50000   0.49999   0.21771   0.00000  Uiso   1.00
Zn230  Zn    0.50000   0.50001   0.11563   0.00000  Uiso   1.00
N231   N     0.49999   0.49999   0.28573   0.00000  Uiso   1.00
N232   N     0.50001   0.50001   0.04760   0.00000  Uiso   1.00
C233   C     0.34625   0.49166   0.15059   0.00000  Uiso   1.00
C234   C     0.65375   0.50834   0.18274   0.00000  Uiso   1.00
C235   C     0.46732   0.35389   0.13240   0.00000  Uiso   1.00
C236   C     0.53268   0.64611   0.20094   0.00000  Uiso   1.00
C237   C     0.46597   0.64419   0.13326   0.00000  Uiso   1.00
C238   C     0.53403   0.35581   0.20007   0.00000  Uiso   1.00
C239   C     0.49893   0.62401   0.16743   0.00000  Uiso   1.00
C240   C     0.50107   0.37599   0.16590   0.00000  Uiso   1.00
C241   C     0.54038   0.51874   0.02829   0.00000  Uiso   1.00
C242   C     0.45963   0.48126   0.30504   0.00000  Uiso   1.00
C243   C     0.54017   0.51819   0.31386   0.00000  Uiso   1.00
C244   C     0.45983   0.48181   0.01948   0.00000  Uiso   1.00
N245   N     0.65725   0.45957   0.11875   0.00000  Uiso   1.00
O246   O     0.33790   0.45751   0.07835   0.00000  Uiso   1.00
O247   O     0.63041   0.42847   0.13255   0.00000  Uiso   1.00
N248   N     0.34275   0.54043   0.21458   0.00000  Uiso   1.00
O249   O     0.66209   0.54249   0.25498   0.00000  Uiso   1.00
O250   O     0.36959   0.57153   0.20079   0.00000  Uiso   1.00
N251   N     0.43156   0.37497   0.09955   0.00000  Uiso   1.00
O252   O     0.44682   0.38707   0.06166   0.00000  Uiso   1.00
O253   O     0.38182   0.37330   0.10283   0.00000  Uiso   1.00
N254   N     0.56843   0.62503   0.23379   0.00000  Uiso   1.00
O255   O     0.55315   0.61293   0.27167   0.00000  Uiso   1.00
O256   O     0.61816   0.62670   0.23053   0.00000  Uiso   1.00
N257   N     0.43050   0.62123   0.09994   0.00000  Uiso   1.00
O258   O     0.39631   0.59497   0.11266   0.00000  Uiso   1.00
O259   O     0.43094   0.62776   0.05680   0.00000  Uiso   1.00
N260   N     0.56949   0.37877   0.23339   0.00000  Uiso   1.00
O261   O     0.60369   0.40503   0.22068   0.00000  Uiso   1.00
O262   O     0.56905   0.37225   0.27654   0.00000  Uiso   1.00
N263   N     0.58311   0.53992   0.05563   0.00000  Uiso   1.00
O264   O     0.63044   0.53487   0.04651   0.00000  Uiso   1.00
O265   O     0.57414   0.57238   0.07939   0.00000  Uiso   1.00
N266   N     0.41689   0.46009   0.27770   0.00000  Uiso   1.00
O267   O     0.36956   0.46514   0.28682   0.00000  Uiso   1.00
O268   O     0.42586   0.42762   0.25394   0.00000  Uiso   1.00
H269   H     0.57200   0.53296   0.29925   0.00000  Uiso   1.00
H270   H     0.42800   0.46705   0.03408   0.00000  Uiso   1.00
O271   O     0.83333   0.43892   0.20487   0.00000  Uiso   1.00
O272   O     0.83334   0.56108   0.12846   0.00000  Uiso   1.00
O273   O     0.83333   0.43893   0.12843   0.00000  Uiso   1.00
O274   O     0.83334   0.56107   0.20490   0.00000  Uiso   1.00
C275   C     0.83338   0.42013   0.16644   0.00000  Uiso   1.00
C276   C     0.83329   0.57987   0.16690   0.00000  Uiso   1.00
O277   O     0.75725   0.50000   0.19595   0.00000  Uiso   1.00
O278   O     0.90942   0.50000   0.13739   0.00000  Uiso   1.00
O279   O     0.75725   0.50000   0.11950   0.00000  Uiso   1.00
O280   O     0.90942   0.50000   0.21383   0.00000  Uiso   1.00
C281   C     0.73397   0.49899   0.15508   0.00000  Uiso   1.00
C282   C     0.93270   0.50101   0.17825   0.00000  Uiso   1.00
Zn283  Zn    0.83333   0.49999   0.21771   0.00000  Uiso   1.00
Zn284  Zn    0.83333   0.50001   0.11563   0.00000  Uiso   1.00
N285   N     0.83332   0.49999   0.28573   0.00000  Uiso   1.00
N286   N     0.83335   0.50001   0.04760   0.00000  Uiso   1.00
C287   C     0.67958   0.49166   0.15059   0.00000  Uiso   1.00
C288   C     0.98709   0.50834   0.18274   0.00000  Uiso   1.00
C289   C     0.80065   0.35389   0.13240   0.00000  Uiso   1.00
C290   C     0.86601   0.64611   0.20094   0.00000  Uiso   1.00
C291   C     0.79931   0.64419   0.13326   0.00000  Uiso   1.00
C292   C     0.86736   0.35581   0.20007   0.00000  Uiso   1.00
C293   C     0.83227   0.62401   0.16743   0.00000  Uiso   1.00
C294   C     0.83440   0.37599   0.16590   0.00000  Uiso   1.00
C295   C     0.87371   0.51874   0.02829   0.00000  Uiso   1.00
C296   C     0.79296   0.48126   0.30504   0.00000  Uiso   1.00
C297   C     0.87350   0.51819   0.31386   0.00000  Uiso   1.00
C298   C     0.79316   0.48181   0.01948   0.00000  Uiso   1.00
N299   N     0.99059   0.45957   0.11875   0.00000  Uiso   1.00
O300   O     0.67124   0.45751   0.07835   0.00000  Uiso   1.00
O301   O     0.96375   0.42847   0.13255   0.00000  Uiso   1.00
N302   N     0.67608   0.54043   0.21458   0.00000  Uiso   1.00
O303   O     0.99542   0.54249   0.25498   0.00000  Uiso   1.00
O304   O     0.70293   0.57153   0.20079   0.00000  Uiso   1.00
N305   N     0.76489   0.37497   0.09955   0.00000  Uiso   1.00
O306   O     0.78015   0.38707   0.06166   0.00000  Uiso   1.00
O307   O     0.71516   0.37330   0.10283   0.00000  Uiso   1.00
N308   N     0.90176   0.62503   0.23379   0.00000  Uiso   1.00
O309   O     0.88648   0.61293   0.27167   0.00000  Uiso   1.00
O310   O     0.95150   0.62670   0.23053   0.00000  Uiso   1.00
N311   N     0.76384   0.62123   0.09994   0.00000  Uiso   1.00
O312   O     0.72965   0.59497   0.11266   0.00000  Uiso   1.00
O313   O     0.76428   0.62776   0.05680   0.00000  Uiso   1.00
N314   N     0.90283   0.37877   0.23339   0.00000  Uiso   1.00
O315   O     0.93703   0.40503   0.22068   0.00000  Uiso   1.00
O316   O     0.90238   0.37225   0.27654   0.00000  Uiso   1.00
N317   N     0.91644   0.53992   0.05563   0.00000  Uiso   1.00
O318   O     0.96378   0.53487   0.04651   0.00000  Uiso   1.00
O319   O     0.90747   0.57238   0.07939   0.00000  Uiso   1.00
N320   N     0.75023   0.46009   0.27770   0.00000  Uiso   1.00
O321   O     0.70289   0.46514   0.28682   0.00000  Uiso   1.00
O322   O     0.75919   0.42762   0.25394   0.00000  Uiso   1.00
H323   H     0.90533   0.53296   0.29925   0.00000  Uiso   1.00
H324   H     0.76133   0.46705   0.03408   0.00000  Uiso   1.00
O325   O     0.16666   0.77225   0.20487   0.00000  Uiso   1.00
O326   O     0.16667   0.89442   0.12846   0.00000  Uiso   1.00
O327   O     0.16666   0.77226   0.12843   0.00000  Uiso   1.00
O328   O     0.16667   0.89441   0.20490   0.00000  Uiso   1.00
C329   C     0.16671   0.75347   0.16644   0.00000  Uiso   1.00
C330   C     0.16662   0.91320   0.16690   0.00000  Uiso   1.00
O331   O     0.09058   0.83333   0.19595   0.00000  Uiso   1.00
O332   O     0.24275   0.83334   0.13739   0.00000  Uiso   1.00
O333   O     0.09058   0.83334   0.11950   0.00000  Uiso   1.00
O334   O     0.24275   0.83333   0.21383   0.00000  Uiso   1.00
C335   C     0.06730   0.83232   0.15508   0.00000  Uiso   1.00
C336   C     0.26603   0.83435   0.17825   0.00000  Uiso   1.00
Zn337  Zn    0.16667   0.83333   0.21771   0.00000  Uiso   1.00
Zn338  Zn    0.16667   0.83334   0.11563   0.00000  Uiso   1.00
N339   N     0.16665   0.83332   0.28573   0.00000  Uiso   1.00
N340   N     0.16668   0.83334   0.04760   0.00000  Uiso   1.00
C341   C     0.01291   0.82500   0.15059   0.00000  Uiso   1.00
C342   C     0.32042   0.84167   0.18274   0.00000  Uiso   1.00
C343   C     0.13399   0.68722   0.13240   0.00000  Uiso   1.00
C344   C     0.19934   0.97945   0.20094   0.00000  Uiso   1.00
C345   C     0.13264   0.97753   0.13326   0.00000  Uiso   1.00
C346   C     0.20069   0.68914   0.20007   0.00000  Uiso   1.00
C347   C     0.16560   0.95735   0.16743   0.00000  Uiso   1.00
C348   C     0.16773   0.70932   0.16590   0.00000  Uiso   1.00
C349   C     0.20704   0.85207   0.02829   0.00000  Uiso   1.00
C350   C     0.12629   0.81459   0.30504   0.00000  Uiso   1.00
C351   C     0.20684   0.85152   0.31386   0.00000  Uiso   1.00
C352   C     0.12650   0.81514   0.01948   0.00000  Uiso   1.00
N353   N     0.32392   0.79290   0.11875   0.00000  Uiso   1.00
O354   O     0.00457   0.79084   0.07835   0.00000  Uiso   1.00
O355   O     0.29708   0.76180   0.13255   0.00000  Uiso   1.00
N356   N     0.00941   0.87377   0.21458   0.00000  Uiso   1.00
O357   O     0.32876   0.87583   0.25498   0.00000  Uiso   1.00
O358   O     0.03626   0.90486   0.20079   0.00000  Uiso   1.00
N359   N     0.09822   0.70831   0.09955   0.00000  Uiso   1.00
O360   O     0.11349   0.72040   0.06166   0.00000  Uiso   1.00
O361   O     0.04849   0.70664   0.10283   0.00000  Uiso   1.00
N362   N     0.23510   0.95836   0.23379   0.00000  Uiso   1.00
O363   O     0.21982   0.94626   0.27167   0.00000  Uiso   1.00
O364   O     0.28483   0.96003   0.23053   0.00000  Uiso   1.00
N365   N     0.09717   0.95457   0.09994   0.00000  Uiso   1.00
O366   O     0.06298   0.92830   0.11266   0.00000  Uiso   1.00
O367   O     0.09761   0.96109   0.05680   0.00000  Uiso   1.00
N368   N     0.23616   0.71210   0.23339   0.00000  Uiso   1.00
O369   O     0.27036   0.73836   0.22068   0.00000  Uiso   1.00
O370   O     0.23571   0.70558   0.27654   0.00000  Uiso   1.00
N371   N     0.24977   0.87325   0.05563   0.00000  Uiso   1.00
O372   O     0.29711   0.86820   0.04651   0.00000  Uiso   1.00
O373   O     0.24081   0.90572   0.07939   0.00000  Uiso   1.00
N374   N     0.08356   0.79342   0.27770   0.00000  Uiso   1.00
O375   O     0.03622   0.79847   0.28682   0.00000  Uiso   1.00
O376   O     0.09252   0.76095   0.25394   0.00000  Uiso   1.00
H377   H     0.23867   0.86629   0.29925   0.00000  Uiso   1.00
H378   H     0.09467   0.80038   0.03408   0.00000  Uiso   1.00
O379   O     0.50000   0.77225   0.20487   0.00000  Uiso   1.00
O380   O     0.50000   0.89442   0.12846   0.00000  Uiso   1.00
O381   O     0.50000   0.77226   0.12843   0.00000  Uiso   1.00
O382   O     0.50000   0.89441   0.20490   0.00000  Uiso   1.00
C383   C     0.50004   0.75347   0.16644   0.00000  Uiso   1.00
C384   C     0.49996   0.91320   0.16690   0.00000  Uiso   1.00
O385   O     0.42392   0.83333   0.19595   0.00000  Uiso   1.00
O386   O     0.57608   0.83334   0.13739   0.00000  Uiso   1.00
O387   O     0.42392   0.83334   0.11950   0.00000  Uiso   1.00
O388   O     0.57608   0.83333   0.21383   0.00000  Uiso   1.00
C389   C     0.40063   0.83232   0.15508   0.00000  Uiso   1.00
C390   C     0.59937   0.83435   0.17825   0.00000  Uiso   1.00
Zn391  Zn    0.50000   0.83333   0.21771   0.00000  Uiso   1.00
Zn392  Zn    0.50000   0.83334   0.11563   0.00000  Uiso   1.00
N393   N     0.49999   0.83332   0.28573   0.00000  Uiso   1.00
N394   N     0.50001   0.83334   0.04760   0.00000  Uiso   1.00
C395   C     0.34625   0.82500   0.15059   0.00000  Uiso   1.00
C396   C     0.65375   0.84167   0.18274   0.00000  Uiso   1.00
C397   C     0.46732   0.68722   0.13240   0.00000  Uiso   1.00
C398   C     0.53268   0.97945   0.20094   0.00000  Uiso   1.00
C399   C     0.46597   0.97753   0.13326   0.00000  Uiso   1.00
C400   C     0.53403   0.68914   0.20007   0.00000  Uiso   1.00
C401   C     0.49893   0.95735   0.16743   0.00000  Uiso   1.00
C402   C     0.50107   0.70932   0.16590   0.00000  Uiso   1.00
C403   C     0.54038   0.85207   0.02829   0.00000  Uiso   1.00
C404   C     0.45963   0.81459   0.30504   0.00000  Uiso   1.00
C405   C     0.54017   0.85152   0.31386   0.00000  Uiso   1.00
C406   C     0.45983   0.81514   0.01948   0.00000  Uiso   1.00
N407   N     0.65725   0.79290   0.11875   0.00000  Uiso   1.00
O408   O     0.33790   0.79084   0.07835   0.00000  Uiso   1.00
O409   O     0.63041   0.76180   0.13255   0.00000  Uiso   1.00
N410   N     0.34275   0.87377   0.21458   0.00000  Uiso   1.00
O411   O     0.66209   0.87583   0.25498   0.00000  Uiso   1.00
O412   O     0.36959   0.90486   0.20079   0.00000  Uiso   1.00
N413   N     0.43156   0.70831   0.09955   0.00000  Uiso   1.00
O414   O     0.44682   0.72040   0.06166   0.00000  Uiso   1.00
O415   O     0.38182   0.70664   0.10283   0.00000  Uiso   1.00
N416   N     0.56843   0.95836   0.23379   0.00000  Uiso   1.00
O417   O     0.55315   0.94626   0.27167   0.00000  Uiso   1.00
O418   O     0.61816   0.96003   0.23053   0.00000  Uiso   1.00
N419   N     0.43050   0.95457   0.09994   0.00000  Uiso   1.00
O420   O     0.39631   0.92830   0.11266   0.00000  Uiso   1.00
O421   O     0.43094   0.96109   0.05680   0.00000  Uiso   1.00
N422   N     0.56949   0.71210   0.23339   0.00000  Uiso   1.00
O423   O     0.60369   0.73836   0.22068   0.00000  Uiso   1.00
O424   O     0.56905   0.70558   0.27654   0.00000  Uiso   1.00
N425   N     0.58311   0.87325   0.05563   0.00000  Uiso   1.00
O426   O     0.63044   0.86820   0.04651   0.00000  Uiso   1.00
O427   O     0.57414   0.90572   0.07939   0.00000  Uiso   1.00
N428   N     0.41689   0.79342   0.27770   0.00000  Uiso   1.00
O429   O     0.36956   0.79847   0.28682   0.00000  Uiso   1.00
O430   O     0.42586   0.76095   0.25394   0.00000  Uiso   1.00
H431   H     0.57200   0.86629   0.29925   0.00000  Uiso   1.00
H432   H     0.42800   0.80038   0.03408   0.00000  Uiso   1.00
O433   O     0.83333   0.77225   0.20487   0.00000  Uiso   1.00
O434   O     0.83334   0.89442   0.12846   0.00000  Uiso   1.00
O435   O     0.83333   0.77226   0.12843   0.00000  Uiso   1.00
O436   O     0.83334   0.89441   0.20490   0.00000  Uiso   1.00
C437   C     0.83338   0.75347   0.16644   0.00000  Uiso   1.00
C438   C     0.83329   0.91320   0.16690   0.00000  Uiso   1.00
O439   O     0.75725   0.83333   0.19595   0.00000  Uiso   1.00
O440   O     0.90942   0.83334   0.13739   0.00000  Uiso   1.00
O441   O     0.75725   0.83334   0.11950   0.00000  Uiso   1.00
O442   O     0.90942   0.83333   0.21383   0.00000  Uiso   1.00
C443   C     0.73397   0.83232   0.15508   0.00000  Uiso   1.00
C444   C     0.93270   0.83435   0.17825   0.00000  Uiso   1.00
Zn445  Zn    0.83333   0.83333   0.21771   0.00000  Uiso   1.00
Zn446  Zn    0.83333   0.83334   0.11563   0.00000  Uiso   1.00
N447   N     0.83332   0.83332   0.28573   0.00000  Uiso   1.00
N448   N     0.83335   0.83334   0.04760   0.00000  Uiso   1.00
C449   C     0.67958   0.82500   0.15059   0.00000  Uiso   1.00
C450   C     0.98709   0.84167   0.18274   0.00000  Uiso   1.00
C451   C     0.80065   0.68722   0.13240   0.00000  Uiso   1.00
C452   C     0.86601   0.97945   0.20094   0.00000  Uiso   1.00
C453   C     0.79931   0.97753   0.13326   0.00000  Uiso   1.00
C454   C     0.86736   0.68914   0.20007   0.00000  Uiso   1.00
C455   C     0.83227   0.95735   0.16743   0.00000  Uiso   1.00
C456   C     0.83440   0.70932   0.16590   0.00000  Uiso   1.00
C457   C     0.87371   0.85207   0.02829   0.00000  Uiso   1.00
C458   C     0.79296   0.81459   0.30504   0.00000  Uiso   1.00
C459   C     0.87350   0.85152   0.31386   0.00000  Uiso   1.00
C460   C     0.79316   0.81514   0.01948   0.00000  Uiso   1.00
N461   N     0.99059   0.79290   0.11875   0.00000  Uiso   1.00
O462   O     0.67124   0.79084   0.07835   0.00000  Uiso   1.00
O463   O     0.96375   0.76180   0.13255   0.00000  Uiso   1.00
N464   N     0.67608   0.87377   0.21458   0.00000  Uiso   1.00
O465   O     0.99542   0.87583   0.25498   0.00000  Uiso   1.00
O466   O     0.70293   0.90486   0.20079   0.00000  Uiso   1.00
N467   N     0.76489   0.70831   0.09955   0.00000  Uiso   1.00
O468   O     0.78015   0.72040   0.06166   0.00000  Uiso   1.00
O469   O     0.71516   0.70664   0.10283   0.00000  Uiso   1.00
N470   N     0.90176   0.95836   0.23379   0.00000  Uiso   1.00
O471   O     0.88648   0.94626   0.27167   0.00000  Uiso   1.00
O472   O     0.95150   0.96003   0.23053   0.00000  Uiso   1.00
N473   N     0.76384   0.95457   0.09994   0.00000  Uiso   1.00
O474   O     0.72965   0.92830   0.11266   0.00000  Uiso   1.00
O475   O     0.76428   0.96109   0.05680   0.00000  Uiso   1.00
N476   N     0.90283   0.71210   0.23339   0.00000  Uiso   1.00
O477   O     0.93703   0.73836   0.22068   0.00000  Uiso   1.00
O478   O     0.90238   0.70558   0.27654   0.00000  Uiso   1.00
N479   N     0.91644   0.87325   0.05563   0.00000  Uiso   1.00
O480   O     0.96378   0.86820   0.04651   0.00000  Uiso   1.00
O481   O     0.90747   0.90572   0.07939   0.00000  Uiso   1.00
N482   N     0.75023   0.79342   0.27770   0.00000  Uiso   1.00
O483   O     0.70289   0.79847   0.28682   0.00000  Uiso   1.00
O484   O     0.75919   0.76095   0.25394   0.00000  Uiso   1.00
H485   H     0.90533   0.86629   0.29925   0.00000  Uiso   1.00
H486   H     0.76133   0.80038   0.03408   0.00000  Uiso   1.00
O487   O     0.16666   0.10558   0.53821   0.00000  Uiso   1.00
O488   O     0.16667   0.22775   0.46179   0.00000  Uiso   1.00
O489   O     0.16666   0.10559   0.46176   0.00000  Uiso   1.00
O490   O     0.16667   0.22774   0.53824   0.00000  Uiso   1.00
C491   C     0.16671   0.08680   0.49977   0.00000  Uiso   1.00
C492   C     0.16662   0.24653   0.50023   0.00000  Uiso   1.00
O493   O     0.09058   0.16666   0.52928   0.00000  Uiso   1.00
O494   O     0.24275   0.16667   0.47072   0.00000  Uiso   1.00
O495   O     0.09058   0.16667   0.45284   0.00000  Uiso   1.00
O496   O     0.24275   0.16666   0.54716   0.00000  Uiso   1.00
C497   C     0.06730   0.16565   0.48841   0.00000  Uiso   1.00
C498   C     0.26603   0.16768   0.51159   0.00000  Uiso   1.00
Zn499  Zn    0.16667   0.16666   0.55104   0.00000  Uiso   1.00
Zn500  Zn    0.16667   0.16667   0.44896   0.00000  Uiso   1.00
N501   N     0.16665   0.16666   0.61907   0.00000  Uiso   1.00
N502   N     0.16668   0.16668   0.38093   0.00000  Uiso   1.00
C503   C     0.01291   0.15833   0.48392   0.00000  Uiso   1.00
C504   C     0.32042   0.17501   0.51608   0.00000  Uiso   1.00
C505   C     0.13399   0.02055   0.46573   0.00000  Uiso   1.00
C506   C     0.19934   0.31278   0.53427   0.00000  Uiso   1.00
C507   C     0.13264   0.31086   0.46659   0.00000  Uiso   1.00
C508   C     0.20069   0.02247   0.53341   0.00000  Uiso   1.00
C509   C     0.16560   0.29068   0.50076   0.00000  Uiso   1.00
C510   C     0.16773   0.04265   0.49924   0.00000  Uiso   1.00
C511   C     0.20704   0.18541   0.36163   0.00000  Uiso   1.00
C512   C     0.12629   0.14793   0.63837   0.00000  Uiso   1.00
C513   C     0.20684   0.18486   0.64719   0.00000  Uiso   1.00
C514   C     0.12650   0.14848   0.35281   0.00000  Uiso   1.00
N515   N     0.32392   0.12623   0.45208   0.00000  Uiso   1.00
O516   O     0.00457   0.12418   0.41169   0.00000  Uiso   1.00
O517   O     0.29708   0.09514   0.46588   0.00000  Uiso   1.00
N518   N     0.00941   0.20710   0.54792   0.00000  Uiso   1.00
O519   O     0.32876   0.20916   0.58831   0.00000  Uiso   1.00
O520   O     0.03626   0.23820   0.53412   0.00000  Uiso   1.00
N521   N     0.09822   0.04164   0.43289   0.00000  Uiso   1.00
O522   O     0.11349   0.05374   0.39499   0.00000  Uiso   1.00
O523   O     0.04849   0.03997   0.43616   0.00000  Uiso   1.00
N524   N     0.23510   0.29169   0.56712   0.00000  Uiso   1.00
O525   O     0.21982   0.27960   0.60501   0.00000  Uiso   1.00
O526   O     0.28483   0.29337   0.56386   0.00000  Uiso   1.00
N527   N     0.09717   0.28790   0.43328   0.00000  Uiso   1.00
O528   O     0.06298   0.26163   0.44599   0.00000  Uiso   1.00
O529   O     0.09761   0.29442   0.39013   0.00000  Uiso   1.00
N530   N     0.23616   0.04543   0.56672   0.00000  Uiso   1.00
O531   O     0.27036   0.07169   0.55401   0.00000  Uiso   1.00
O532   O     0.23571   0.03892   0.60987   0.00000  Uiso   1.00
N533   N     0.24977   0.20658   0.38896   0.00000  Uiso   1.00
O534   O     0.29711   0.20153   0.37985   0.00000  Uiso   1.00
O535   O     0.24081   0.23905   0.41272   0.00000  Uiso   1.00
N536   N     0.08356   0.12675   0.61104   0.00000  Uiso   1.00
O537   O     0.03622   0.13180   0.62015   0.00000  Uiso   1.00
O538   O     0.09252   0.09428   0.58728   0.00000  Uiso   1.00
H539   H     0.23867   0.19962   0.63259   0.00000  Uiso   1.00
H540   H     0.09467   0.13371   0.36742   0.00000  Uiso   1.00
O541   O     0.50000   0.10558   0.53821   0.00000  Uiso   1.00
O542   O     0.50000   0.22775   0.46179   0.00000  Uiso   1.00
O543   O     0.50000   0.10559   0.46176   0.00000  Uiso   1.00
O544   O     0.50000   0.22774   0.53824   0.00000  Uiso   1.00
C545   C     0.50004   0.08680   0.49977   0.00000  Uiso   1.00
C546   C     0.49996   0.24653   0.50023   0.00000  Uiso   1.00
O547   O     0.42392   0.16666   0.52928   0.00000  Uiso   1.00
O548   O     0.57608   0.16667   0.47072   0.00000  Uiso   1.00
O549   O     0.42392   0.16667   0.45284   0.00000  Uiso   1.00
O550   O     0.57608   0.16666   0.54716   0.00000  Uiso   1.00
C551   C     0.40063   0.16565   0.48841   0.00000  Uiso   1.00
C552   C     0.59937   0.16768   0.51159   0.00000  Uiso   1.00
Zn553  Zn    0.50000   0.16666   0.55104   0.00000  Uiso   1.00
Zn554  Zn    0.50000   0.16667   0.44896   0.00000  Uiso   1.00
N555   N     0.49999   0.16666   0.61907   0.00000  Uiso   1.00
N556   N     0.50001   0.16668   0.38093   0.00000  Uiso   1.00
C557   C     0.34625   0.15833   0.48392   0.00000  Uiso   1.00
C558   C     0.65375   0.17501   0.51608   0.00000  Uiso   1.00
C559   C     0.46732   0.02055   0.46573   0.00000  Uiso   1.00
C560   C     0.53268   0.31278   0.53427   0.00000  Uiso   1.00
C561   C     0.46597   0.31086   0.46659   0.00000  Uiso   1.00
C562   C     0.53403   0.02247   0.53341   0.00000  Uiso   1.00
C563   C     0.49893   0.29068   0.50076   0.00000  Uiso   1.00
C564   C     0.50107   0.04265   0.49924   0.00000  Uiso   1.00
C565   C     0.54038   0.18541   0.36163   0.00000  Uiso   1.00
C566   C     0.45963   0.14793   0.63837   0.00000  Uiso   1.00
C567   C     0.54017   0.18486   0.64719   0.00000  Uiso   1.00
C568   C     0.45983   0.14848   0.35281   0.00000  Uiso   1.00
N569   N     0.65725   0.12623   0.45208   0.00000  Uiso   1.00
O570   O     0.33790   0.12418   0.41169   0.00000  Uiso   1.00
O571   O     0.63041   0.09514   0.46588   0.00000  Uiso   1.00
N572   N     0.34275   0.20710   0.54792   0.00000  Uiso   1.00
O573   O     0.66209   0.20916   0.58831   0.00000  Uiso   1.00
O574   O     0.36959   0.23820   0.53412   0.00000  Uiso   1.00
N575   N     0.43156   0.04164   0.43289   0.00000  Uiso   1.00
O576   O     0.44682   0.05374   0.39499   0.00000  Uiso   1.00
O577   O     0.38182   0.03997   0.43616   0.00000  Uiso   1.00
N578   N     0.56843   0.29169   0.56712   0.00000  Uiso   1.00
O579   O     0.55315   0.27960   0.60501   0.00000  Uiso   1.00
O580   O     0.61816   0.29337   0.56386   0.00000  Uiso   1.00
N581   N     0.43050   0.28790   0.43328   0.00000  Uiso   1.00
O582   O     0.39631   0.26163   0.44599   0.00000  Uiso   1.00
O583   O     0.43094   0.29442   0.39013   0.00000  Uiso   1.00
N584   N     0.56949   0.04543   0.56672   0.00000  Uiso   1.00
O585   O     0.60369   0.07169   0.55401   0.00000  Uiso   1.00
O586   O     0.56905   0.03892   0.60987   0.00000  Uiso   1.00
N587   N     0.58311   0.20658   0.38896   0.00000  Uiso   1.00
O588   O     0.63044   0.20153   0.37985   0.00000  Uiso   1.00
O589   O     0.57414   0.23905   0.41272   0.00000  Uiso   1.00
N590   N     0.41689   0.12675   0.61104   0.00000  Uiso   1.00
O591   O     0.36956   0.13180   0.62015   0.00000  Uiso   1.00
O592   O     0.42586   0.09428   0.58728   0.00000  Uiso   1.00
H593   H     0.57200   0.19962   0.63259   0.00000  Uiso   1.00
H594   H     0.42800   0.13371   0.36742   0.00000  Uiso   1.00
O595   O     0.83333   0.10558   0.53821   0.00000  Uiso   1.00
O596   O     0.83334   0.22775   0.46179   0.00000  Uiso   1.00
O597   O     0.83333   0.10559   0.46176   0.00000  Uiso   1.00
O598   O     0.83334   0.22774   0.53824   0.00000  Uiso   1.00
C599   C     0.83338   0.08680   0.49977   0.00000  Uiso   1.00
C600   C     0.83329   0.24653   0.50023   0.00000  Uiso   1.00
O601   O     0.75725   0.16666   0.52928   0.00000  Uiso   1.00
O602   O     0.90942   0.16667   0.47072   0.00000  Uiso   1.00
O603   O     0.75725   0.16667   0.45284   0.00000  Uiso   1.00
O604   O     0.90942   0.16666   0.54716   0.00000  Uiso   1.00
C605   C     0.73397   0.16565   0.48841   0.00000  Uiso   1.00
C606   C     0.93270   0.16768   0.51159   0.00000  Uiso   1.00
Zn607  Zn    0.83333   0.16666   0.55104   0.00000  Uiso   1.00
Zn608  Zn    0.83333   0.16667   0.44896   0.00000  Uiso   1.00
N609   N     0.83332   0.16666   0.61907   0.00000  Uiso   1.00
N610   N     0.83335   0.16668   0.38093   0.00000  Uiso   1.00
C611   C     0.67958   0.15833   0.48392   0.00000  Uiso   1.00
C612   C     0.98709   0.17501   0.51608   0.00000  Uiso   1.00
C613   C     0.80065   0.02055   0.46573   0.00000  Uiso   1.00
C614   C     0.86601   0.31278   0.53427   0.00000  Uiso   1.00
C615   C     0.79931   0.31086   0.46659   0.00000  Uiso   1.00
C616   C     0.86736   0.02247   0.53341   0.00000  Uiso   1.00
C617   C     0.83227   0.29068   0.50076   0.00000  Uiso   1.00
C618   C     0.83440   0.04265   0.49924   0.00000  Uiso   1.00
C619   C     0.87371   0.18541   0.36163   0.00000  Uiso   1.00
C620   C     0.79296   0.14793   0.63837   0.00000  Uiso   1.00
C621   C     0.87350   0.18486   0.64719   0.00000  Uiso   1.00
C622   C     0.79316   0.14848   0.35281   0.00000  Uiso   1.00
N623   N     0.99059   0.12623   0.45208   0.00000  Uiso   1.00
O624   O     0.67124   0.12418   0.41169   0.00000  Uiso   1.00
O625   O     0.96375   0.09514   0.46588   0.00000  Uiso   1.00
N626   N     0.67608   0.20710   0.54792   0.00000  Uiso   1.00
O627   O     0.99542   0.20916   0.58831   0.00000  Uiso   1.00
O628   O     0.70293   0.23820   0.53412   0.00000  Uiso   1.00
N629   N     0.76489   0.04164   0.43289   0.00000  Uiso   1.00
O630   O     0.78015   0.05374   0.39499   0.00000  Uiso   1.00
O631   O     0.71516   0.03997   0.43616   0.00000  Uiso   1.00
N632   N     0.90176   0.29169   0.56712   0.00000  Uiso   1.00
O633   O     0.88648   0.27960   0.60501   0.00000  Uiso   1.00
O634   O     0.95150   0.29337   0.56386   0.00000  Uiso   1.00
N635   N     0.76384   0.28790   0.43328   0.00000  Uiso   1.00
O636   O     0.72965   0.26163   0.44599   0.00000  Uiso   1.00
O637   O     0.76428   0.29442   0.39013   0.00000  Uiso   1.00
N638   N     0.90283   0.04543   0.56672   0.00000  Uiso   1.00
O639   O     0.93703   0.07169   0.55401   0.00000  Uiso   1.00
O640   O     0.90238   0.03892   0.60987   0.00000  Uiso   1.00
N641   N     0.91644   0.20658   0.38896   0.00000  Uiso   1.00
O642   O     0.96378   0.20153   0.37985   0.00000  Uiso   1.00
O643   O     0.90747   0.23905   0.41272   0.00000  Uiso   1.00
N644   N     0.75023   0.12675   0.61104   0.00000  Uiso   1.00
O645   O     0.70289   0.13180   0.62015   0.00000  Uiso   1.00
O646   O     0.75919   0.09428   0.58728   0.00000  Uiso   1.00
H647   H     0.90533   0.19962   0.63259   0.00000  Uiso   1.00
H648   H     0.76133   0.13371   0.36742   0.00000  Uiso   1.00
O649   O     0.16666   0.43892   0.53821   0.00000  Uiso   1.00
O650   O     0.16667   0.56108   0.46179   0.00000  Uiso   1.00
O651   O     0.16666   0.43893   0.46176   0.00000  Uiso   1.00
O652   O     0.16667   0.56107   0.53824   0.00000  Uiso   1.00
C653   C     0.16671   0.42013   0.49977   0.00000  Uiso   1.00
C654   C     0.16662   0.57987   0.50023   0.00000  Uiso   1.00
O655   O     0.09058   0.50000   0.52928   0.00000  Uiso   1.00
O656   O     0.24275   0.50000   0.47072   0.00000  Uiso   1.00
O657   O     0.09058   0.50000   0.45284   0.00000  Uiso   1.00
O658   O     0.24275   0.50000   0.54716   0.00000  Uiso   1.00
C659   C     0.06730   0.49899   0.48841   0.00000  Uiso   1.00
C660   C     0.26603   0.50101   0.51159   0.00000  Uiso   1.00
Zn661  Zn    0.16667   0.49999   0.55104   0.00000  Uiso   1.00
Zn662  Zn    0.16667   0.50001   0.44896   0.00000  Uiso   1.00
N663   N     0.16665   0.49999   0.61907   0.00000  Uiso   1.00
N664   N     0.16668   0.50001   0.38093   0.00000  Uiso   1.00
C665   C     0.01291   0.49166   0.48392   0.00000  Uiso   1.00
C666   C     0.32042   0.50834   0.51608   0.00000  Uiso   1.00
C667   C     0.13399   0.35389   0.46573   0.00000  Uiso   1.00
C668   C     0.19934   0.64611   0.53427   0.00000  Uiso   1.00
C669   C     0.13264   0.64419   0.46659   0.00000  Uiso   1.00
C670   C     0.20069   0.35581   0.53341   0.00000  Uiso   1.00
C671   C     0.16560   0.62401   0.50076   0.00000  Uiso   1.00
C672   C     0.16773   0.37599   0.49924   0.00000  Uiso   1.00
C673   C     0.20704   0.51874   0.36163   0.00000  Uiso   1.00
C674   C     0.12629   0.48126   0.63837   0.00000  Uiso   1.00
C675   C     0.20684   0.51819   0.64719   0.00000  Uiso   1.00
C676   C     0.12650   0.48181   0.35281   0.00000  Uiso   1.00
N677   N     0.32392   0.45957   0.45208   0.00000  Uiso   1.00
O678   O     0.00457   0.45751   0.41169   0.00000  Uiso   1.00
O679   O     0.29708   0.42847   0.46588   0.00000  Uiso   1.00
N680   N     0.00941   0.54043   0.54792   0.00000  Uiso   1.00
O681   O     0.32876   0.54249   0.58831   0.00000  Uiso   1.00
O682   O     0.03626   0.57153   0.53412   0.00000  Uiso   1.00
N683   N     0.09822   0.37497   0.43289   0.00000  Uiso   1.00
O684   O     0.11349   0.38707   0.39499   0.00000  Uiso   1.00
O685   O     0.04849   0.37330   0.43616   0.00000  Uiso   1.00
N686   N     0.23510   0.62503   0.56712   0.00000  Uiso   1.00
O687   O     0.21982   0.61293   0.60501   0.00000  Uiso   1.00
O688   O     0.28483   0.62670   0.56386   0.00000  Uiso   1.00
N689   N     0.09717   0.62123   0.43328   0.00000  Uiso   1.00
O690   O     0.06298   0.59497   0.44599   0.00000  Uiso   1.00
O691   O     0.09761   0.62776   0.39013   0.00000  Uiso   1.00
N692   N     0.23616   0.37877   0.56672   0.00000  Uiso   1.00
O693   O     0.27036   0.40503   0.55401   0.00000  Uiso   1.00
O694   O     0.23571   0.37225   0.60987   0.00000  Uiso   1.00
N695   N     0.24977   0.53992   0.38896   0.00000  Uiso   1.00
O696   O     0.29711   0.53487   0.37985   0.00000  Uiso   1.00
O697   O     0.24081   0.57238   0.41272   0.00000  Uiso   1.00
N698   N     0.08356   0.46009   0.61104   0.00000  Uiso   1.00
O699   O     0.03622   0.46514   0.62015   0.00000  Uiso   1.00
O700   O     0.09252   0.42762   0.58728   0.00000  Uiso   1.00
H701   H     0.23867   0.53296   0.63259   0.00000  Uiso   1.00
H702   H     0.09467   0.46705   0.36742   0.00000  Uiso   1.00
O703   O     0.50000   0.43892   0.53821   0.00000  Uiso   1.00
O704   O     0.50000   0.56108   0.46179   0.00000  Uiso   1.00
O705   O     0.50000   0.43893   0.46176   0.00000  Uiso   1.00
O706   O     0.50000   0.56107   0.53824   0.00000  Uiso   1.00
C707   C     0.50004   0.42013   0.49977   0.00000  Uiso   1.00
C708   C     0.49996   0.57987   0.50023   0.00000  Uiso   1.00
O709   O     0.42392   0.50000   0.52928   0.00000  Uiso   1.00
O710   O     0.57608   0.50000   0.47072   0.00000  Uiso   1.00
O711   O     0.42392   0.50000   0.45284   0.00000  Uiso   1.00
O712   O     0.57608   0.50000   0.54716   0.00000  Uiso   1.00
C713   C     0.40063   0.49899   0.48841   0.00000  Uiso   1.00
C714   C     0.59937   0.50101   0.51159   0.00000  Uiso   1.00
Zn715  Zn    0.50000   0.49999   0.55104   0.00000  Uiso   1.00
Zn716  Zn    0.50000   0.50001   0.44896   0.00000  Uiso   1.00
N717   N     0.49999   0.49999   0.61907   0.00000  Uiso   1.00
N718   N     0.50001   0.50001   0.38093   0.00000  Uiso   1.00
C719   C     0.34625   0.49166   0.48392   0.00000  Uiso   1.00
C720   C     0.65375   0.50834   0.51608   0.00000  Uiso   1.00
C721   C     0.46732   0.35389   0.46573   0.00000  Uiso   1.00
C722   C     0.53268   0.64611   0.53427   0.00000  Uiso   1.00
C723   C     0.46597   0.64419   0.46659   0.00000  Uiso   1.00
C724   C     0.53403   0.35581   0.53341   0.00000  Uiso   1.00
C725   C     0.49893   0.62401   0.50076   0.00000  Uiso   1.00
C726   C     0.50107   0.37599   0.49924   0.00000  Uiso   1.00
C727   C     0.54038   0.51874   0.36163   0.00000  Uiso   1.00
C728   C     0.45963   0.48126   0.63837   0.00000  Uiso   1.00
C729   C     0.54017   0.51819   0.64719   0.00000  Uiso   1.00
C730   C     0.45983   0.48181   0.35281   0.00000  Uiso   1.00
N731   N     0.65725   0.45957   0.45208   0.00000  Uiso   1.00
O732   O     0.33790   0.45751   0.41169   0.00000  Uiso   1.00
O733   O     0.63041   0.42847   0.46588   0.00000  Uiso   1.00
N734   N     0.34275   0.54043   0.54792   0.00000  Uiso   1.00
O735   O     0.66209   0.54249   0.58831   0.00000  Uiso   1.00
O736   O     0.36959   0.57153   0.53412   0.00000  Uiso   1.00
N737   N     0.43156   0.37497   0.43289   0.00000  Uiso   1.00
O738   O     0.44682   0.38707   0.39499   0.00000  Uiso   1.00
O739   O     0.38182   0.37330   0.43616   0.00000  Uiso   1.00
N740   N     0.56843   0.62503   0.56712   0.00000  Uiso   1.00
O741   O     0.55315   0.61293   0.60501   0.00000  Uiso   1.00
O742   O     0.61816   0.62670   0.56386   0.00000  Uiso   1.00
N743   N     0.43050   0.62123   0.43328   0.00000  Uiso   1.00
O744   O     0.39631   0.59497   0.44599   0.00000  Uiso   1.00
O745   O     0.43094   0.62776   0.39013   0.00000  Uiso   1.00
N746   N     0.56949   0.37877   0.56672   0.00000  Uiso   1.00
O747   O     0.60369   0.40503   0.55401   0.00000  Uiso   1.00
O748   O     0.56905   0.37225   0.60987   0.00000  Uiso   1.00
N749   N     0.58311   0.53992   0.38896   0.00000  Uiso   1.00
O750   O     0.63044   0.53487   0.37985   0.00000  Uiso   1.00
O751   O     0.57414   0.57238   0.41272   0.00000  Uiso   1.00
N752   N     0.41689   0.46009   0.61104   0.00000  Uiso   1.00
O753   O     0.36956   0.46514   0.62015   0.00000  Uiso   1.00
O754   O     0.42586   0.42762   0.58728   0.00000  Uiso   1.00
H755   H     0.57200   0.53296   0.63259   0.00000  Uiso   1.00
H756   H     0.42800   0.46705   0.36742   0.00000  Uiso   1.00
O757   O     0.83333   0.43892   0.53821   0.00000  Uiso   1.00
O758   O     0.83334   0.56108   0.46179   0.00000  Uiso   1.00
O759   O     0.83333   0.43893   0.46176   0.00000  Uiso   1.00
O760   O     0.83334   0.56107   0.53824   0.00000  Uiso   1.00
C761   C     0.83338   0.42013   0.49977   0.00000  Uiso   1.00
C762   C     0.83329   0.57987   0.50023   0.00000  Uiso   1.00
O763   O     0.75725   0.50000   0.52928   0.00000  Uiso   1.00
O764   O     0.90942   0.50000   0.47072   0.00000  Uiso   1.00
O765   O     0.75725   0.50000   0.45284   0.00000  Uiso   1.00
O766   O     0.90942   0.50000   0.54716   0.00000  Uiso   1.00
C767   C     0.73397   0.49899   0.48841   0.00000  Uiso   1.00
C768   C     0.93270   0.50101   0.51159   0.00000  Uiso   1.00
Zn769  Zn    0.83333   0.49999   0.55104   0.00000  Uiso   1.00
Zn770  Zn    0.83333   0.50001   0.44896   0.00000  Uiso   1.00
N771   N     0.83332   0.49999   0.61907   0.00000  Uiso   1.00
N772   N     0.83335   0.50001   0.38093   0.00000  Uiso   1.00
C773   C     0.67958   0.49166   0.48392   0.00000  Uiso   1.00
C774   C     0.98709   0.50834   0.51608   0.00000  Uiso   1.00
C775   C     0.80065   0.35389   0.46573   0.00000  Uiso   1.00
C776   C     0.86601   0.64611   0.53427   0.00000  Uiso   1.00
C777   C     0.79931   0.64419   0.46659   0.00000  Uiso   1.00
C778   C     0.86736   0.35581   0.53341   0.00000  Uiso   1.00
C779   C     0.83227   0.62401   0.50076   0.00000  Uiso   1.00
C780   C     0.83440   0.37599   0.49924   0.00000  Uiso   1.00
C781   C     0.87371   0.51874   0.36163   0.00000  Uiso   1.00
C782   C     0.79296   0.48126   0.63837   0.00000  Uiso   1.00
C783   C     0.87350   0.51819   0.64719   0.00000  Uiso   1.00
C784   C     0.79316   0.48181   0.35281   0.00000  Uiso   1.00
N785   N     0.99059   0.45957   0.45208   0.00000  Uiso   1.00
O786   O     0.67124   0.45751   0.41169   0.00000  Uiso   1.00
O787   O     0.96375   0.42847   0.46588   0.00000  Uiso   1.00
N788   N     0.67608   0.54043   0.54792   0.00000  Uiso   1.00
O789   O     0.99542   0.54249   0.58831   0.00000  Uiso   1.00
O790   O     0.70293   0.57153   0.53412   0.00000  Uiso   1.00
N791   N     0.76489   0.37497   0.43289   0.00000  Uiso   1.00
O792   O     0.78015   0.38707   0.39499   0.00000  Uiso   1.00
O793   O     0.71516   0.37330   0.43616   0.00000  Uiso   1.00
N794   N     0.90176   0.62503   0.56712   0.00000  Uiso   1.00
O795   O     0.88648   0.61293   0.60501   0.00000  Uiso   1.00
O796   O     0.95150   0.62670   0.56386   0.00000  Uiso   1.00
N797   N     0.76384   0.62123   0.43328   0.00000  Uiso   1.00
O798   O     0.72965   0.59497   0.44599   0.00000  Uiso   1.00
O799   O     0.76428   0.62776   0.39013   0.00000  Uiso   1.00
N800   N     0.90283   0.37877   0.56672   0.00000  Uiso   1.00
O801   O     0.93703   0.40503   0.55401   0.00000  Uiso   1.00
O802   O     0.90238   0.37225   0.60987   0.00000  Uiso   1.00
N803   N     0.91644   0.53992   0.38896   0.00000  Uiso   1.00
O804   O     0.96378   0.53487   0.37985   0.00000  Uiso   1.00
O805   O     0.90747   0.57238   0.41272   0.00000  Uiso   1.00
N806   N     0.75023   0.46009   0.61104   0.00000  Uiso   1.00
O807   O     0.70289   0.46514   0.62015   0.00000  Uiso   1.00
O808   O     0.75919   0.42762   0.58728   0.00000  Uiso   1.00
H809   H     0.90533   0.53296   0.63259   0.00000  Uiso   1.00
H810   H     0.76133   0.46705   0.36742   0.00000  Uiso   1.00
O811   O     0.16666   0.77225   0.53821   0.00000  Uiso   1.00
O812   O     0.16667   0.89442   0.46179   0.00000  Uiso   1.00
O813   O     0.16666   0.77226   0.46176   0.00000  Uiso   1.00
O814   O     0.16667   0.89441   0.53824   0.00000  Uiso   1.00
C815   C     0.16671   0.75347   0.49977   0.00000  Uiso   1.00
C816   C     0.16662   0.91320   0.50023   0.00000  Uiso   1.00
O817   O     0.09058   0.83333   0.52928   0.00000  Uiso   1.00
O818   O     0.24275   0.83334   0.47072   0.00000  Uiso   1.00
O819   O     0.09058   0.83334   0.45284   0.00000  Uiso   1.00
O820   O     0.24275   0.83333   0.54716   0.00000  Uiso   1.00
C821   C     0.06730   0.83232   0.48841   0.00000  Uiso   1.00
C822   C     0.26603   0.83435   0.51159   0.00000  Uiso   1.00
Zn823  Zn    0.16667   0.83333   0.55104   0.00000  Uiso   1.00
Zn824  Zn    0.16667   0.83334   0.44896   0.00000  Uiso   1.00
N825   N     0.16665   0.83332   0.61907   0.00000  Uiso   1.00
N826   N     0.16668   0.83334   0.38093   0.00000  Uiso   1.00
C827   C     0.01291   0.82500   0.48392   0.00000  Uiso   1.00
C828   C     0.32042   0.84167   0.51608   0.00000  Uiso   1.00
C829   C     0.13399   0.68722   0.46573   0.00000  Uiso   1.00
C830   C     0.19934   0.97945   0.53427   0.00000  Uiso   1.00
C831   C     0.13264   0.97753   0.46659   0.00000  Uiso   1.00
C832   C     0.20069   0.68914   0.53341   0.00000  Uiso   1.00
C833   C     0.16560   0.95735   0.50076   0.00000  Uiso   1.00
C834   C     0.16773   0.70932   0.49924   0.00000  Uiso   1.00
C835   C     0.20704   0.85207   0.36163   0.00000  Uiso   1.00
C836   C     0.12629   0.81459   0.63837   0.00000  Uiso   1.00
C837   C     0.20684   0.85152   0.64719   0.00000  Uiso   1.00
C838   C     0.12650   0.81514   0.35281   0.00000  Uiso   1.00
N839   N     0.32392   0.79290   0.45208   0.00000  Uiso   1.00
O840   O     0.00457   0.79084   0.41169   0.00000  Uiso   1.00
O841   O     0.29708   0.76180   0.46588   0.00000  Uiso   1.00
N842   N     0.00941   0.87377   0.54792   0.00000  Uiso   1.00
O843   O     0.32876   0.87583   0.58831   0.00000  Uiso   1.00
O844   O     0.03626   0.90486   0.53412   0.00000  Uiso   1.00
N845   N     0.09822   0.70831   0.43289   0.00000  Uiso   1.00
O846   O     0.11349   0.72040   0.39499   0.00000  Uiso   1.00
O847   O     0.04849   0.70664   0.43616   0.00000  Uiso   1.00
N848   N     0.23510   0.95836   0.56712   0.00000  Uiso   1.00
O849   O     0.21982   0.94626   0.60501   0.00000  Uiso   1.00
O850   O     0.28483   0.96003   0.56386   0.00000  Uiso   1.00
N851   N     0.09717   0.95457   0.43328   0.00000  Uiso   1.00
O852   O     0.06298   0.92830   0.44599   0.00000  Uiso   1.00
O853   O     0.09761   0.96109   0.39013   0.00000  Uiso   1.00
N854   N     0.23616   0.71210   0.56672   0.00000  Uiso   1.00
O855   O     0.27036   0.73836   0.55401   0.00000  Uiso   1.00
O856   O     0.23571   0.70558   0.60987   0.00000  Uiso   1.00
N857   N     0.24977   0.87325   0.38896   0.00000  Uiso   1.00
O858   O     0.29711   0.86820   0.37985   0.00000  Uiso   1.00
O859   O     0.24081   0.90572   0.41272   0.00000  Uiso   1.00
N860   N     0.08356   0.79342   0.61104   0.00000  Uiso   1.00
O861   O     0.03622   0.79847   0.62015   0.00000  Uiso   1.00
O862   O     0.09252   0.76095   0.58728   0.00000  Uiso   1.00
H863   H     0.23867   0.86629   0.63259   0.00000  Uiso   1.00
H864   H     0.09467   0.80038   0.36742   0.00000  Uiso   1.00
O865   O     0.50000   0.77225   0.53821   0.00000  Uiso   1.00
O866   O     0.50000   0.89442   0.46179   0.00000  Uiso   1.00
O867   O     0.50000   0.77226   0.46176   0.00000  Uiso   1.00
O868   O     0.50000   0.89441   0.53824   0.00000  Uiso   1.00
C869   C     0.50004   0.75347   0.49977   0.00000  Uiso   1.00
C870   C     0.49996   0.91320   0.50023   0.00000  Uiso   1.00
O871   O     0.42392   0.83333   0.52928   0.00000  Uiso   1.00
O872   O     0.57608   0.83334   0.47072   0.00000  Uiso   1.00
O873   O     0.42392   0.83334   0.45284   0.00000  Uiso   1.00
O874   O     0.57608   0.83333   0.54716   0.00000  Uiso   1.00
C875   C     0.40063   0.83232   0.48841   0.00000  Uiso   1.00
C876   C     0.59937   0.83435   0.51159   0.00000  Uiso   1.00
Zn877  Zn    0.50000   0.83333   0.55104   0.00000  Uiso   1.00
Zn878  Zn    0.50000   0.83334   0.44896   0.00000  Uiso   1.00
N879   N     0.49999   0.83332   0.61907   0.00000  Uiso   1.00
N880   N     0.50001   0.83334   0.38093   0.00000  Uiso   1.00
C881   C     0.34625   0.82500   0.48392   0.00000  Uiso   1.00
C882   C     0.65375   0.84167   0.51608   0.00000  Uiso   1.00
C883   C     0.46732   0.68722   0.46573   0.00000  Uiso   1.00
C884   C     0.53268   0.97945   0.53427   0.00000  Uiso   1.00
C885   C     0.46597   0.97753   0.46659   0.00000  Uiso   1.00
C886   C     0.53403   0.68914   0.53341   0.00000  Uiso   1.00
C887   C     0.49893   0.95735   0.50076   0.00000  Uiso   1.00
C888   C     0.50107   0.70932   0.49924   0.00000  Uiso   1.00
C889   C     0.54038   0.85207   0.36163   0.00000  Uiso   1.00
C890   C     0.45963   0.81459   0.63837   0.00000  Uiso   1.00
C891   C     0.54017   0.85152   0.64719   0.00000  Uiso   1.00
C892   C     0.45983   0.81514   0.35281   0.00000  Uiso   1.00
N893   N     0.65725   0.79290   0.45208   0.00000  Uiso   1.00
O894   O     0.33790   0.79084   0.41169   0.00000  Uiso   1.00
O895   O     0.63041   0.76180   0.46588   0.00000  Uiso   1.00
N896   N     0.34275   0.87377   0.54792   0.00000  Uiso   1.00
O897   O     0.66209   0.87583   0.58831   0.00000  Uiso   1.00
O898   O     0.36959   0.90486   0.53412   0.00000  Uiso   1.00
N899   N     0.43156   0.70831   0.43289   0.00000  Uiso   1.00
O900   O     0.44682   0.72040   0.39499   0.00000  Uiso   1.00
O901   O     0.38182   0.70664   0.43616   0.00000  Uiso   1.00
N902   N     0.56843   0.95836   0.56712   0.00000  Uiso   1.00
O903   O     0.55315   0.94626   0.60501   0.00000  Uiso   1.00
O904   O     0.61816   0.96003   0.56386   0.00000  Uiso   1.00
N905   N     0.43050   0.95457   0.43328   0.00000  Uiso   1.00
O906   O     0.39631   0.92830   0.44599   0.00000  Uiso   1.00
O907   O     0.43094   0.96109   0.39013   0.00000  Uiso   1.00
N908   N     0.56949   0.71210   0.56672   0.00000  Uiso   1.00
O909   O     0.60369   0.73836   0.55401   0.00000  Uiso   1.00
O910   O     0.56905   0.70558   0.60987   0.00000  Uiso   1.00
N911   N     0.58311   0.87325   0.38896   0.00000  Uiso   1.00
O912   O     0.63044   0.86820   0.37985   0.00000  Uiso   1.00
O913   O     0.57414   0.90572   0.41272   0.00000  Uiso   1.00
N914   N     0.41689   0.79342   0.61104   0.00000  Uiso   1.00
O915   O     0.36956   0.79847   0.62015   0.00000  Uiso   1.00
O916   O     0.42586   0.76095   0.58728   0.00000  Uiso   1.00
H917   H     0.57200   0.86629   0.63259   0.00000  Uiso   1.00
H918   H     0.42800   0.80038   0.36742   0.00000  Uiso   1.00
O919   O     0.83333   0.77225   0.53821   0.00000  Uiso   1.00
O920   O     0.83334   0.89442   0.46179   0.00000  Uiso   1.00
O921   O     0.83333   0.77226   0.46176   0.00000  Uiso   1.00
O922   O     0.83334   0.89441   0.53824   0.00000  Uiso   1.00
C923   C     0.83338   0.75347   0.49977   0.00000  Uiso   1.00
C924   C     0.83329   0.91320   0.50023   0.00000  Uiso   1.00
O925   O     0.75725   0.83333   0.52928   0.00000  Uiso   1.00
O926   O     0.90942   0.83334   0.47072   0.00000  Uiso   1.00
O927   O     0.75725   0.83334   0.45284   0.00000  Uiso   1.00
O928   O     0.90942   0.83333   0.54716   0.00000  Uiso   1.00
C929   C     0.73397   0.83232   0.48841   0.00000  Uiso   1.00
C930   C     0.93270   0.83435   0.51159   0.00000  Uiso   1.00
Zn931  Zn    0.83333   0.83333   0.55104   0.00000  Uiso   1.00
Zn932  Zn    0.83333   0.83334   0.44896   0.00000  Uiso   1.00
N933   N     0.83332   0.83332   0.61907   0.00000  Uiso   1.00
N934   N     0.83335   0.83334   0.38093   0.00000  Uiso   1.00
C935   C     0.67958   0.82500   0.48392   0.00000  Uiso   1.00
C936   C     0.98709   0.84167   0.51608   0.00000  Uiso   1.00
C937   C     0.80065   0.68722   0.46573   0.00000  Uiso   1.00
C938   C     0.86601   0.97945   0.53427   0.00000  Uiso   1.00
C939   C     0.79931   0.97753   0.46659   0.00000  Uiso   1.00
C940   C     0.86736   0.68914   0.53341   0.00000  Uiso   1.00
C941   C     0.83227   0.95735   0.50076   0.00000  Uiso   1.00
C942   C     0.83440   0.70932   0.49924   0.00000  Uiso   1.00
C943   C     0.87371   0.85207   0.36163   0.00000  Uiso   1.00
C944   C     0.79296   0.81459   0.63837   0.00000  Uiso   1.00
C945   C     0.87350   0.85152   0.64719   0.00000  Uiso   1.00
C946   C     0.79316   0.81514   0.35281   0.00000  Uiso   1.00
N947   N     0.99059   0.79290   0.45208   0.00000  Uiso   1.00
O948   O     0.67124   0.79084   0.41169   0.00000  Uiso   1.00
O949   O     0.96375   0.76180   0.46588   0.00000  Uiso   1.00
N950   N     0.67608   0.87377   0.54792   0.00000  Uiso   1.00
O951   O     0.99542   0.87583   0.58831   0.00000  Uiso   1.00
O952   O     0.70293   0.90486   0.53412   0.00000  Uiso   1.00
N953   N     0.76489   0.70831   0.43289   0.00000  Uiso   1.00
O954   O     0.78015   0.72040   0.39499   0.00000  Uiso   1.00
O955   O     0.71516   0.70664   0.43616   0.00000  Uiso   1.00
N956   N     0.90176   0.95836   0.56712   0.00000  Uiso   1.00
O957   O     0.88648   0.94626   0.60501   0.00000  Uiso   1.00
O958   O     0.95150   0.96003   0.56386   0.00000  Uiso   1.00
N959   N     0.76384   0.95457   0.43328   0.00000  Uiso   1.00
O960   O     0.72965   0.92830   0.44599   0.00000  Uiso   1.00
O961   O     0.76428   0.96109   0.39013   0.00000  Uiso   1.00
N962   N     0.90283   0.71210   0.56672   0.00000  Uiso   1.00
O963   O     0.93703   0.73836   0.55401   0.00000  Uiso   1.00
O964   O     0.90238   0.70558   0.60987   0.00000  Uiso   1.00
N965   N     0.91644   0.87325   0.38896   0.00000  Uiso   1.00
O966   O     0.96378   0.86820   0.37985   0.00000  Uiso   1.00
O967   O     0.90747   0.90572   0.41272   0.00000  Uiso   1.00
N968   N     0.75023   0.79342   0.61104   0.00000  Uiso   1.00
O969   O     0.70289   0.79847   0.62015   0.00000  Uiso   1.00
O970   O     0.75919   0.76095   0.58728   0.00000  Uiso   1.00
H971   H     0.90533   0.86629   0.63259   0.00000  Uiso   1.00
H972   H     0.76133   0.80038   0.36742   0.00000  Uiso   1.00
O973   O     0.16666   0.10558   0.87154   0.00000  Uiso   1.00
O974   O     0.16667   0.22775   0.79513   0.00000  Uiso   1.00
O975   O     0.16666   0.10559   0.79510   0.00000  Uiso   1.00
O976   O     0.16667   0.22774   0.87157   0.00000  Uiso   1.00
C977   C     0.16671   0.08680   0.83310   0.00000  Uiso   1.00
C978   C     0.16662   0.24653   0.83356   0.00000  Uiso   1.00
O979   O     0.09058   0.16666   0.86261   0.00000  Uiso   1.00
O980   O     0.24275   0.16667   0.80405   0.00000  Uiso   1.00
O981   O     0.09058   0.16667   0.78617   0.00000  Uiso   1.00
O982   O     0.24275   0.16666   0.88050   0.00000  Uiso   1.00
C983   C     0.06730   0.16565   0.82175   0.00000  Uiso   1.00
C984   C     0.26603   0.16768   0.84492   0.00000  Uiso   1.00
Zn985  Zn    0.16667   0.16666   0.88437   0.00000  Uiso   1.00
Zn986  Zn    0.16667   0.16667   0.78229   0.00000  Uiso   1.00
N987   N     0.16665   0.16666   0.95240   0.00000  Uiso   1.00
N988   N     0.16668   0.16668   0.71427   0.00000  Uiso   1.00
C989   C     0.01291   0.15833   0.81726   0.00000  Uiso   1.00
C990   C     0.32042   0.17501   0.84941   0.00000  Uiso   1.00
C991   C     0.13399   0.02055   0.79906   0.00000  Uiso   1.00
C992   C     0.19934   0.31278   0.86760   0.00000  Uiso   1.00
C993   C     0.13264   0.31086   0.79993   0.00000  Uiso   1.00
C994   C     0.20069   0.02247   0.86674   0.00000  Uiso   1.00
C995   C     0.16560   0.29068   0.83410   0.00000  Uiso   1.00
C996   C     0.16773   0.04265   0.83257   0.00000  Uiso   1.00
C997   C     0.20704   0.18541   0.69496   0.00000  Uiso   1.00
C998   C     0.12629   0.14793   0.97171   0.00000  Uiso   1.00
C999   C     0.20684   0.18486   0.98052   0.00000  Uiso   1.00
C1000  C     0.12650   0.14848   0.68614   0.00000  Uiso   1.00
N1001  N     0.32392   0.12623   0.78542   0.00000  Uiso   1.00
O1002  O     0.00457   0.12418   0.74502   0.00000  Uiso   1.00
O1003  O     0.29708   0.09514   0.79922   0.00000  Uiso   1.00
N1004  N     0.00941   0.20710   0.88125   0.00000  Uiso   1.00
O1005  O     0.32876   0.20916   0.92164   0.00000  Uiso   1.00
O1006  O     0.03626   0.23820   0.86745   0.00000  Uiso   1.00
N1007  N     0.09822   0.04164   0.76622   0.00000  Uiso   1.00
O1008  O     0.11349   0.05374   0.72833   0.00000  Uiso   1.00
O1009  O     0.04849   0.03997   0.76950   0.00000  Uiso   1.00
N1010  N     0.23510   0.29169   0.90045   0.00000  Uiso   1.00
O1011  O     0.21982   0.27960   0.93834   0.00000  Uiso   1.00
O1012  O     0.28483   0.29337   0.89720   0.00000  Uiso   1.00
N1013  N     0.09717   0.28790   0.76661   0.00000  Uiso   1.00
O1014  O     0.06298   0.26163   0.77932   0.00000  Uiso   1.00
O1015  O     0.09761   0.29442   0.72346   0.00000  Uiso   1.00
N1016  N     0.23616   0.04543   0.90006   0.00000  Uiso   1.00
O1017  O     0.27036   0.07169   0.88734   0.00000  Uiso   1.00
O1018  O     0.23571   0.03892   0.94320   0.00000  Uiso   1.00
N1019  N     0.24977   0.20658   0.72230   0.00000  Uiso   1.00
O1020  O     0.29711   0.20153   0.71318   0.00000  Uiso   1.00
O1021  O     0.24081   0.23905   0.74606   0.00000  Uiso   1.00
N1022  N     0.08356   0.12675   0.94437   0.00000  Uiso   1.00
O1023  O     0.03622   0.13180   0.95348   0.00000  Uiso   1.00
O1024  O     0.09252   0.09428   0.92061   0.00000  Uiso   1.00
H1025  H     0.23867   0.19962   0.96592   0.00000  Uiso   1.00
H1026  H     0.09467   0.13371   0.70075   0.00000  Uiso   1.00
O1027  O     0.50000   0.10558   0.87154   0.00000  Uiso   1.00
O1028  O     0.50000   0.22775   0.79513   0.00000  Uiso   1.00
O1029  O     0.50000   0.10559   0.79510   0.00000  Uiso   1.00
O1030  O     0.50000   0.22774   0.87157   0.00000  Uiso   1.00
C1031  C     0.50004   0.08680   0.83310   0.00000  Uiso   1.00
C1032  C     0.49996   0.24653   0.83356   0.00000  Uiso   1.00
O1033  O     0.42392   0.16666   0.86261   0.00000  Uiso   1.00
O1034  O     0.57608   0.16667   0.80405   0.00000  Uiso   1.00
O1035  O     0.42392   0.16667   0.78617   0.00000  Uiso   1.00
O1036  O     0.57608   0.16666   0.88050   0.00000  Uiso   1.00
C1037  C     0.40063   0.16565   0.82175   0.00000  Uiso   1.00
C1038  C     0.59937   0.16768   0.84492   0.00000  Uiso   1.00
Zn1039 Zn    0.50000   0.16666   0.88437   0.00000  Uiso   1.00
Zn1040 Zn    0.50000   0.16667   0.78229   0.00000  Uiso   1.00
N1041  N     0.49999   0.16666   0.95240   0.00000  Uiso   1.00
N1042  N     0.50001   0.16668   0.71427   0.00000  Uiso   1.00
C1043  C     0.34625   0.15833   0.81726   0.00000  Uiso   1.00
C1044  C     0.65375   0.17501   0.84941   0.00000  Uiso   1.00
C1045  C     0.46732   0.02055   0.79906   0.00000  Uiso   1.00
C1046  C     0.53268   0.31278   0.86760   0.00000  Uiso   1.00
C1047  C     0.46597   0.31086   0.79993   0.00000  Uiso   1.00
C1048  C     0.53403   0.02247   0.86674   0.00000  Uiso   1.00
C1049  C     0.49893   0.29068   0.83410   0.00000  Uiso   1.00
C1050  C     0.50107   0.04265   0.83257   0.00000  Uiso   1.00
C1051  C     0.54038   0.18541   0.69496   0.00000  Uiso   1.00
C1052  C     0.45963   0.14793   0.97171   0.00000  Uiso   1.00
C1053  C     0.54017   0.18486   0.98052   0.00000  Uiso   1.00
C1054  C     0.45983   0.14848   0.68614   0.00000  Uiso   1.00
N1055  N     0.65725   0.12623   0.78542   0.00000  Uiso   1.00
O1056  O     0.33790   0.12418   0.74502   0.00000  Uiso   1.00
O1057  O     0.63041   0.09514   0.79922   0.00000  Uiso   1.00
N1058  N     0.34275   0.20710   0.88125   0.00000  Uiso   1.00
O1059  O     0.66209   0.20916   0.92164   0.00000  Uiso   1.00
O1060  O     0.36959   0.23820   0.86745   0.00000  Uiso   1.00
N1061  N     0.43156   0.04164   0.76622   0.00000  Uiso   1.00
O1062  O     0.44682   0.05374   0.72833   0.00000  Uiso   1.00
O1063  O     0.38182   0.03997   0.76950   0.00000  Uiso   1.00
N1064  N     0.56843   0.29169   0.90045   0.00000  Uiso   1.00
O1065  O     0.55315   0.27960   0.93834   0.00000  Uiso   1.00
O1066  O     0.61816   0.29337   0.89720   0.00000  Uiso   1.00
N1067  N     0.43050   0.28790   0.76661   0.00000  Uiso   1.00
O1068  O     0.39631   0.26163   0.77932   0.00000  Uiso   1.00
O1069  O     0.43094   0.29442   0.72346   0.00000  Uiso   1.00
N1070  N     0.56949   0.04543   0.90006   0.00000  Uiso   1.00
O1071  O     0.60369   0.07169   0.88734   0.00000  Uiso   1.00
O1072  O     0.56905   0.03892   0.94320   0.00000  Uiso   1.00
N1073  N     0.58311   0.20658   0.72230   0.00000  Uiso   1.00
O1074  O     0.63044   0.20153   0.71318   0.00000  Uiso   1.00
O1075  O     0.57414   0.23905   0.74606   0.00000  Uiso   1.00
N1076  N     0.41689   0.12675   0.94437   0.00000  Uiso   1.00
O1077  O     0.36956   0.13180   0.95348   0.00000  Uiso   1.00
O1078  O     0.42586   0.09428   0.92061   0.00000  Uiso   1.00
H1079  H     0.57200   0.19962   0.96592   0.00000  Uiso   1.00
H1080  H     0.42800   0.13371   0.70075   0.00000  Uiso   1.00
O1081  O     0.83333   0.10558   0.87154   0.00000  Uiso   1.00
O1082  O     0.83334   0.22775   0.79513   0.00000  Uiso   1.00
O1083  O     0.83333   0.10559   0.79510   0.00000  Uiso   1.00
O1084  O     0.83334   0.22774   0.87157   0.00000  Uiso   1.00
C1085  C     0.83338   0.08680   0.83310   0.00000  Uiso   1.00
C1086  C     0.83329   0.24653   0.83356   0.00000  Uiso   1.00
O1087  O     0.75725   0.16666   0.86261   0.00000  Uiso   1.00
O1088  O     0.90942   0.16667   0.80405   0.00000  Uiso   1.00
O1089  O     0.75725   0.16667   0.78617   0.00000  Uiso   1.00
O1090  O     0.90942   0.16666   0.88050   0.00000  Uiso   1.00
C1091  C     0.73397   0.16565   0.82175   0.00000  Uiso   1.00
C1092  C     0.93270   0.16768   0.84492   0.00000  Uiso   1.00
Zn1093 Zn    0.83333   0.16666   0.88437   0.00000  Uiso   1.00
Zn1094 Zn    0.83333   0.16667   0.78229   0.00000  Uiso   1.00
N1095  N     0.83332   0.16666   0.95240   0.00000  Uiso   1.00
N1096  N     0.83335   0.16668   0.71427   0.00000  Uiso   1.00
C1097  C     0.67958   0.15833   0.81726   0.00000  Uiso   1.00
C1098  C     0.98709   0.17501   0.84941   0.00000  Uiso   1.00
C1099  C     0.80065   0.02055   0.79906   0.00000  Uiso   1.00
C1100  C     0.86601   0.31278   0.86760   0.00000  Uiso   1.00
C1101  C     0.79931   0.31086   0.79993   0.00000  Uiso   1.00
C1102  C     0.86736   0.02247   0.86674   0.00000  Uiso   1.00
C1103  C     0.83227   0.29068   0.83410   0.00000  Uiso   1.00
C1104  C     0.83440   0.04265   0.83257   0.00000  Uiso   1.00
C1105  C     0.87371   0.18541   0.69496   0.00000  Uiso   1.00
C1106  C     0.79296   0.14793   0.97171   0.00000  Uiso   1.00
C1107  C     0.87350   0.18486   0.98052   0.00000  Uiso   1.00
C1108  C     0.79316   0.14848   0.68614   0.00000  Uiso   1.00
N1109  N     0.99059   0.12623   0.78542   0.00000  Uiso   1.00
O1110  O     0.67124   0.12418   0.74502   0.00000  Uiso   1.00
O1111  O     0.96375   0.09514   0.79922   0.00000  Uiso   1.00
N1112  N     0.67608   0.20710   0.88125   0.00000  Uiso   1.00
O1113  O     0.99542   0.20916   0.92164   0.00000  Uiso   1.00
O1114  O     0.70293   0.23820   0.86745   0.00000  Uiso   1.00
N1115  N     0.76489   0.04164   0.76622   0.00000  Uiso   1.00
O1116  O     0.78015   0.05374   0.72833   0.00000  Uiso   1.00
O1117  O     0.71516   0.03997   0.76950   0.00000  Uiso   1.00
N1118  N     0.90176   0.29169   0.90045   0.00000  Uiso   1.00
O1119  O     0.88648   0.27960   0.93834   0.00000  Uiso   1.00
O1120  O     0.95150   0.29337   0.89720   0.00000  Uiso   1.00
N1121  N     0.76384   0.28790   0.76661   0.00000  Uiso   1.00
O1122  O     0.72965   0.26163   0.77932   0.00000  Uiso   1.00
O1123  O     0.76428   0.29442   0.72346   0.00000  Uiso   1.00
N1124  N     0.90283   0.04543   0.90006   0.00000  Uiso   1.00
O1125  O     0.93703   0.07169   0.88734   0.00000  Uiso   1.00
O1126  O     0.90238   0.03892   0.94320   0.00000  Uiso   1.00
N1127  N     0.91644   0.20658   0.72230   0.00000  Uiso   1.00
O1128  O     0.96378   0.20153   0.71318   0.00000  Uiso   1.00
O1129  O     0.90747   0.23905   0.74606   0.00000  Uiso   1.00
N1130  N     0.75023   0.12675   0.94437   0.00000  Uiso   1.00
O1131  O     0.70289   0.13180   0.95348   0.00000  Uiso   1.00
O1132  O     0.75919   0.09428   0.92061   0.00000  Uiso   1.00
H1133  H     0.90533   0.19962   0.96592   0.00000  Uiso   1.00
H1134  H     0.76133   0.13371   0.70075   0.00000  Uiso   1.00
O1135  O     0.16666   0.43892   0.87154   0.00000  Uiso   1.00
O1136  O     0.16667   0.56108   0.79513   0.00000  Uiso   1.00
O1137  O     0.16666   0.43893   0.79510   0.00000  Uiso   1.00
O1138  O     0.16667   0.56107   0.87157   0.00000  Uiso   1.00
C1139  C     0.16671   0.42013   0.83310   0.00000  Uiso   1.00
C1140  C     0.16662   0.57987   0.83356   0.00000  Uiso   1.00
O1141  O     0.09058   0.50000   0.86261   0.00000  Uiso   1.00
O1142  O     0.24275   0.50000   0.80405   0.00000  Uiso   1.00
O1143  O     0.09058   0.50000   0.78617   0.00000  Uiso   1.00
O1144  O     0.24275   0.50000   0.88050   0.00000  Uiso   1.00
C1145  C     0.06730   0.49899   0.82175   0.00000  Uiso   1.00
C1146  C     0.26603   0.50101   0.84492   0.00000  Uiso   1.00
Zn1147 Zn    0.16667   0.49999   0.88437   0.00000  Uiso   1.00
Zn1148 Zn    0.16667   0.50001   0.78229   0.00000  Uiso   1.00
N1149  N     0.16665   0.49999   0.95240   0.00000  Uiso   1.00
N1150  N     0.16668   0.50001   0.71427   0.00000  Uiso   1.00
C1151  C     0.01291   0.49166   0.81726   0.00000  Uiso   1.00
C1152  C     0.32042   0.50834   0.84941   0.00000  Uiso   1.00
C1153  C     0.13399   0.35389   0.79906   0.00000  Uiso   1.00
C1154  C     0.19934   0.64611   0.86760   0.00000  Uiso   1.00
C1155  C     0.13264   0.64419   0.79993   0.00000  Uiso   1.00
C1156  C     0.20069   0.35581   0.86674   0.00000  Uiso   1.00
C1157  C     0.16560   0.62401   0.83410   0.00000  Uiso   1.00
C1158  C     0.16773   0.37599   0.83257   0.00000  Uiso   1.00
C1159  C     0.20704   0.51874   0.69496   0.00000  Uiso   1.00
C1160  C     0.12629   0.48126   0.97171   0.00000  Uiso   1.00
C1161  C     0.20684   0.51819   0.98052   0.00000  Uiso   1.00
C1162  C     0.12650   0.48181   0.68614   0.00000  Uiso   1.00
N1163  N     0.32392   0.45957   0.78542   0.00000  Uiso   1.00
O1164  O     0.00457   0.45751   0.74502   0.00000  Uiso   1.00
O1165  O     0.29708   0.42847   0.79922   0.00000  Uiso   1.00
N1166  N     0.00941   0.54043   0.88125   0.00000  Uiso   1.00
O1167  O     0.32876   0.54249   0.92164   0.00000  Uiso   1.00
O1168  O     0.03626   0.57153   0.86745   0.00000  Uiso   1.00
N1169  N     0.09822   0.37497   0.76622   0.00000  Uiso   1.00
O1170  O     0.11349   0.38707   0.72833   0.00000  Uiso   1.00
O1171  O     0.04849   0.37330   0.76950   0.00000  Uiso   1.00
N1172  N     0.23510   0.62503   0.90045   0.00000  Uiso   1.00
O1173  O     0.21982   0.61293   0.93834   0.00000  Uiso   1.00
O1174  O     0.28483   0.62670   0.89720   0.00000  Uiso   1.00
N1175  N     0.09717   0.62123   0.76661   0.00000  Uiso   1.00
O1176  O     0.06298   0.59497   0.77932   0.00000  Uiso   1.00
O1177  O     0.09761   0.62776   0.72346   0.00000  Uiso   1.00
N1178  N     0.23616   0.37877   0.90006   0.00000  Uiso   1.00
O1179  O     0.27036   0.40503   0.88734   0.00000  Uiso   1.00
O1180  O     0.23571   0.37225   0.94320   0.00000  Uiso   1.00
N1181  N     0.24977   0.53992   0.72230   0.00000  Uiso   1.00
O1182  O     0.29711   0.53487   0.71318   0.00000  Uiso   1.00
O1183  O     0.24081   0.57238   0.74606   0.00000  Uiso   1.00
N1184  N     0.08356   0.46009   0.94437   0.00000  Uiso   1.00
O1185  O     0.03622   0.46514   0.95348   0.00000  Uiso   1.00
O1186  O     0.09252   0.42762   0.92061   0.00000  Uiso   1.00
H1187  H     0.23867   0.53296   0.96592   0.00000  Uiso   1.00
H1188  H     0.09467   0.46705   0.70075   0.00000  Uiso   1.00
O1189  O     0.50000   0.43892   0.87154   0.00000  Uiso   1.00
O1190  O     0.50000   0.56108   0.79513   0.00000  Uiso   1.00
O1191  O     0.50000   0.43893   0.79510   0.00000  Uiso   1.00
O1192  O     0.50000   0.56107   0.87157   0.00000  Uiso   1.00
C1193  C     0.50004   0.42013   0.83310   0.00000  Uiso   1.00
C1194  C     0.49996   0.57987   0.83356   0.00000  Uiso   1.00
O1195  O     0.42392   0.50000   0.86261   0.00000  Uiso   1.00
O1196  O     0.57608   0.50000   0.80405   0.00000  Uiso   1.00
O1197  O     0.42392   0.50000   0.78617   0.00000  Uiso   1.00
O1198  O     0.57608   0.50000   0.88050   0.00000  Uiso   1.00
C1199  C     0.40063   0.49899   0.82175   0.00000  Uiso   1.00
C1200  C     0.59937   0.50101   0.84492   0.00000  Uiso   1.00
Zn1201 Zn    0.50000   0.49999   0.88437   0.00000  Uiso   1.00
Zn1202 Zn    0.50000   0.50001   0.78229   0.00000  Uiso   1.00
N1203  N     0.49999   0.49999   0.95240   0.00000  Uiso   1.00
N1204  N     0.50001   0.50001   0.71427   0.00000  Uiso   1.00
C1205  C     0.34625   0.49166   0.81726   0.00000  Uiso   1.00
C1206  C     0.65375   0.50834   0.84941   0.00000  Uiso   1.00
C1207  C     0.46732   0.35389   0.79906   0.00000  Uiso   1.00
C1208  C     0.53268   0.64611   0.86760   0.00000  Uiso   1.00
C1209  C     0.46597   0.64419   0.79993   0.00000  Uiso   1.00
C1210  C     0.53403   0.35581   0.86674   0.00000  Uiso   1.00
C1211  C     0.49893   0.62401   0.83410   0.00000  Uiso   1.00
C1212  C     0.50107   0.37599   0.83257   0.00000  Uiso   1.00
C1213  C     0.54038   0.51874   0.69496   0.00000  Uiso   1.00
C1214  C     0.45963   0.48126   0.97171   0.00000  Uiso   1.00
C1215  C     0.54017   0.51819   0.98052   0.00000  Uiso   1.00
C1216  C     0.45983   0.48181   0.68614   0.00000  Uiso   1.00
N1217  N     0.65725   0.45957   0.78542   0.00000  Uiso   1.00
O1218  O     0.33790   0.45751   0.74502   0.00000  Uiso   1.00
O1219  O     0.63041   0.42847   0.79922   0.00000  Uiso   1.00
N1220  N     0.34275   0.54043   0.88125   0.00000  Uiso   1.00
O1221  O     0.66209   0.54249   0.92164   0.00000  Uiso   1.00
O1222  O     0.36959   0.57153   0.86745   0.00000  Uiso   1.00
N1223  N     0.43156   0.37497   0.76622   0.00000  Uiso   1.00
O1224  O     0.44682   0.38707   0.72833   0.00000  Uiso   1.00
O1225  O     0.38182   0.37330   0.76950   0.00000  Uiso   1.00
N1226  N     0.56843   0.62503   0.90045   0.00000  Uiso   1.00
O1227  O     0.55315   0.61293   0.93834   0.00000  Uiso   1.00
O1228  O     0.61816   0.62670   0.89720   0.00000  Uiso   1.00
N1229  N     0.43050   0.62123   0.76661   0.00000  Uiso   1.00
O1230  O     0.39631   0.59497   0.77932   0.00000  Uiso   1.00
O1231  O     0.43094   0.62776   0.72346   0.00000  Uiso   1.00
N1232  N     0.56949   0.37877   0.90006   0.00000  Uiso   1.00
O1233  O     0.60369   0.40503   0.88734   0.00000  Uiso   1.00
O1234  O     0.56905   0.37225   0.94320   0.00000  Uiso   1.00
N1235  N     0.58311   0.53992   0.72230   0.00000  Uiso   1.00
O1236  O     0.63044   0.53487   0.71318   0.00000  Uiso   1.00
O1237  O     0.57414   0.57238   0.74606   0.00000  Uiso   1.00
N1238  N     0.41689   0.46009   0.94437   0.00000  Uiso   1.00
O1239  O     0.36956   0.46514   0.95348   0.00000  Uiso   1.00
O1240  O     0.42586   0.42762   0.92061   0.00000  Uiso   1.00
H1241  H     0.57200   0.53296   0.96592   0.00000  Uiso   1.00
H1242  H     0.42800   0.46705   0.70075   0.00000  Uiso   1.00
O1243  O     0.83333   0.43892   0.87154   0.00000  Uiso   1.00
O1244  O     0.83334   0.56108   0.79513   0.00000  Uiso   1.00
O1245  O     0.83333   0.43893   0.79510   0.00000  Uiso   1.00
O1246  O     0.83334   0.56107   0.87157   0.00000  Uiso   1.00
C1247  C     0.83338   0.42013   0.83310   0.00000  Uiso   1.00
C1248  C     0.83329   0.57987   0.83356   0.00000  Uiso   1.00
O1249  O     0.75725   0.50000   0.86261   0.00000  Uiso   1.00
O1250  O     0.90942   0.50000   0.80405   0.00000  Uiso   1.00
O1251  O     0.75725   0.50000   0.78617   0.00000  Uiso   1.00
O1252  O     0.90942   0.50000   0.88050   0.00000  Uiso   1.00
C1253  C     0.73397   0.49899   0.82175   0.00000  Uiso   1.00
C1254  C     0.93270   0.50101   0.84492   0.00000  Uiso   1.00
Zn1255 Zn    0.83333   0.49999   0.88437   0.00000  Uiso   1.00
Zn1256 Zn    0.83333   0.50001   0.78229   0.00000  Uiso   1.00
N1257  N     0.83332   0.49999   0.95240   0.00000  Uiso   1.00
N1258  N     0.83335   0.50001   0.71427   0.00000  Uiso   1.00
C1259  C     0.67958   0.49166   0.81726   0.00000  Uiso   1.00
C1260  C     0.98709   0.50834   0.84941   0.00000  Uiso   1.00
C1261  C     0.80065   0.35389   0.79906   0.00000  Uiso   1.00
C1262  C     0.86601   0.64611   0.86760   0.00000  Uiso   1.00
C1263  C     0.79931   0.64419   0.79993   0.00000  Uiso   1.00
C1264  C     0.86736   0.35581   0.86674   0.00000  Uiso   1.00
C1265  C     0.83227   0.62401   0.83410   0.00000  Uiso   1.00
C1266  C     0.83440   0.37599   0.83257   0.00000  Uiso   1.00
C1267  C     0.87371   0.51874   0.69496   0.00000  Uiso   1.00
C1268  C     0.79296   0.48126   0.97171   0.00000  Uiso   1.00
C1269  C     0.87350   0.51819   0.98052   0.00000  Uiso   1.00
C1270  C     0.79316   0.48181   0.68614   0.00000  Uiso   1.00
N1271  N     0.99059   0.45957   0.78542   0.00000  Uiso   1.00
O1272  O     0.67124   0.45751   0.74502   0.00000  Uiso   1.00
O1273  O     0.96375   0.42847   0.79922   0.00000  Uiso   1.00
N1274  N     0.67608   0.54043   0.88125   0.00000  Uiso   1.00
O1275  O     0.99542   0.54249   0.92164   0.00000  Uiso   1.00
O1276  O     0.70293   0.57153   0.86745   0.00000  Uiso   1.00
N1277  N     0.76489   0.37497   0.76622   0.00000  Uiso   1.00
O1278  O     0.78015   0.38707   0.72833   0.00000  Uiso   1.00
O1279  O     0.71516   0.37330   0.76950   0.00000  Uiso   1.00
N1280  N     0.90176   0.62503   0.90045   0.00000  Uiso   1.00
O1281  O     0.88648   0.61293   0.93834   0.00000  Uiso   1.00
O1282  O     0.95150   0.62670   0.89720   0.00000  Uiso   1.00
N1283  N     0.76384   0.62123   0.76661   0.00000  Uiso   1.00
O1284  O     0.72965   0.59497   0.77932   0.00000  Uiso   1.00
O1285  O     0.76428   0.62776   0.72346   0.00000  Uiso   1.00
N1286  N     0.90283   0.37877   0.90006   0.00000  Uiso   1.00
O1287  O     0.93703   0.40503   0.88734   0.00000  Uiso   1.00
O1288  O     0.90238   0.37225   0.94320   0.00000  Uiso   1.00
N1289  N     0.91644   0.53992   0.72230   0.00000  Uiso   1.00
O1290  O     0.96378   0.53487   0.71318   0.00000  Uiso   1.00
O1291  O     0.90747   0.57238   0.74606   0.00000  Uiso   1.00
N1292  N     0.75023   0.46009   0.94437   0.00000  Uiso   1.00
O1293  O     0.70289   0.46514   0.95348   0.00000  Uiso   1.00
O1294  O     0.75919   0.42762   0.92061   0.00000  Uiso   1.00
H1295  H     0.90533   0.53296   0.96592   0.00000  Uiso   1.00
H1296  H     0.76133   0.46705   0.70075   0.00000  Uiso   1.00
O1297  O     0.16666   0.77225   0.87154   0.00000  Uiso   1.00
O1298  O     0.16667   0.89442   0.79513   0.00000  Uiso   1.00
O1299  O     0.16666   0.77226   0.79510   0.00000  Uiso   1.00
O1300  O     0.16667   0.89441   0.87157   0.00000  Uiso   1.00
C1301  C     0.16671   0.75347   0.83310   0.00000  Uiso   1.00
C1302  C     0.16662   0.91320   0.83356   0.00000  Uiso   1.00
O1303  O     0.09058   0.83333   0.86261   0.00000  Uiso   1.00
O1304  O     0.24275   0.83334   0.80405   0.00000  Uiso   1.00
O1305  O     0.09058   0.83334   0.78617   0.00000  Uiso   1.00
O1306  O     0.24275   0.83333   0.88050   0.00000  Uiso   1.00
C1307  C     0.06730   0.83232   0.82175   0.00000  Uiso   1.00
C1308  C     0.26603   0.83435   0.84492   0.00000  Uiso   1.00
Zn1309 Zn    0.16667   0.83333   0.88437   0.00000  Uiso   1.00
Zn1310 Zn    0.16667   0.83334   0.78229   0.00000  Uiso   1.00
N1311  N     0.16665   0.83332   0.95240   0.00000  Uiso   1.00
N1312  N     0.16668   0.83334   0.71427   0.00000  Uiso   1.00
C1313  C     0.01291   0.82500   0.81726   0.00000  Uiso   1.00
C1314  C     0.32042   0.84167   0.84941   0.00000  Uiso   1.00
C1315  C     0.13399   0.68722   0.79906   0.00000  Uiso   1.00
C1316  C     0.19934   0.97945   0.86760   0.00000  Uiso   1.00
C1317  C     0.13264   0.97753   0.79993   0.00000  Uiso   1.00
C1318  C     0.20069   0.68914   0.86674   0.00000  Uiso   1.00
C1319  C     0.16560   0.95735   0.83410   0.00000  Uiso   1.00
C1320  C     0.16773   0.70932   0.83257   0.00000  Uiso   1.00
C1321  C     0.20704   0.85207   0.69496   0.00000  Uiso   1.00
C1322  C     0.12629   0.81459   0.97171   0.00000  Uiso   1.00
C1323  C     0.20684   0.85152   0.98052   0.00000  Uiso   1.00
C1324  C     0.12650   0.81514   0.68614   0.00000  Uiso   1.00
N1325  N     0.32392   0.79290   0.78542   0.00000  Uiso   1.00
O1326  O     0.00457   0.79084   0.74502   0.00000  Uiso   1.00
O1327  O     0.29708   0.76180   0.79922   0.00000  Uiso   1.00
N1328  N     0.00941   0.87377   0.88125   0.00000  Uiso   1.00
O1329  O     0.32876   0.87583   0.92164   0.00000  Uiso   1.00
O1330  O     0.03626   0.90486   0.86745   0.00000  Uiso   1.00
N1331  N     0.09822   0.70831   0.76622   0.00000  Uiso   1.00
O1332  O     0.11349   0.72040   0.72833   0.00000  Uiso   1.00
O1333  O     0.04849   0.70664   0.76950   0.00000  Uiso   1.00
N1334  N     0.23510   0.95836   0.90045   0.00000  Uiso   1.00
O1335  O     0.21982   0.94626   0.93834   0.00000  Uiso   1.00
O1336  O     0.28483   0.96003   0.89720   0.00000  Uiso   1.00
N1337  N     0.09717   0.95457   0.76661   0.00000  Uiso   1.00
O1338  O     0.06298   0.92830   0.77932   0.00000  Uiso   1.00
O1339  O     0.09761   0.96109   0.72346   0.00000  Uiso   1.00
N1340  N     0.23616   0.71210   0.90006   0.00000  Uiso   1.00
O1341  O     0.27036   0.73836   0.88734   0.00000  Uiso   1.00
O1342  O     0.23571   0.70558   0.94320   0.00000  Uiso   1.00
N1343  N     0.24977   0.87325   0.72230   0.00000  Uiso   1.00
O1344  O     0.29711   0.86820   0.71318   0.00000  Uiso   1.00
O1345  O     0.24081   0.90572   0.74606   0.00000  Uiso   1.00
N1346  N     0.08356   0.79342   0.94437   0.00000  Uiso   1.00
O1347  O     0.03622   0.79847   0.95348   0.00000  Uiso   1.00
O1348  O     0.09252   0.76095   0.92061   0.00000  Uiso   1.00
H1349  H     0.23867   0.86629   0.96592   0.00000  Uiso   1.00
H1350  H     0.09467   0.80038   0.70075   0.00000  Uiso   1.00
O1351  O     0.50000   0.77225   0.87154   0.00000  Uiso   1.00
O1352  O     0.50000   0.89442   0.79513   0.00000  Uiso   1.00
O1353  O     0.50000   0.77226   0.79510   0.00000  Uiso   1.00
O1354  O     0.50000   0.89441   0.87157   0.00000  Uiso   1.00
C1355  C     0.50004   0.75347   0.83310   0.00000  Uiso   1.00
C1356  C     0.49996   0.91320   0.83356   0.00000  Uiso   1.00
O1357  O     0.42392   0.83333   0.86261   0.00000  Uiso   1.00
O1358  O     0.57608   0.83334   0.80405   0.00000  Uiso   1.00
O1359  O     0.42392   0.83334   0.78617   0.00000  Uiso   1.00
O1360  O     0.57608   0.83333   0.88050   0.00000  Uiso   1.00
C1361  C     0.40063   0.83232   0.82175   0.00000  Uiso   1.00
C1362  C     0.59937   0.83435   0.84492   0.00000  Uiso   1.00
Zn1363 Zn    0.50000   0.83333   0.88437   0.00000  Uiso   1.00
Zn1364 Zn    0.50000   0.83334   0.78229   0.00000  Uiso   1.00
N1365  N     0.49999   0.83332   0.95240   0.00000  Uiso   1.00
N1366  N     0.50001   0.83334   0.71427   0.00000  Uiso   1.00
C1367  C     0.34625   0.82500   0.81726   0.00000  Uiso   1.00
C1368  C     0.65375   0.84167   0.84941   0.00000  Uiso   1.00
C1369  C     0.46732   0.68722   0.79906   0.00000  Uiso   1.00
C1370  C     0.53268   0.97945   0.86760   0.00000  Uiso   1.00
C1371  C     0.46597   0.97753   0.79993   0.00000  Uiso   1.00
C1372  C     0.53403   0.68914   0.86674   0.00000  Uiso   1.00
C1373  C     0.49893   0.95735   0.83410   0.00000  Uiso   1.00
C1374  C     0.50107   0.70932   0.83257   0.00000  Uiso   1.00
C1375  C     0.54038   0.85207   0.69496   0.00000  Uiso   1.00
C1376  C     0.45963   0.81459   0.97171   0.00000  Uiso   1.00
C1377  C     0.54017   0.85152   0.98052   0.00000  Uiso   1.00
C1378  C     0.45983   0.81514   0.68614   0.00000  Uiso   1.00
N1379  N     0.65725   0.79290   0.78542   0.00000  Uiso   1.00
O1380  O     0.33790   0.79084   0.74502   0.00000  Uiso   1.00
O1381  O     0.63041   0.76180   0.79922   0.00000  Uiso   1.00
N1382  N     0.34275   0.87377   0.88125   0.00000  Uiso   1.00
O1383  O     0.66209   0.87583   0.92164   0.00000  Uiso   1.00
O1384  O     0.36959   0.90486   0.86745   0.00000  Uiso   1.00
N1385  N     0.43156   0.70831   0.76622   0.00000  Uiso   1.00
O1386  O     0.44682   0.72040   0.72833   0.00000  Uiso   1.00
O1387  O     0.38182   0.70664   0.76950   0.00000  Uiso   1.00
N1388  N     0.56843   0.95836   0.90045   0.00000  Uiso   1.00
O1389  O     0.55315   0.94626   0.93834   0.00000  Uiso   1.00
O1390  O     0.61816   0.96003   0.89720   0.00000  Uiso   1.00
N1391  N     0.43050   0.95457   0.76661   0.00000  Uiso   1.00
O1392  O     0.39631   0.92830   0.77932   0.00000  Uiso   1.00
O1393  O     0.43094   0.96109   0.72346   0.00000  Uiso   1.00
N1394  N     0.56949   0.71210   0.90006   0.00000  Uiso   1.00
O1395  O     0.60369   0.73836   0.88734   0.00000  Uiso   1.00
O1396  O     0.56905   0.70558   0.94320   0.00000  Uiso   1.00
N1397  N     0.58311   0.87325   0.72230   0.00000  Uiso   1.00
O1398  O     0.63044   0.86820   0.71318   0.00000  Uiso   1.00
O1399  O     0.57414   0.90572   0.74606   0.00000  Uiso   1.00
N1400  N     0.41689   0.79342   0.94437   0.00000  Uiso   1.00
O1401  O     0.36956   0.79847   0.95348   0.00000  Uiso   1.00
O1402  O     0.42586   0.76095   0.92061   0.00000  Uiso   1.00
H1403  H     0.57200   0.86629   0.96592   0.00000  Uiso   1.00
H1404  H     0.42800   0.80038   0.70075   0.00000  Uiso   1.00
O1405  O     0.83333   0.77225   0.87154   0.00000  Uiso   1.00
O1406  O     0.83334   0.89442   0.79513   0.00000  Uiso   1.00
O1407  O     0.83333   0.77226   0.79510   0.00000  Uiso   1.00
O1408  O     0.83334   0.89441   0.87157   0.00000  Uiso   1.00
C1409  C     0.83338   0.75347   0.83310   0.00000  Uiso   1.00
C1410  C     0.83329   0.91320   0.83356   0.00000  Uiso   1.00
O1411  O     0.75725   0.83333   0.86261   0.00000  Uiso   1.00
O1412  O     0.90942   0.83334   0.80405   0.00000  Uiso   1.00
O1413  O     0.75725   0.83334   0.78617   0.00000  Uiso   1.00
O1414  O     0.90942   0.83333   0.88050   0.00000  Uiso   1.00
C1415  C     0.73397   0.83232   0.82175   0.00000  Uiso   1.00
C1416  C     0.93270   0.83435   0.84492   0.00000  Uiso   1.00
Zn1417 Zn    0.83333   0.83333   0.88437   0.00000  Uiso   1.00
Zn1418 Zn    0.83333   0.83334   0.78229   0.00000  Uiso   1.00
N1419  N     0.83332   0.83332   0.95240   0.00000  Uiso   1.00
N1420  N     0.83335   0.83334   0.71427   0.00000  Uiso   1.00
C1421  C     0.67958   0.82500   0.81726   0.00000  Uiso   1.00
C1422  C     0.98709   0.84167   0.84941   0.00000  Uiso   1.00
C1423  C     0.80065   0.68722   0.79906   0.00000  Uiso   1.00
C1424  C     0.86601   0.97945   0.86760   0.00000  Uiso   1.00
C1425  C     0.79931   0.97753   0.79993   0.00000  Uiso   1.00
C1426  C     0.86736   0.68914   0.86674   0.00000  Uiso   1.00
C1427  C     0.83227   0.95735   0.83410   0.00000  Uiso   1.00
C1428  C     0.83440   0.70932   0.83257   0.00000  Uiso   1.00
C1429  C     0.87371   0.85207   0.69496   0.00000  Uiso   1.00
C1430  C     0.79296   0.81459   0.97171   0.00000  Uiso   1.00
C1431  C     0.87350   0.85152   0.98052   0.00000  Uiso   1.00
C1432  C     0.79316   0.81514   0.68614   0.00000  Uiso   1.00
N1433  N     0.99059   0.79290   0.78542   0.00000  Uiso   1.00
O1434  O     0.67124   0.79084   0.74502   0.00000  Uiso   1.00
O1435  O     0.96375   0.76180   0.79922   0.00000  Uiso   1.00
N1436  N     0.67608   0.87377   0.88125   0.00000  Uiso   1.00
O1437  O     0.99542   0.87583   0.92164   0.00000  Uiso   1.00
O1438  O     0.70293   0.90486   0.86745   0.00000  Uiso   1.00
N1439  N     0.76489   0.70831   0.76622   0.00000  Uiso   1.00
O1440  O     0.78015   0.72040   0.72833   0.00000  Uiso   1.00
O1441  O     0.71516   0.70664   0.76950   0.00000  Uiso   1.00
N1442  N     0.90176   0.95836   0.90045   0.00000  Uiso   1.00
O1443  O     0.88648   0.94626   0.93834   0.00000  Uiso   1.00
O1444  O     0.95150   0.96003   0.89720   0.00000  Uiso   1.00
N1445  N     0.76384   0.95457   0.76661   0.00000  Uiso   1.00
O1446  O     0.72965   0.92830   0.77932   0.00000  Uiso   1.00
O1447  O     0.76428   0.96109   0.72346   0.00000  Uiso   1.00
N1448  N     0.90283   0.71210   0.90006   0.00000  Uiso   1.00
O1449  O     0.93703   0.73836   0.88734   0.00000  Uiso   1.00
O1450  O     0.90238   0.70558   0.94320   0.00000  Uiso   1.00
N1451  N     0.91644   0.87325   0.72230   0.00000  Uiso   1.00
O1452  O     0.96378   0.86820   0.71318   0.00000  Uiso   1.00
O1453  O     0.90747   0.90572   0.74606   0.00000  Uiso   1.00
N1454  N     0.75023   0.79342   0.94437   0.00000  Uiso   1.00
O1455  O     0.70289   0.79847   0.95348   0.00000  Uiso   1.00
O1456  O     0.75919   0.76095   0.92061   0.00000  Uiso   1.00
H1457  H     0.90533   0.86629   0.96592   0.00000  Uiso   1.00
H1458  H     0.76133   0.80038   0.70075   0.00000  Uiso   1.00
loop_
_geom_bond_atom_site_label_1
_geom_bond_atom_site_label_2
_geom_bond_distance
_geom_bond_site_symmetry_2
_ccdc_geom_bond_type
O1     C5      1.288   .     A
O1     Zn13    1.996   .     S
O2     C6      1.288   .     A
O2     Zn14    1.996   .     S
O3     Zn14    2.001   .     S
O3     C5      1.283   .     A
O4     C6      1.283   .     A
O4     Zn13    2.001   .     S
C5     C24     1.419   .     S
C6     C23     1.419   .     S
O7     C11     1.279   .     A
O7     Zn13    1.982   .     S
O8     C12     1.279   .     A
O8     Zn14    1.982   .     S
O9     Zn14    1.983   .     S
O9     C11     1.285   .     A
O10    C12     1.285   .     A
O10    Zn13    1.983   .     S
C11    C17     1.406   .     S
C12    C18     1.406   .     S
Zn13   N15     2.020   .     S
Zn14   N16     2.020   .     S
N15    C27     1.357   .     A
N15    C26     1.383   .     A
N16    C28     1.357   .     A
N16    C25     1.383   .     A
C17    C126    1.352   1_455 S
C17    N137    1.448   1_455 S
C18    C71     1.352   .     S
C18    N86     1.448   .     S
C19    N35     1.434   .     S
C19    C24     1.406   .     A
C19    C345    1.382   1_545 S
C20    N38     1.434   .     S
C20    C23     1.406   .     A
C20    C184    1.382   .     S
C21    N41     1.439   .     S
C21    C23     1.405   .     A
C21    C181    1.382   .     S
C22    C24     1.405   .     A
C22    N44     1.439   .     S
C22    C344    1.382   1_545 S
C25    N47     1.432   .     S
C25    C999    1.418   1_554 S
C26    N50     1.432   .     S
C26    C514    1.418   .     S
C27    H53     1.081   .     S
C27    C511    1.418   .     S
C28    H54     1.081   .     S
C28    C998    1.418   1_554 S
N29    O31     1.302   .     A
N29    C71     1.448   .     S
N29    O84     1.301   .     S
O30    N137    1.301   1_455 S
N32    O34     1.302   .     A
N32    C126    1.448   1_455 S
N32    O141    1.301   1_455 S
O33    N86     1.301   .     S
N35    O37     1.300   .     A
N35    O36     1.301   .     A
N38    O40     1.300   .     A
N38    O39     1.301   .     A
N41    O42     1.301   .     A
N41    O43     1.301   .     A
N44    O45     1.301   .     A
N44    O46     1.301   .     A
N47    O48     1.301   .     A
N47    O49     1.298   .     A
N50    O51     1.301   .     A
N50    O52     1.298   .     A
O55    C59     1.288   .     A
O55    Zn67    1.996   .     S
O56    C60     1.288   .     A
O56    Zn68    1.996   .     S
O57    Zn68    2.001   .     S
O57    C59     1.283   .     A
O58    C60     1.283   .     A
O58    Zn67    2.001   .     S
C59    C78     1.419   .     S
C60    C77     1.419   .     S
O61    C65     1.279   .     A
O61    Zn67    1.982   .     S
O62    C66     1.279   .     A
O62    Zn68    1.982   .     S
O63    Zn68    1.983   .     S
O63    C65     1.285   .     A
O64    C66     1.285   .     A
O64    Zn67    1.983   .     S
C65    C71     1.406   .     S
C66    C72     1.406   .     S
Zn67   N69     2.020   .     S
Zn68   N70     2.020   .     S
N69    C81     1.357   .     A
N69    C80     1.383   .     A
N70    C82     1.357   .     A
N70    C79     1.383   .     A
C72    C125    1.352   .     S
C72    N140    1.448   .     S
C73    N89     1.434   .     S
C73    C78     1.406   .     A
C73    C399    1.382   1_545 S
C74    N92     1.434   .     S
C74    C77     1.406   .     A
C74    C238    1.382   .     S
C75    N95     1.439   .     S
C75    C77     1.405   .     A
C75    C235    1.382   .     S
C76    C78     1.405   .     A
C76    N98     1.439   .     S
C76    C398    1.382   1_545 S
C79    N101    1.432   .     S
C79    C1053   1.418   1_554 S
C80    N104    1.432   .     S
C80    C568    1.418   .     S
C81    H107    1.081   .     S
C81    C565    1.418   .     S
C82    H108    1.081   .     S
C82    C1052   1.418   1_554 S
N83    O85     1.302   .     A
N83    C125    1.448   .     S
N83    O138    1.301   .     S
N86    O88     1.302   .     A
O87    N140    1.301   .     S
N89    O91     1.300   .     A
N89    O90     1.301   .     A
N92    O94     1.300   .     A
N92    O93     1.301   .     A
N95    O96     1.301   .     A
N95    O97     1.301   .     A
N98    O99     1.301   .     A
N98    O100    1.301   .     A
N101   O102    1.301   .     A
N101   O103    1.298   .     A
N104   O105    1.301   .     A
N104   O106    1.298   .     A
O109   C113    1.288   .     A
O109   Zn121   1.996   .     S
O110   C114    1.288   .     A
O110   Zn122   1.996   .     S
O111   Zn122   2.001   .     S
O111   C113    1.283   .     A
O112   C114    1.283   .     A
O112   Zn121   2.001   .     S
C113   C132    1.419   .     S
C114   C131    1.419   .     S
O115   C119    1.279   .     A
O115   Zn121   1.982   .     S
O116   C120    1.279   .     A
O116   Zn122   1.982   .     S
O117   Zn122   1.983   .     S
O117   C119    1.285   .     A
O118   C120    1.285   .     A
O118   Zn121   1.983   .     S
C119   C125    1.406   .     S
C120   C126    1.406   .     S
Zn121  N123    2.020   .     S
Zn122  N124    2.020   .     S
N123   C135    1.357   .     A
N123   C134    1.383   .     A
N124   C136    1.357   .     A
N124   C133    1.383   .     A
C126   C17     1.352   1_655 S
C126   N32     1.448   1_655 S
C127   N143    1.434   .     S
C127   C132    1.406   .     A
C127   C453    1.382   1_545 S
C128   N146    1.434   .     S
C128   C131    1.406   .     A
C128   C292    1.382   .     S
C129   N149    1.439   .     S
C129   C131    1.405   .     A
C129   C289    1.382   .     S
C130   C132    1.405   .     A
C130   N152    1.439   .     S
C130   C452    1.382   1_545 S
C133   N155    1.432   .     S
C133   C1107   1.418   1_554 S
C134   N158    1.432   .     S
C134   C622    1.418   .     S
C135   H161    1.081   .     S
C135   C619    1.418   .     S
C136   H162    1.081   .     S
C136   C1106   1.418   1_554 S
N137   O139    1.302   .     A
N137   C17     1.448   1_655 S
N137   O30     1.301   1_655 S
N140   O142    1.302   .     A
O141   N32     1.301   1_655 S
N143   O145    1.300   .     A
N143   O144    1.301   .     A
N146   O148    1.300   .     A
N146   O147    1.301   .     A
N149   O150    1.301   .     A
N149   O151    1.301   .     A
N152   O153    1.301   .     A
N152   O154    1.301   .     A
N155   O156    1.301   .     A
N155   O157    1.298   .     A
N158   O159    1.301   .     A
N158   O160    1.298   .     A
O163   C167    1.288   .     A
O163   Zn175   1.996   .     S
O164   C168    1.288   .     A
O164   Zn176   1.996   .     S
O165   Zn176   2.001   .     S
O165   C167    1.283   .     A
O166   C168    1.283   .     A
O166   Zn175   2.001   .     S
C167   C186    1.419   .     S
C168   C185    1.419   .     S
O169   C173    1.279   .     A
O169   Zn175   1.982   .     S
O170   C174    1.279   .     A
O170   Zn176   1.982   .     S
O171   Zn176   1.983   .     S
O171   C173    1.285   .     A
O172   C174    1.285   .     A
O172   Zn175   1.983   .     S
C173   C179    1.406   .     S
C174   C180    1.406   .     S
Zn175  N177    2.020   .     S
Zn176  N178    2.020   .     S
N177   C189    1.357   .     A
N177   C188    1.383   .     A
N178   C190    1.357   .     A
N178   C187    1.383   .     A
C179   C288    1.352   1_455 S
C179   N299    1.448   1_455 S
C180   C233    1.352   .     S
C180   N248    1.448   .     S
C181   N197    1.434   .     S
C181   C186    1.406   .     A
C182   N200    1.434   .     S
C182   C185    1.406   .     A
C182   C346    1.382   .     S
C183   N203    1.439   .     S
C183   C185    1.405   .     A
C183   C343    1.382   .     S
C184   C186    1.405   .     A
C184   N206    1.439   .     S
C187   N209    1.432   .     S
C187   C1161   1.418   1_554 S
C188   N212    1.432   .     S
C188   C676    1.418   .     S
C189   H215    1.081   .     S
C189   C673    1.418   .     S
C190   H216    1.081   .     S
C190   C1160   1.418   1_554 S
N191   O193    1.302   .     A
N191   C233    1.448   .     S
N191   O246    1.301   .     S
O192   N299    1.301   1_455 S
N194   O196    1.302   .     A
N194   C288    1.448   1_455 S
N194   O303    1.301   1_455 S
O195   N248    1.301   .     S
N197   O199    1.300   .     A
N197   O198    1.301   .     A
N200   O202    1.300   .     A
N200   O201    1.301   .     A
N203   O204    1.301   .     A
N203   O205    1.301   .     A
N206   O207    1.301   .     A
N206   O208    1.301   .     A
N209   O210    1.301   .     A
N209   O211    1.298   .     A
N212   O213    1.301   .     A
N212   O214    1.298   .     A
O217   C221    1.288   .     A
O217   Zn229   1.996   .     S
O218   C222    1.288   .     A
O218   Zn230   1.996   .     S
O219   Zn230   2.001   .     S
O219   C221    1.283   .     A
O220   C222    1.283   .     A
O220   Zn229   2.001   .     S
C221   C240    1.419   .     S
C222   C239    1.419   .     S
O223   C227    1.279   .     A
O223   Zn229   1.982   .     S
O224   C228    1.279   .     A
O224   Zn230   1.982   .     S
O225   Zn230   1.983   .     S
O225   C227    1.285   .     A
O226   C228    1.285   .     A
O226   Zn229   1.983   .     S
C227   C233    1.406   .     S
C228   C234    1.406   .     S
Zn229  N231    2.020   .     S
Zn230  N232    2.020   .     S
N231   C243    1.357   .     A
N231   C242    1.383   .     A
N232   C244    1.357   .     A
N232   C241    1.383   .     A
C234   C287    1.352   .     S
C234   N302    1.448   .     S
C235   N251    1.434   .     S
C235   C240    1.406   .     A
C236   N254    1.434   .     S
C236   C239    1.406   .     A
C236   C400    1.382   .     S
C237   N257    1.439   .     S
C237   C239    1.405   .     A
C237   C397    1.382   .     S
C238   C240    1.405   .     A
C238   N260    1.439   .     S
C241   N263    1.432   .     S
C241   C1215   1.418   1_554 S
C242   N266    1.432   .     S
C242   C730    1.418   .     S
C243   H269    1.081   .     S
C243   C727    1.418   .     S
C244   H270    1.081   .     S
C244   C1214   1.418   1_554 S
N245   O247    1.302   .     A
N245   C287    1.448   .     S
N245   O300    1.301   .     S
N248   O250    1.302   .     A
O249   N302    1.301   .     S
N251   O253    1.300   .     A
N251   O252    1.301   .     A
N254   O256    1.300   .     A
N254   O255    1.301   .     A
N257   O258    1.301   .     A
N257   O259    1.301   .     A
N260   O261    1.301   .     A
N260   O262    1.301   .     A
N263   O264    1.301   .     A
N263   O265    1.298   .     A
N266   O267    1.301   .     A
N266   O268    1.298   .     A
O271   C275    1.288   .     A
O271   Zn283   1.996   .     S
O272   C276    1.288   .     A
O272   Zn284   1.996   .     S
O273   Zn284   2.001   .     S
O273   C275    1.283   .     A
O274   C276    1.283   .     A
O274   Zn283   2.001   .     S
C275   C294    1.419   .     S
C276   C293    1.419   .     S
O277   C281    1.279   .     A
O277   Zn283   1.982   .     S
O278   C282    1.279   .     A
O278   Zn284   1.982   .     S
O279   Zn284   1.983   .     S
O279   C281    1.285   .     A
O280   C282    1.285   .     A
O280   Zn283   1.983   .     S
C281   C287    1.406   .     S
C282   C288    1.406   .     S
Zn283  N285    2.020   .     S
Zn284  N286    2.020   .     S
N285   C297    1.357   .     A
N285   C296    1.383   .     A
N286   C298    1.357   .     A
N286   C295    1.383   .     A
C288   C179    1.352   1_655 S
C288   N194    1.448   1_655 S
C289   N305    1.434   .     S
C289   C294    1.406   .     A
C290   N308    1.434   .     S
C290   C293    1.406   .     A
C290   C454    1.382   .     S
C291   N311    1.439   .     S
C291   C293    1.405   .     A
C291   C451    1.382   .     S
C292   C294    1.405   .     A
C292   N314    1.439   .     S
C295   N317    1.432   .     S
C295   C1269   1.418   1_554 S
C296   N320    1.432   .     S
C296   C784    1.418   .     S
C297   H323    1.081   .     S
C297   C781    1.418   .     S
C298   H324    1.081   .     S
C298   C1268   1.418   1_554 S
N299   O301    1.302   .     A
N299   C179    1.448   1_655 S
N299   O192    1.301   1_655 S
N302   O304    1.302   .     A
O303   N194    1.301   1_655 S
N305   O307    1.300   .     A
N305   O306    1.301   .     A
N308   O310    1.300   .     A
N308   O309    1.301   .     A
N311   O312    1.301   .     A
N311   O313    1.301   .     A
N314   O315    1.301   .     A
N314   O316    1.301   .     A
N317   O318    1.301   .     A
N317   O319    1.298   .     A
N320   O321    1.301   .     A
N320   O322    1.298   .     A
O325   C329    1.288   .     A
O325   Zn337   1.996   .     S
O326   C330    1.288   .     A
O326   Zn338   1.996   .     S
O327   Zn338   2.001   .     S
O327   C329    1.283   .     A
O328   C330    1.283   .     A
O328   Zn337   2.001   .     S
C329   C348    1.419   .     S
C330   C347    1.419   .     S
O331   C335    1.279   .     A
O331   Zn337   1.982   .     S
O332   C336    1.279   .     A
O332   Zn338   1.982   .     S
O333   Zn338   1.983   .     S
O333   C335    1.285   .     A
O334   C336    1.285   .     A
O334   Zn337   1.983   .     S
C335   C341    1.406   .     S
C336   C342    1.406   .     S
Zn337  N339    2.020   .     S
Zn338  N340    2.020   .     S
N339   C351    1.357   .     A
N339   C350    1.383   .     A
N340   C352    1.357   .     A
N340   C349    1.383   .     A
C341   C450    1.352   1_455 S
C341   N461    1.448   1_455 S
C342   C395    1.352   .     S
C342   N410    1.448   .     S
C343   N359    1.434   .     S
C343   C348    1.406   .     A
C344   N362    1.434   .     S
C344   C347    1.406   .     A
C344   C22     1.382   1_565 S
C345   N365    1.439   .     S
C345   C347    1.405   .     A
C345   C19     1.382   1_565 S
C346   C348    1.405   .     A
C346   N368    1.439   .     S
C349   N371    1.432   .     S
C349   C1323   1.418   1_554 S
C350   N374    1.432   .     S
C350   C838    1.418   .     S
C351   H377    1.081   .     S
C351   C835    1.418   .     S
C352   H378    1.081   .     S
C352   C1322   1.418   1_554 S
N353   O355    1.302   .     A
N353   C395    1.448   .     S
N353   O408    1.301   .     S
O354   N461    1.301   1_455 S
N356   O358    1.302   .     A
N356   C450    1.448   1_455 S
N356   O465    1.301   1_455 S
O357   N410    1.301   .     S
N359   O361    1.300   .     A
N359   O360    1.301   .     A
N362   O364    1.300   .     A
N362   O363    1.301   .     A
N365   O366    1.301   .     A
N365   O367    1.301   .     A
N368   O369    1.301   .     A
N368   O370    1.301   .     A
N371   O372    1.301   .     A
N371   O373    1.298   .     A
N374   O375    1.301   .     A
N374   O376    1.298   .     A
O379   C383    1.288   .     A
O379   Zn391   1.996   .     S
O380   C384    1.288   .     A
O380   Zn392   1.996   .     S
O381   Zn392   2.001   .     S
O381   C383    1.283   .     A
O382   C384    1.283   .     A
O382   Zn391   2.001   .     S
C383   C402    1.419   .     S
C384   C401    1.419   .     S
O385   C389    1.279   .     A
O385   Zn391   1.982   .     S
O386   C390    1.279   .     A
O386   Zn392   1.982   .     S
O387   Zn392   1.983   .     S
O387   C389    1.285   .     A
O388   C390    1.285   .     A
O388   Zn391   1.983   .     S
C389   C395    1.406   .     S
C390   C396    1.406   .     S
Zn391  N393    2.020   .     S
Zn392  N394    2.020   .     S
N393   C405    1.357   .     A
N393   C404    1.383   .     A
N394   C406    1.357   .     A
N394   C403    1.383   .     A
C396   C449    1.352   .     S
C396   N464    1.448   .     S
C397   N413    1.434   .     S
C397   C402    1.406   .     A
C398   N416    1.434   .     S
C398   C401    1.406   .     A
C398   C76     1.382   1_565 S
C399   N419    1.439   .     S
C399   C401    1.405   .     A
C399   C73     1.382   1_565 S
C400   C402    1.405   .     A
C400   N422    1.439   .     S
C403   N425    1.432   .     S
C403   C1377   1.418   1_554 S
C404   N428    1.432   .     S
C404   C892    1.418   .     S
C405   H431    1.081   .     S
C405   C889    1.418   .     S
C406   H432    1.081   .     S
C406   C1376   1.418   1_554 S
N407   O409    1.302   .     A
N407   C449    1.448   .     S
N407   O462    1.301   .     S
N410   O412    1.302   .     A
O411   N464    1.301   .     S
N413   O415    1.300   .     A
N413   O414    1.301   .     A
N416   O418    1.300   .     A
N416   O417    1.301   .     A
N419   O420    1.301   .     A
N419   O421    1.301   .     A
N422   O423    1.301   .     A
N422   O424    1.301   .     A
N425   O426    1.301   .     A
N425   O427    1.298   .     A
N428   O429    1.301   .     A
N428   O430    1.298   .     A
O433   C437    1.288   .     A
O433   Zn445   1.996   .     S
O434   C438    1.288   .     A
O434   Zn446   1.996   .     S
O435   Zn446   2.001   .     S
O435   C437    1.283   .     A
O436   C438    1.283   .     A
O436   Zn445   2.001   .     S
C437   C456    1.419   .     S
C438   C455    1.419   .     S
O439   C443    1.279   .     A
O439   Zn445   1.982   .     S
O440   C444    1.279   .     A
O440   Zn446   1.982   .     S
O441   Zn446   1.983   .     S
O441   C443    1.285   .     A
O442   C444    1.285   .     A
O442   Zn445   1.983   .     S
C443   C449    1.406   .     S
C444   C450    1.406   .     S
Zn445  N447    2.020   .     S
Zn446  N448    2.020   .     S
N447   C459    1.357   .     A
N447   C458    1.383   .     A
N448   C460    1.357   .     A
N448   C457    1.383   .     A
C450   C341    1.352   1_655 S
C450   N356    1.448   1_655 S
C451   N467    1.434   .     S
C451   C456    1.406   .     A
C452   N470    1.434   .     S
C452   C455    1.406   .     A
C452   C130    1.382   1_565 S
C453   N473    1.439   .     S
C453   C455    1.405   .     A
C453   C127    1.382   1_565 S
C454   C456    1.405   .     A
C454   N476    1.439   .     S
C457   N479    1.432   .     S
C457   C1431   1.418   1_554 S
C458   N482    1.432   .     S
C458   C946    1.418   .     S
C459   H485    1.081   .     S
C459   C943    1.418   .     S
C460   H486    1.081   .     S
C460   C1430   1.418   1_554 S
N461   O463    1.302   .     A
N461   C341    1.448   1_655 S
N461   O354    1.301   1_655 S
N464   O466    1.302   .     A
O465   N356    1.301   1_655 S
N467   O469    1.300   .     A
N467   O468    1.301   .     A
N470   O472    1.300   .     A
N470   O471    1.301   .     A
N473   O474    1.301   .     A
N473   O475    1.301   .     A
N476   O477    1.301   .     A
N476   O478    1.301   .     A
N479   O480    1.301   .     A
N479   O481    1.298   .     A
N482   O483    1.301   .     A
N482   O484    1.298   .     A
O487   C491    1.288   .     A
O487   Zn499   1.996   .     S
O488   C492    1.288   .     A
O488   Zn500   1.996   .     S
O489   Zn500   2.001   .     S
O489   C491    1.283   .     A
O490   C492    1.283   .     A
O490   Zn499   2.001   .     S
C491   C510    1.419   .     S
C492   C509    1.419   .     S
O493   C497    1.279   .     A
O493   Zn499   1.982   .     S
O494   C498    1.279   .     A
O494   Zn500   1.982   .     S
O495   Zn500   1.983   .     S
O495   C497    1.285   .     A
O496   C498    1.285   .     A
O496   Zn499   1.983   .     S
C497   C503    1.406   .     S
C498   C504    1.406   .     S
Zn499  N501    2.020   .     S
Zn500  N502    2.020   .     S
N501   C513    1.357   .     A
N501   C512    1.383   .     A
N502   C514    1.357   .     A
N502   C511    1.383   .     A
C503   C612    1.352   1_455 S
C503   N623    1.448   1_455 S
C504   C557    1.352   .     S
C504   N572    1.448   .     S
C505   N521    1.434   .     S
C505   C510    1.406   .     A
C505   C831    1.382   1_545 S
C506   N524    1.434   .     S
C506   C509    1.406   .     A
C506   C670    1.382   .     S
C507   N527    1.439   .     S
C507   C509    1.405   .     A
C507   C667    1.382   .     S
C508   C510    1.405   .     A
C508   N530    1.439   .     S
C508   C830    1.382   1_545 S
C511   N533    1.432   .     S
C512   N536    1.432   .     S
C512   C1000   1.418   .     S
C513   H539    1.081   .     S
C513   C997    1.418   .     S
C514   H540    1.081   .     S
N515   O517    1.302   .     A
N515   C557    1.448   .     S
N515   O570    1.301   .     S
O516   N623    1.301   1_455 S
N518   O520    1.302   .     A
N518   C612    1.448   1_455 S
N518   O627    1.301   1_455 S
O519   N572    1.301   .     S
N521   O523    1.300   .     A
N521   O522    1.301   .     A
N524   O526    1.300   .     A
N524   O525    1.301   .     A
N527   O528    1.301   .     A
N527   O529    1.301   .     A
N530   O531    1.301   .     A
N530   O532    1.301   .     A
N533   O534    1.301   .     A
N533   O535    1.298   .     A
N536   O537    1.301   .     A
N536   O538    1.298   .     A
O541   C545    1.288   .     A
O541   Zn553   1.996   .     S
O542   C546    1.288   .     A
O542   Zn554   1.996   .     S
O543   Zn554   2.001   .     S
O543   C545    1.283   .     A
O544   C546    1.283   .     A
O544   Zn553   2.001   .     S
C545   C564    1.419   .     S
C546   C563    1.419   .     S
O547   C551    1.279   .     A
O547   Zn553   1.982   .     S
O548   C552    1.279   .     A
O548   Zn554   1.982   .     S
O549   Zn554   1.983   .     S
O549   C551    1.285   .     A
O550   C552    1.285   .     A
O550   Zn553   1.983   .     S
C551   C557    1.406   .     S
C552   C558    1.406   .     S
Zn553  N555    2.020   .     S
Zn554  N556    2.020   .     S
N555   C567    1.357   .     A
N555   C566    1.383   .     A
N556   C568    1.357   .     A
N556   C565    1.383   .     A
C558   C611    1.352   .     S
C558   N626    1.448   .     S
C559   N575    1.434   .     S
C559   C564    1.406   .     A
C559   C885    1.382   1_545 S
C560   N578    1.434   .     S
C560   C563    1.406   .     A
C560   C724    1.382   .     S
C561   N581    1.439   .     S
C561   C563    1.405   .     A
C561   C721    1.382   .     S
C562   C564    1.405   .     A
C562   N584    1.439   .     S
C562   C884    1.382   1_545 S
C565   N587    1.432   .     S
C566   N590    1.432   .     S
C566   C1054   1.418   .     S
C567   H593    1.081   .     S
C567   C1051   1.418   .     S
C568   H594    1.081   .     S
N569   O571    1.302   .     A
N569   C611    1.448   .     S
N569   O624    1.301   .     S
N572   O574    1.302   .     A
O573   N626    1.301   .     S
N575   O577    1.300   .     A
N575   O576    1.301   .     A
N578   O580    1.300   .     A
N578   O579    1.301   .     A
N581   O582    1.301   .     A
N581   O583    1.301   .     A
N584   O585    1.301   .     A
N584   O586    1.301   .     A
N587   O588    1.301   .     A
N587   O589    1.298   .     A
N590   O591    1.301   .     A
N590   O592    1.298   .     A
O595   C599    1.288   .     A
O595   Zn607   1.996   .     S
O596   C600    1.288   .     A
O596   Zn608   1.996   .     S
O597   Zn608   2.001   .     S
O597   C599    1.283   .     A
O598   C600    1.283   .     A
O598   Zn607   2.001   .     S
C599   C618    1.419   .     S
C600   C617    1.419   .     S
O601   C605    1.279   .     A
O601   Zn607   1.982   .     S
O602   C606    1.279   .     A
O602   Zn608   1.982   .     S
O603   Zn608   1.983   .     S
O603   C605    1.285   .     A
O604   C606    1.285   .     A
O604   Zn607   1.983   .     S
C605   C611    1.406   .     S
C606   C612    1.406   .     S
Zn607  N609    2.020   .     S
Zn608  N610    2.020   .     S
N609   C621    1.357   .     A
N609   C620    1.383   .     A
N610   C622    1.357   .     A
N610   C619    1.383   .     A
C612   C503    1.352   1_655 S
C612   N518    1.448   1_655 S
C613   N629    1.434   .     S
C613   C618    1.406   .     A
C613   C939    1.382   1_545 S
C614   N632    1.434   .     S
C614   C617    1.406   .     A
C614   C778    1.382   .     S
C615   N635    1.439   .     S
C615   C617    1.405   .     A
C615   C775    1.382   .     S
C616   C618    1.405   .     A
C616   N638    1.439   .     S
C616   C938    1.382   1_545 S
C619   N641    1.432   .     S
C620   N644    1.432   .     S
C620   C1108   1.418   .     S
C621   H647    1.081   .     S
C621   C1105   1.418   .     S
C622   H648    1.081   .     S
N623   O625    1.302   .     A
N623   C503    1.448   1_655 S
N623   O516    1.301   1_655 S
N626   O628    1.302   .     A
O627   N518    1.301   1_655 S
N629   O631    1.300   .     A
N629   O630    1.301   .     A
N632   O634    1.300   .     A
N632   O633    1.301   .     A
N635   O636    1.301   .     A
N635   O637    1.301   .     A
N638   O639    1.301   .     A
N638   O640    1.301   .     A
N641   O642    1.301   .     A
N641   O643    1.298   .     A
N644   O645    1.301   .     A
N644   O646    1.298   .     A
O649   C653    1.288   .     A
O649   Zn661   1.996   .     S
O650   C654    1.288   .     A
O650   Zn662   1.996   .     S
O651   Zn662   2.001   .     S
O651   C653    1.283   .     A
O652   C654    1.283   .     A
O652   Zn661   2.001   .     S
C653   C672    1.419   .     S
C654   C671    1.419   .     S
O655   C659    1.279   .     A
O655   Zn661   1.982   .     S
O656   C660    1.279   .     A
O656   Zn662   1.982   .     S
O657   Zn662   1.983   .     S
O657   C659    1.285   .     A
O658   C660    1.285   .     A
O658   Zn661   1.983   .     S
C659   C665    1.406   .     S
C660   C666    1.406   .     S
Zn661  N663    2.020   .     S
Zn662  N664    2.020   .     S
N663   C675    1.357   .     A
N663   C674    1.383   .     A
N664   C676    1.357   .     A
N664   C673    1.383   .     A
C665   C774    1.352   1_455 S
C665   N785    1.448   1_455 S
C666   C719    1.352   .     S
C666   N734    1.448   .     S
C667   N683    1.434   .     S
C667   C672    1.406   .     A
C668   N686    1.434   .     S
C668   C671    1.406   .     A
C668   C832    1.382   .     S
C669   N689    1.439   .     S
C669   C671    1.405   .     A
C669   C829    1.382   .     S
C670   C672    1.405   .     A
C670   N692    1.439   .     S
C673   N695    1.432   .     S
C674   N698    1.432   .     S
C674   C1162   1.418   .     S
C675   H701    1.081   .     S
C675   C1159   1.418   .     S
C676   H702    1.081   .     S
N677   O679    1.302   .     A
N677   C719    1.448   .     S
N677   O732    1.301   .     S
O678   N785    1.301   1_455 S
N680   O682    1.302   .     A
N680   C774    1.448   1_455 S
N680   O789    1.301   1_455 S
O681   N734    1.301   .     S
N683   O685    1.300   .     A
N683   O684    1.301   .     A
N686   O688    1.300   .     A
N686   O687    1.301   .     A
N689   O690    1.301   .     A
N689   O691    1.301   .     A
N692   O693    1.301   .     A
N692   O694    1.301   .     A
N695   O696    1.301   .     A
N695   O697    1.298   .     A
N698   O699    1.301   .     A
N698   O700    1.298   .     A
O703   C707    1.288   .     A
O703   Zn715   1.996   .     S
O704   C708    1.288   .     A
O704   Zn716   1.996   .     S
O705   Zn716   2.001   .     S
O705   C707    1.283   .     A
O706   C708    1.283   .     A
O706   Zn715   2.001   .     S
C707   C726    1.419   .     S
C708   C725    1.419   .     S
O709   C713    1.279   .     A
O709   Zn715   1.982   .     S
O710   C714    1.279   .     A
O710   Zn716   1.982   .     S
O711   Zn716   1.983   .     S
O711   C713    1.285   .     A
O712   C714    1.285   .     A
O712   Zn715   1.983   .     S
C713   C719    1.406   .     S
C714   C720    1.406   .     S
Zn715  N717    2.020   .     S
Zn716  N718    2.020   .     S
N717   C729    1.357   .     A
N717   C728    1.383   .     A
N718   C730    1.357   .     A
N718   C727    1.383   .     A
C720   C773    1.352   .     S
C720   N788    1.448   .     S
C721   N737    1.434   .     S
C721   C726    1.406   .     A
C722   N740    1.434   .     S
C722   C725    1.406   .     A
C722   C886    1.382   .     S
C723   N743    1.439   .     S
C723   C725    1.405   .     A
C723   C883    1.382   .     S
C724   C726    1.405   .     A
C724   N746    1.439   .     S
C727   N749    1.432   .     S
C728   N752    1.432   .     S
C728   C1216   1.418   .     S
C729   H755    1.081   .     S
C729   C1213   1.418   .     S
C730   H756    1.081   .     S
N731   O733    1.302   .     A
N731   C773    1.448   .     S
N731   O786    1.301   .     S
N734   O736    1.302   .     A
O735   N788    1.301   .     S
N737   O739    1.300   .     A
N737   O738    1.301   .     A
N740   O742    1.300   .     A
N740   O741    1.301   .     A
N743   O744    1.301   .     A
N743   O745    1.301   .     A
N746   O747    1.301   .     A
N746   O748    1.301   .     A
N749   O750    1.301   .     A
N749   O751    1.298   .     A
N752   O753    1.301   .     A
N752   O754    1.298   .     A
O757   C761    1.288   .     A
O757   Zn769   1.996   .     S
O758   C762    1.288   .     A
O758   Zn770   1.996   .     S
O759   Zn770   2.001   .     S
O759   C761    1.283   .     A
O760   C762    1.283   .     A
O760   Zn769   2.001   .     S
C761   C780    1.419   .     S
C762   C779    1.419   .     S
O763   C767    1.279   .     A
O763   Zn769   1.982   .     S
O764   C768    1.279   .     A
O764   Zn770   1.982   .     S
O765   Zn770   1.983   .     S
O765   C767    1.285   .     A
O766   C768    1.285   .     A
O766   Zn769   1.983   .     S
C767   C773    1.406   .     S
C768   C774    1.406   .     S
Zn769  N771    2.020   .     S
Zn770  N772    2.020   .     S
N771   C783    1.357   .     A
N771   C782    1.383   .     A
N772   C784    1.357   .     A
N772   C781    1.383   .     A
C774   C665    1.352   1_655 S
C774   N680    1.448   1_655 S
C775   N791    1.434   .     S
C775   C780    1.406   .     A
C776   N794    1.434   .     S
C776   C779    1.406   .     A
C776   C940    1.382   .     S
C777   N797    1.439   .     S
C777   C779    1.405   .     A
C777   C937    1.382   .     S
C778   C780    1.405   .     A
C778   N800    1.439   .     S
C781   N803    1.432   .     S
C782   N806    1.432   .     S
C782   C1270   1.418   .     S
C783   H809    1.081   .     S
C783   C1267   1.418   .     S
C784   H810    1.081   .     S
N785   O787    1.302   .     A
N785   C665    1.448   1_655 S
N785   O678    1.301   1_655 S
N788   O790    1.302   .     A
O789   N680    1.301   1_655 S
N791   O793    1.300   .     A
N791   O792    1.301   .     A
N794   O796    1.300   .     A
N794   O795    1.301   .     A
N797   O798    1.301   .     A
N797   O799    1.301   .     A
N800   O801    1.301   .     A
N800   O802    1.301   .     A
N803   O804    1.301   .     A
N803   O805    1.298   .     A
N806   O807    1.301   .     A
N806   O808    1.298   .     A
O811   C815    1.288   .     A
O811   Zn823   1.996   .     S
O812   C816    1.288   .     A
O812   Zn824   1.996   .     S
O813   Zn824   2.001   .     S
O813   C815    1.283   .     A
O814   C816    1.283   .     A
O814   Zn823   2.001   .     S
C815   C834    1.419   .     S
C816   C833    1.419   .     S
O817   C821    1.279   .     A
O817   Zn823   1.982   .     S
O818   C822    1.279   .     A
O818   Zn824   1.982   .     S
O819   Zn824   1.983   .     S
O819   C821    1.285   .     A
O820   C822    1.285   .     A
O820   Zn823   1.983   .     S
C821   C827    1.406   .     S
C822   C828    1.406   .     S
Zn823  N825    2.020   .     S
Zn824  N826    2.020   .     S
N825   C837    1.357   .     A
N825   C836    1.383   .     A
N826   C838    1.357   .     A
N826   C835    1.383   .     A
C827   C936    1.352   1_455 S
C827   N947    1.448   1_455 S
C828   C881    1.352   .     S
C828   N896    1.448   .     S
C829   N845    1.434   .     S
C829   C834    1.406   .     A
C830   N848    1.434   .     S
C830   C833    1.406   .     A
C830   C508    1.382   1_565 S
C831   N851    1.439   .     S
C831   C833    1.405   .     A
C831   C505    1.382   1_565 S
C832   C834    1.405   .     A
C832   N854    1.439   .     S
C835   N857    1.432   .     S
C836   N860    1.432   .     S
C836   C1324   1.418   .     S
C837   H863    1.081   .     S
C837   C1321   1.418   .     S
C838   H864    1.081   .     S
N839   O841    1.302   .     A
N839   C881    1.448   .     S
N839   O894    1.301   .     S
O840   N947    1.301   1_455 S
N842   O844    1.302   .     A
N842   C936    1.448   1_455 S
N842   O951    1.301   1_455 S
O843   N896    1.301   .     S
N845   O847    1.300   .     A
N845   O846    1.301   .     A
N848   O850    1.300   .     A
N848   O849    1.301   .     A
N851   O852    1.301   .     A
N851   O853    1.301   .     A
N854   O855    1.301   .     A
N854   O856    1.301   .     A
N857   O858    1.301   .     A
N857   O859    1.298   .     A
N860   O861    1.301   .     A
N860   O862    1.298   .     A
O865   C869    1.288   .     A
O865   Zn877   1.996   .     S
O866   C870    1.288   .     A
O866   Zn878   1.996   .     S
O867   Zn878   2.001   .     S
O867   C869    1.283   .     A
O868   C870    1.283   .     A
O868   Zn877   2.001   .     S
C869   C888    1.419   .     S
C870   C887    1.419   .     S
O871   C875    1.279   .     A
O871   Zn877   1.982   .     S
O872   C876    1.279   .     A
O872   Zn878   1.982   .     S
O873   Zn878   1.983   .     S
O873   C875    1.285   .     A
O874   C876    1.285   .     A
O874   Zn877   1.983   .     S
C875   C881    1.406   .     S
C876   C882    1.406   .     S
Zn877  N879    2.020   .     S
Zn878  N880    2.020   .     S
N879   C891    1.357   .     A
N879   C890    1.383   .     A
N880   C892    1.357   .     A
N880   C889    1.383   .     A
C882   C935    1.352   .     S
C882   N950    1.448   .     S
C883   N899    1.434   .     S
C883   C888    1.406   .     A
C884   N902    1.434   .     S
C884   C887    1.406   .     A
C884   C562    1.382   1_565 S
C885   N905    1.439   .     S
C885   C887    1.405   .     A
C885   C559    1.382   1_565 S
C886   C888    1.405   .     A
C886   N908    1.439   .     S
C889   N911    1.432   .     S
C890   N914    1.432   .     S
C890   C1378   1.418   .     S
C891   H917    1.081   .     S
C891   C1375   1.418   .     S
C892   H918    1.081   .     S
N893   O895    1.302   .     A
N893   C935    1.448   .     S
N893   O948    1.301   .     S
N896   O898    1.302   .     A
O897   N950    1.301   .     S
N899   O901    1.300   .     A
N899   O900    1.301   .     A
N902   O904    1.300   .     A
N902   O903    1.301   .     A
N905   O906    1.301   .     A
N905   O907    1.301   .     A
N908   O909    1.301   .     A
N908   O910    1.301   .     A
N911   O912    1.301   .     A
N911   O913    1.298   .     A
N914   O915    1.301   .     A
N914   O916    1.298   .     A
O919   C923    1.288   .     A
O919   Zn931   1.996   .     S
O920   C924    1.288   .     A
O920   Zn932   1.996   .     S
O921   Zn932   2.001   .     S
O921   C923    1.283   .     A
O922   C924    1.283   .     A
O922   Zn931   2.001   .     S
C923   C942    1.419   .     S
C924   C941    1.419   .     S
O925   C929    1.279   .     A
O925   Zn931   1.982   .     S
O926   C930    1.279   .     A
O926   Zn932   1.982   .     S
O927   Zn932   1.983   .     S
O927   C929    1.285   .     A
O928   C930    1.285   .     A
O928   Zn931   1.983   .     S
C929   C935    1.406   .     S
C930   C936    1.406   .     S
Zn931  N933    2.020   .     S
Zn932  N934    2.020   .     S
N933   C945    1.357   .     A
N933   C944    1.383   .     A
N934   C946    1.357   .     A
N934   C943    1.383   .     A
C936   C827    1.352   1_655 S
C936   N842    1.448   1_655 S
C937   N953    1.434   .     S
C937   C942    1.406   .     A
C938   N956    1.434   .     S
C938   C941    1.406   .     A
C938   C616    1.382   1_565 S
C939   N959    1.439   .     S
C939   C941    1.405   .     A
C939   C613    1.382   1_565 S
C940   C942    1.405   .     A
C940   N962    1.439   .     S
C943   N965    1.432   .     S
C944   N968    1.432   .     S
C944   C1432   1.418   .     S
C945   H971    1.081   .     S
C945   C1429   1.418   .     S
C946   H972    1.081   .     S
N947   O949    1.302   .     A
N947   C827    1.448   1_655 S
N947   O840    1.301   1_655 S
N950   O952    1.302   .     A
O951   N842    1.301   1_655 S
N953   O955    1.300   .     A
N953   O954    1.301   .     A
N956   O958    1.300   .     A
N956   O957    1.301   .     A
N959   O960    1.301   .     A
N959   O961    1.301   .     A
N962   O963    1.301   .     A
N962   O964    1.301   .     A
N965   O966    1.301   .     A
N965   O967    1.298   .     A
N968   O969    1.301   .     A
N968   O970    1.298   .     A
O973   C977    1.288   .     A
O973   Zn985   1.996   .     S
O974   C978    1.288   .     A
O974   Zn986   1.996   .     S
O975   Zn986   2.001   .     S
O975   C977    1.283   .     A
O976   C978    1.283   .     A
O976   Zn985   2.001   .     S
C977   C996    1.419   .     S
C978   C995    1.419   .     S
O979   C983    1.279   .     A
O979   Zn985   1.982   .     S
O980   C984    1.279   .     A
O980   Zn986   1.982   .     S
O981   Zn986   1.983   .     S
O981   C983    1.285   .     A
O982   C984    1.285   .     A
O982   Zn985   1.983   .     S
C983   C989    1.406   .     S
C984   C990    1.406   .     S
Zn985  N987    2.020   .     S
Zn986  N988    2.020   .     S
N987   C999    1.357   .     A
N987   C998    1.383   .     A
N988   C1000   1.357   .     A
N988   C997    1.383   .     A
C989   C1098   1.352   1_455 S
C989   N1109   1.448   1_455 S
C990   C1043   1.352   .     S
C990   N1058   1.448   .     S
C991   N1007   1.434   .     S
C991   C996    1.406   .     A
C991   C1317   1.382   1_545 S
C992   N1010   1.434   .     S
C992   C995    1.406   .     A
C992   C1156   1.382   .     S
C993   N1013   1.439   .     S
C993   C995    1.405   .     A
C993   C1153   1.382   .     S
C994   C996    1.405   .     A
C994   N1016   1.439   .     S
C994   C1316   1.382   1_545 S
C997   N1019   1.432   .     S
C998   N1022   1.432   .     S
C998   C28     1.418   1_556 S
C999   H1025   1.081   .     S
C999   C25     1.418   1_556 S
C1000  H1026   1.081   .     S
N1001  O1003   1.302   .     A
N1001  C1043   1.448   .     S
N1001  O1056   1.301   .     S
O1002  N1109   1.301   1_455 S
N1004  O1006   1.302   .     A
N1004  C1098   1.448   1_455 S
N1004  O1113   1.301   1_455 S
O1005  N1058   1.301   .     S
N1007  O1009   1.300   .     A
N1007  O1008   1.301   .     A
N1010  O1012   1.300   .     A
N1010  O1011   1.301   .     A
N1013  O1014   1.301   .     A
N1013  O1015   1.301   .     A
N1016  O1017   1.301   .     A
N1016  O1018   1.301   .     A
N1019  O1020   1.301   .     A
N1019  O1021   1.298   .     A
N1022  O1023   1.301   .     A
N1022  O1024   1.298   .     A
O1027  C1031   1.288   .     A
O1027  Zn1039  1.996   .     S
O1028  C1032   1.288   .     A
O1028  Zn1040  1.996   .     S
O1029  Zn1040  2.001   .     S
O1029  C1031   1.283   .     A
O1030  C1032   1.283   .     A
O1030  Zn1039  2.001   .     S
C1031  C1050   1.419   .     S
C1032  C1049   1.419   .     S
O1033  C1037   1.279   .     A
O1033  Zn1039  1.982   .     S
O1034  C1038   1.279   .     A
O1034  Zn1040  1.982   .     S
O1035  Zn1040  1.983   .     S
O1035  C1037   1.285   .     A
O1036  C1038   1.285   .     A
O1036  Zn1039  1.983   .     S
C1037  C1043   1.406   .     S
C1038  C1044   1.406   .     S
Zn1039 N1041   2.020   .     S
Zn1040 N1042   2.020   .     S
N1041  C1053   1.357   .     A
N1041  C1052   1.383   .     A
N1042  C1054   1.357   .     A
N1042  C1051   1.383   .     A
C1044  C1097   1.352   .     S
C1044  N1112   1.448   .     S
C1045  N1061   1.434   .     S
C1045  C1050   1.406   .     A
C1045  C1371   1.382   1_545 S
C1046  N1064   1.434   .     S
C1046  C1049   1.406   .     A
C1046  C1210   1.382   .     S
C1047  N1067   1.439   .     S
C1047  C1049   1.405   .     A
C1047  C1207   1.382   .     S
C1048  C1050   1.405   .     A
C1048  N1070   1.439   .     S
C1048  C1370   1.382   1_545 S
C1051  N1073   1.432   .     S
C1052  N1076   1.432   .     S
C1052  C82     1.418   1_556 S
C1053  H1079   1.081   .     S
C1053  C79     1.418   1_556 S
C1054  H1080   1.081   .     S
N1055  O1057   1.302   .     A
N1055  C1097   1.448   .     S
N1055  O1110   1.301   .     S
N1058  O1060   1.302   .     A
O1059  N1112   1.301   .     S
N1061  O1063   1.300   .     A
N1061  O1062   1.301   .     A
N1064  O1066   1.300   .     A
N1064  O1065   1.301   .     A
N1067  O1068   1.301   .     A
N1067  O1069   1.301   .     A
N1070  O1071   1.301   .     A
N1070  O1072   1.301   .     A
N1073  O1074   1.301   .     A
N1073  O1075   1.298   .     A
N1076  O1077   1.301   .     A
N1076  O1078   1.298   .     A
O1081  C1085   1.288   .     A
O1081  Zn1093  1.996   .     S
O1082  C1086   1.288   .     A
O1082  Zn1094  1.996   .     S
O1083  Zn1094  2.001   .     S
O1083  C1085   1.283   .     A
O1084  C1086   1.283   .     A
O1084  Zn1093  2.001   .     S
C1085  C1104   1.419   .     S
C1086  C1103   1.419   .     S
O1087  C1091   1.279   .     A
O1087  Zn1093  1.982   .     S
O1088  C1092   1.279   .     A
O1088  Zn1094  1.982   .     S
O1089  Zn1094  1.983   .     S
O1089  C1091   1.285   .     A
O1090  C1092   1.285   .     A
O1090  Zn1093  1.983   .     S
C1091  C1097   1.406   .     S
C1092  C1098   1.406   .     S
Zn1093 N1095   2.020   .     S
Zn1094 N1096   2.020   .     S
N1095  C1107   1.357   .     A
N1095  C1106   1.383   .     A
N1096  C1108   1.357   .     A
N1096  C1105   1.383   .     A
C1098  C989    1.352   1_655 S
C1098  N1004   1.448   1_655 S
C1099  N1115   1.434   .     S
C1099  C1104   1.406   .     A
C1099  C1425   1.382   1_545 S
C1100  N1118   1.434   .     S
C1100  C1103   1.406   .     A
C1100  C1264   1.382   .     S
C1101  N1121   1.439   .     S
C1101  C1103   1.405   .     A
C1101  C1261   1.382   .     S
C1102  C1104   1.405   .     A
C1102  N1124   1.439   .     S
C1102  C1424   1.382   1_545 S
C1105  N1127   1.432   .     S
C1106  N1130   1.432   .     S
C1106  C136    1.418   1_556 S
C1107  H1133   1.081   .     S
C1107  C133    1.418   1_556 S
C1108  H1134   1.081   .     S
N1109  O1111   1.302   .     A
N1109  C989    1.448   1_655 S
N1109  O1002   1.301   1_655 S
N1112  O1114   1.302   .     A
O1113  N1004   1.301   1_655 S
N1115  O1117   1.300   .     A
N1115  O1116   1.301   .     A
N1118  O1120   1.300   .     A
N1118  O1119   1.301   .     A
N1121  O1122   1.301   .     A
N1121  O1123   1.301   .     A
N1124  O1125   1.301   .     A
N1124  O1126   1.301   .     A
N1127  O1128   1.301   .     A
N1127  O1129   1.298   .     A
N1130  O1131   1.301   .     A
N1130  O1132   1.298   .     A
O1135  C1139   1.288   .     A
O1135  Zn1147  1.996   .     S
O1136  C1140   1.288   .     A
O1136  Zn1148  1.996   .     S
O1137  Zn1148  2.001   .     S
O1137  C1139   1.283   .     A
O1138  C1140   1.283   .     A
O1138  Zn1147  2.001   .     S
C1139  C1158   1.419   .     S
C1140  C1157   1.419   .     S
O1141  C1145   1.279   .     A
O1141  Zn1147  1.982   .     S
O1142  C1146   1.279   .     A
O1142  Zn1148  1.982   .     S
O1143  Zn1148  1.983   .     S
O1143  C1145   1.285   .     A
O1144  C1146   1.285   .     A
O1144  Zn1147  1.983   .     S
C1145  C1151   1.406   .     S
C1146  C1152   1.406   .     S
Zn1147 N1149   2.020   .     S
Zn1148 N1150   2.020   .     S
N1149  C1161   1.357   .     A
N1149  C1160   1.383   .     A
N1150  C1162   1.357   .     A
N1150  C1159   1.383   .     A
C1151  C1260   1.352   1_455 S
C1151  N1271   1.448   1_455 S
C1152  C1205   1.352   .     S
C1152  N1220   1.448   .     S
C1153  N1169   1.434   .     S
C1153  C1158   1.406   .     A
C1154  N1172   1.434   .     S
C1154  C1157   1.406   .     A
C1154  C1318   1.382   .     S
C1155  N1175   1.439   .     S
C1155  C1157   1.405   .     A
C1155  C1315   1.382   .     S
C1156  C1158   1.405   .     A
C1156  N1178   1.439   .     S
C1159  N1181   1.432   .     S
C1160  N1184   1.432   .     S
C1160  C190    1.418   1_556 S
C1161  H1187   1.081   .     S
C1161  C187    1.418   1_556 S
C1162  H1188   1.081   .     S
N1163  O1165   1.302   .     A
N1163  C1205   1.448   .     S
N1163  O1218   1.301   .     S
O1164  N1271   1.301   1_455 S
N1166  O1168   1.302   .     A
N1166  C1260   1.448   1_455 S
N1166  O1275   1.301   1_455 S
O1167  N1220   1.301   .     S
N1169  O1171   1.300   .     A
N1169  O1170   1.301   .     A
N1172  O1174   1.300   .     A
N1172  O1173   1.301   .     A
N1175  O1176   1.301   .     A
N1175  O1177   1.301   .     A
N1178  O1179   1.301   .     A
N1178  O1180   1.301   .     A
N1181  O1182   1.301   .     A
N1181  O1183   1.298   .     A
N1184  O1185   1.301   .     A
N1184  O1186   1.298   .     A
O1189  C1193   1.288   .     A
O1189  Zn1201  1.996   .     S
O1190  C1194   1.288   .     A
O1190  Zn1202  1.996   .     S
O1191  Zn1202  2.001   .     S
O1191  C1193   1.283   .     A
O1192  C1194   1.283   .     A
O1192  Zn1201  2.001   .     S
C1193  C1212   1.419   .     S
C1194  C1211   1.419   .     S
O1195  C1199   1.279   .     A
O1195  Zn1201  1.982   .     S
O1196  C1200   1.279   .     A
O1196  Zn1202  1.982   .     S
O1197  Zn1202  1.983   .     S
O1197  C1199   1.285   .     A
O1198  C1200   1.285   .     A
O1198  Zn1201  1.983   .     S
C1199  C1205   1.406   .     S
C1200  C1206   1.406   .     S
Zn1201 N1203   2.020   .     S
Zn1202 N1204   2.020   .     S
N1203  C1215   1.357   .     A
N1203  C1214   1.383   .     A
N1204  C1216   1.357   .     A
N1204  C1213   1.383   .     A
C1206  C1259   1.352   .     S
C1206  N1274   1.448   .     S
C1207  N1223   1.434   .     S
C1207  C1212   1.406   .     A
C1208  N1226   1.434   .     S
C1208  C1211   1.406   .     A
C1208  C1372   1.382   .     S
C1209  N1229   1.439   .     S
C1209  C1211   1.405   .     A
C1209  C1369   1.382   .     S
C1210  C1212   1.405   .     A
C1210  N1232   1.439   .     S
C1213  N1235   1.432   .     S
C1214  N1238   1.432   .     S
C1214  C244    1.418   1_556 S
C1215  H1241   1.081   .     S
C1215  C241    1.418   1_556 S
C1216  H1242   1.081   .     S
N1217  O1219   1.302   .     A
N1217  C1259   1.448   .     S
N1217  O1272   1.301   .     S
N1220  O1222   1.302   .     A
O1221  N1274   1.301   .     S
N1223  O1225   1.300   .     A
N1223  O1224   1.301   .     A
N1226  O1228   1.300   .     A
N1226  O1227   1.301   .     A
N1229  O1230   1.301   .     A
N1229  O1231   1.301   .     A
N1232  O1233   1.301   .     A
N1232  O1234   1.301   .     A
N1235  O1236   1.301   .     A
N1235  O1237   1.298   .     A
N1238  O1239   1.301   .     A
N1238  O1240   1.298   .     A
O1243  C1247   1.288   .     A
O1243  Zn1255  1.996   .     S
O1244  C1248   1.288   .     A
O1244  Zn1256  1.996   .     S
O1245  Zn1256  2.001   .     S
O1245  C1247   1.283   .     A
O1246  C1248   1.283   .     A
O1246  Zn1255  2.001   .     S
C1247  C1266   1.419   .     S
C1248  C1265   1.419   .     S
O1249  C1253   1.279   .     A
O1249  Zn1255  1.982   .     S
O1250  C1254   1.279   .     A
O1250  Zn1256  1.982   .     S
O1251  Zn1256  1.983   .     S
O1251  C1253   1.285   .     A
O1252  C1254   1.285   .     A
O1252  Zn1255  1.983   .     S
C1253  C1259   1.406   .     S
C1254  C1260   1.406   .     S
Zn1255 N1257   2.020   .     S
Zn1256 N1258   2.020   .     S
N1257  C1269   1.357   .     A
N1257  C1268   1.383   .     A
N1258  C1270   1.357   .     A
N1258  C1267   1.383   .     A
C1260  C1151   1.352   1_655 S
C1260  N1166   1.448   1_655 S
C1261  N1277   1.434   .     S
C1261  C1266   1.406   .     A
C1262  N1280   1.434   .     S
C1262  C1265   1.406   .     A
C1262  C1426   1.382   .     S
C1263  N1283   1.439   .     S
C1263  C1265   1.405   .     A
C1263  C1423   1.382   .     S
C1264  C1266   1.405   .     A
C1264  N1286   1.439   .     S
C1267  N1289   1.432   .     S
C1268  N1292   1.432   .     S
C1268  C298    1.418   1_556 S
C1269  H1295   1.081   .     S
C1269  C295    1.418   1_556 S
C1270  H1296   1.081   .     S
N1271  O1273   1.302   .     A
N1271  C1151   1.448   1_655 S
N1271  O1164   1.301   1_655 S
N1274  O1276   1.302   .     A
O1275  N1166   1.301   1_655 S
N1277  O1279   1.300   .     A
N1277  O1278   1.301   .     A
N1280  O1282   1.300   .     A
N1280  O1281   1.301   .     A
N1283  O1284   1.301   .     A
N1283  O1285   1.301   .     A
N1286  O1287   1.301   .     A
N1286  O1288   1.301   .     A
N1289  O1290   1.301   .     A
N1289  O1291   1.298   .     A
N1292  O1293   1.301   .     A
N1292  O1294   1.298   .     A
O1297  C1301   1.288   .     A
O1297  Zn1309  1.996   .     S
O1298  C1302   1.288   .     A
O1298  Zn1310  1.996   .     S
O1299  Zn1310  2.001   .     S
O1299  C1301   1.283   .     A
O1300  C1302   1.283   .     A
O1300  Zn1309  2.001   .     S
C1301  C1320   1.419   .     S
C1302  C1319   1.419   .     S
O1303  C1307   1.279   .     A
O1303  Zn1309  1.982   .     S
O1304  C1308   1.279   .     A
O1304  Zn1310  1.982   .     S
O1305  Zn1310  1.983   .     S
O1305  C1307   1.285   .     A
O1306  C1308   1.285   .     A
O1306  Zn1309  1.983   .     S
C1307  C1313   1.406   .     S
C1308  C1314   1.406   .     S
Zn1309 N1311   2.020   .     S
Zn1310 N1312   2.020   .     S
N1311  C1323   1.357   .     A
N1311  C1322   1.383   .     A
N1312  C1324   1.357   .     A
N1312  C1321   1.383   .     A
C1313  C1422   1.352   1_455 S
C1313  N1433   1.448   1_455 S
C1314  C1367   1.352   .     S
C1314  N1382   1.448   .     S
C1315  N1331   1.434   .     S
C1315  C1320   1.406   .     A
C1316  N1334   1.434   .     S
C1316  C1319   1.406   .     A
C1316  C994    1.382   1_565 S
C1317  N1337   1.439   .     S
C1317  C1319   1.405   .     A
C1317  C991    1.382   1_565 S
C1318  C1320   1.405   .     A
C1318  N1340   1.439   .     S
C1321  N1343   1.432   .     S
C1322  N1346   1.432   .     S
C1322  C352    1.418   1_556 S
C1323  H1349   1.081   .     S
C1323  C349    1.418   1_556 S
C1324  H1350   1.081   .     S
N1325  O1327   1.302   .     A
N1325  C1367   1.448   .     S
N1325  O1380   1.301   .     S
O1326  N1433   1.301   1_455 S
N1328  O1330   1.302   .     A
N1328  C1422   1.448   1_455 S
N1328  O1437   1.301   1_455 S
O1329  N1382   1.301   .     S
N1331  O1333   1.300   .     A
N1331  O1332   1.301   .     A
N1334  O1336   1.300   .     A
N1334  O1335   1.301   .     A
N1337  O1338   1.301   .     A
N1337  O1339   1.301   .     A
N1340  O1341   1.301   .     A
N1340  O1342   1.301   .     A
N1343  O1344   1.301   .     A
N1343  O1345   1.298   .     A
N1346  O1347   1.301   .     A
N1346  O1348   1.298   .     A
O1351  C1355   1.288   .     A
O1351  Zn1363  1.996   .     S
O1352  C1356   1.288   .     A
O1352  Zn1364  1.996   .     S
O1353  Zn1364  2.001   .     S
O1353  C1355   1.283   .     A
O1354  C1356   1.283   .     A
O1354  Zn1363  2.001   .     S
C1355  C1374   1.419   .     S
C1356  C1373   1.419   .     S
O1357  C1361   1.279   .     A
O1357  Zn1363  1.982   .     S
O1358  C1362   1.279   .     A
O1358  Zn1364  1.982   .     S
O1359  Zn1364  1.983   .     S
O1359  C1361   1.285   .     A
O1360  C1362   1.285   .     A
O1360  Zn1363  1.983   .     S
C1361  C1367   1.406   .     S
C1362  C1368   1.406   .     S
Zn1363 N1365   2.020   .     S
Zn1364 N1366   2.020   .     S
N1365  C1377   1.357   .     A
N1365  C1376   1.383   .     A
N1366  C1378   1.357   .     A
N1366  C1375   1.383   .     A
C1368  C1421   1.352   .     S
C1368  N1436   1.448   .     S
C1369  N1385   1.434   .     S
C1369  C1374   1.406   .     A
C1370  N1388   1.434   .     S
C1370  C1373   1.406   .     A
C1370  C1048   1.382   1_565 S
C1371  N1391   1.439   .     S
C1371  C1373   1.405   .     A
C1371  C1045   1.382   1_565 S
C1372  C1374   1.405   .     A
C1372  N1394   1.439   .     S
C1375  N1397   1.432   .     S
C1376  N1400   1.432   .     S
C1376  C406    1.418   1_556 S
C1377  H1403   1.081   .     S
C1377  C403    1.418   1_556 S
C1378  H1404   1.081   .     S
N1379  O1381   1.302   .     A
N1379  C1421   1.448   .     S
N1379  O1434   1.301   .     S
N1382  O1384   1.302   .     A
O1383  N1436   1.301   .     S
N1385  O1387   1.300   .     A
N1385  O1386   1.301   .     A
N1388  O1390   1.300   .     A
N1388  O1389   1.301   .     A
N1391  O1392   1.301   .     A
N1391  O1393   1.301   .     A
N1394  O1395   1.301   .     A
N1394  O1396   1.301   .     A
N1397  O1398   1.301   .     A
N1397  O1399   1.298   .     A
N1400  O1401   1.301   .     A
N1400  O1402   1.298   .     A
O1405  C1409   1.288   .     A
O1405  Zn1417  1.996   .     S
O1406  C1410   1.288   .     A
O1406  Zn1418  1.996   .     S
O1407  Zn1418  2.001   .     S
O1407  C1409   1.283   .     A
O1408  C1410   1.283   .     A
O1408  Zn1417  2.001   .     S
C1409  C1428   1.419   .     S
C1410  C1427   1.419   .     S
O1411  C1415   1.279   .     A
O1411  Zn1417  1.982   .     S
O1412  C1416   1.279   .     A
O1412  Zn1418  1.982   .     S
O1413  Zn1418  1.983   .     S
O1413  C1415   1.285   .     A
O1414  C1416   1.285   .     A
O1414  Zn1417  1.983   .     S
C1415  C1421   1.406   .     S
C1416  C1422   1.406   .     S
Zn1417 N1419   2.020   .     S
Zn1418 N1420   2.020   .     S
N1419  C1431   1.357   .     A
N1419  C1430   1.383   .     A
N1420  C1432   1.357   .     A
N1420  C1429   1.383   .     A
C1422  C1313   1.352   1_655 S
C1422  N1328   1.448   1_655 S
C1423  N1439   1.434   .     S
C1423  C1428   1.406   .     A
C1424  N1442   1.434   .     S
C1424  C1427   1.406   .     A
C1424  C1102   1.382   1_565 S
C1425  N1445   1.439   .     S
C1425  C1427   1.405   .     A
C1425  C1099   1.382   1_565 S
C1426  C1428   1.405   .     A
C1426  N1448   1.439   .     S
C1429  N1451   1.432   .     S
C1430  N1454   1.432   .     S
C1430  C460    1.418   1_556 S
C1431  H1457   1.081   .     S
C1431  C457    1.418   1_556 S
C1432  H1458   1.081   .     S
N1433  O1435   1.302   .     A
N1433  C1313   1.448   1_655 S
N1433  O1326   1.301   1_655 S
N1436  O1438   1.302   .     A
O1437  N1328   1.301   1_655 S
N1439  O1441   1.300   .     A
N1439  O1440   1.301   .     A
N1442  O1444   1.300   .     A
N1442  O1443   1.301   .     A
N1445  O1446   1.301   .     A
N1445  O1447   1.301   .     A
N1448  O1449   1.301   .     A
N1448  O1450   1.301   .     A
N1451  O1452   1.301   .     A
N1451  O1453   1.298   .     A
N1454  O1455   1.301   .     A
N1454  O1456   1.298   .     A
