data_str_m2_o1_o1_pcu_sym.65
_audit_creation_date              2020-01-03
_audit_creation_method            'Materials Studio'
_symmetry_space_group_name_H-M    'P1'
_symmetry_Int_Tables_number       1
_symmetry_cell_setting            triclinic
loop_
_symmetry_equiv_pos_as_xyz
  x,y,z
_cell_length_a                    30.6871
_cell_length_b                    30.5899
_cell_length_c                    28.5522
_cell_angle_alpha                 89.9995
_cell_angle_beta                  89.9999
_cell_angle_gamma                 89.9974
loop_
_atom_site_label
_atom_site_type_symbol
_atom_site_fract_x
_atom_site_fract_y
_atom_site_fract_z
_atom_site_U_iso_or_equiv
_atom_site_adp_type
_atom_site_occupancy
C1     C     0.05944   0.19052   0.16667   0.00000  Uiso   1.00
C2     C     0.49998   0.28839   0.30853   0.00000  Uiso   1.00
C3     C     0.00002   0.28839   0.02481   0.00000  Uiso   1.00
C4     C     0.00002   0.21161   0.30853   0.00000  Uiso   1.00
C5     C     0.25002   0.46161   0.02481   0.00000  Uiso   1.00
C6     C     0.25002   0.03839   0.30853   0.00000  Uiso   1.00
C7     C     0.24998   0.03839   0.02481   0.00000  Uiso   1.00
C8     C     0.24998   0.46161   0.30853   0.00000  Uiso   1.00
C9     C     0.37811   0.15394   0.12880   0.00000  Uiso   1.00
C10    C     0.09610   0.37204   0.20450   0.00000  Uiso   1.00
C11    C     0.12192   0.34603   0.12882   0.00000  Uiso   1.00
C12    C     0.44056   0.30948   0.16667   0.00000  Uiso   1.00
C13    C     0.40387   0.12799   0.20452   0.00000  Uiso   1.00
C14    C     0.12200   0.15404   0.20445   0.00000  Uiso   1.00
C15    C     0.40393   0.37207   0.12886   0.00000  Uiso   1.00
C16    C     0.37805   0.34600   0.20448   0.00000  Uiso   1.00
C17    C     0.09602   0.12789   0.12890   0.00000  Uiso   1.00
C18    C     0.15390   0.37796   0.12883   0.00000  Uiso   1.00
C19    C     0.37190   0.09606   0.20453   0.00000  Uiso   1.00
C20    C     0.34613   0.12201   0.12881   0.00000  Uiso   1.00
C21    C     0.12808   0.40397   0.20451   0.00000  Uiso   1.00
C22    C     0.34607   0.37793   0.20447   0.00000  Uiso   1.00
C23    C     0.44056   0.19052   0.16667   0.00000  Uiso   1.00
C24    C     0.12800   0.09596   0.12889   0.00000  Uiso   1.00
C25    C     0.15398   0.12211   0.20444   0.00000  Uiso   1.00
C26    C     0.37195   0.40400   0.12885   0.00000  Uiso   1.00
C27    C     0.09289   0.34293   0.16666   0.00000  Uiso   1.00
C28    C     0.40711   0.15707   0.16666   0.00000  Uiso   1.00
C29    C     0.40711   0.34293   0.16667   0.00000  Uiso   1.00
C30    C     0.09289   0.15707   0.16667   0.00000  Uiso   1.00
C31    C     0.34289   0.09293   0.16667   0.00000  Uiso   1.00
C32    C     0.15711   0.40707   0.16667   0.00000  Uiso   1.00
C33    C     0.15711   0.09293   0.16666   0.00000  Uiso   1.00
C34    C     0.05944   0.30948   0.16667   0.00000  Uiso   1.00
C35    C     0.34289   0.40707   0.16666   0.00000  Uiso   1.00
C36    C     0.30944   0.44052   0.16667   0.00000  Uiso   1.00
C37    C     0.19056   0.05948   0.16667   0.00000  Uiso   1.00
C38    C     0.19056   0.44052   0.16667   0.00000  Uiso   1.00
C39    C     0.30944   0.05948   0.16667   0.00000  Uiso   1.00
C40    C     0.49998   0.21161   0.02481   0.00000  Uiso   1.00
Cu41   Cu    0.00000   0.25000   0.21355   0.00000  Uiso   1.00
Cu42   Cu    0.00000   0.25000   0.11978   0.00000  Uiso   1.00
Cu43   Cu    0.25000  -0.00000   0.21355   0.00000  Uiso   1.00
Cu44   Cu    0.25000  -0.00000   0.11978   0.00000  Uiso   1.00
F45    F     0.37990   0.18243   0.09235   0.00000  Uiso   1.00
F46    F     0.37010   0.06757   0.24099   0.00000  Uiso   1.00
F47    F     0.31770   0.12035   0.09238   0.00000  Uiso   1.00
F48    F     0.12985   0.43249   0.24094   0.00000  Uiso   1.00
F49    F     0.31758   0.37954   0.24085   0.00000  Uiso   1.00
F50    F     0.12970   0.06736   0.09253   0.00000  Uiso   1.00
F51    F     0.18251   0.12054   0.24078   0.00000  Uiso   1.00
F52    F     0.37021   0.43255   0.09245   0.00000  Uiso   1.00
F53    F     0.06764   0.37040   0.24091   0.00000  Uiso   1.00
F54    F     0.12016   0.31751   0.09239   0.00000  Uiso   1.00
F55    F     0.43230   0.12965   0.24096   0.00000  Uiso   1.00
F56    F     0.12030   0.18264   0.24081   0.00000  Uiso   1.00
F57    F     0.43242   0.37046   0.09248   0.00000  Uiso   1.00
F58    F     0.37979   0.31745   0.24088   0.00000  Uiso   1.00
F59    F     0.06749   0.12946   0.09256   0.00000  Uiso   1.00
F60    F     0.18236   0.37960   0.09242   0.00000  Uiso   1.00
H61    H     0.49994   0.18086   0.04351   0.00000  Uiso   1.00
H62    H     0.49994   0.31914   0.28983   0.00000  Uiso   1.00
H63    H     0.00006   0.31914   0.04350   0.00000  Uiso   1.00
H64    H     0.00007   0.18086   0.28983   0.00000  Uiso   1.00
H65    H     0.25007   0.43086   0.04351   0.00000  Uiso   1.00
H66    H     0.25006   0.06914   0.28983   0.00000  Uiso   1.00
H67    H     0.24994   0.06914   0.04350   0.00000  Uiso   1.00
H68    H     0.24994   0.43086   0.28983   0.00000  Uiso   1.00
N69    N     0.00000   0.25000   0.28402   0.00000  Uiso   1.00
N70    N     0.00000   0.25000   0.04931   0.00000  Uiso   1.00
N71    N     0.25000  -0.00000   0.28402   0.00000  Uiso   1.00
N72    N     0.25000  -0.00000   0.04931   0.00000  Uiso   1.00
O73    O     0.04509   0.20491   0.20625   0.00000  Uiso   1.00
O74    O     0.20492   0.04509   0.12709   0.00000  Uiso   1.00
O75    O     0.20492   0.04509   0.20625   0.00000  Uiso   1.00
O76    O     0.29509   0.45491   0.12709   0.00000  Uiso   1.00
O77    O     0.20492   0.45491   0.12709   0.00000  Uiso   1.00
O78    O     0.29509   0.04509   0.20625   0.00000  Uiso   1.00
O79    O     0.29509   0.04509   0.12709   0.00000  Uiso   1.00
O80    O     0.20492   0.45491   0.20625   0.00000  Uiso   1.00
O81    O     0.45492   0.29509   0.12709   0.00000  Uiso   1.00
O82    O     0.45492   0.29509   0.20625   0.00000  Uiso   1.00
O83    O     0.04509   0.20491   0.12709   0.00000  Uiso   1.00
O84    O     0.45492   0.20491   0.12709   0.00000  Uiso   1.00
O85    O     0.04509   0.29509   0.20625   0.00000  Uiso   1.00
O86    O     0.04509   0.29509   0.12709   0.00000  Uiso   1.00
O87    O     0.45492   0.20491   0.20625   0.00000  Uiso   1.00
O88    O     0.29509   0.45491   0.20625   0.00000  Uiso   1.00
C89    C     0.55944   0.19052   0.16667   0.00000  Uiso   1.00
C90    C     0.99998   0.28839   0.30853   0.00000  Uiso   1.00
C91    C     0.50002   0.28839   0.02481   0.00000  Uiso   1.00
C92    C     0.50002   0.21161   0.30853   0.00000  Uiso   1.00
C93    C     0.75002   0.46161   0.02481   0.00000  Uiso   1.00
C94    C     0.75002   0.03839   0.30853   0.00000  Uiso   1.00
C95    C     0.74998   0.03839   0.02481   0.00000  Uiso   1.00
C96    C     0.74998   0.46161   0.30853   0.00000  Uiso   1.00
C97    C     0.87811   0.15394   0.12880   0.00000  Uiso   1.00
C98    C     0.59610   0.37204   0.20450   0.00000  Uiso   1.00
C99    C     0.62192   0.34603   0.12882   0.00000  Uiso   1.00
C100   C     0.94056   0.30948   0.16667   0.00000  Uiso   1.00
C101   C     0.90387   0.12799   0.20452   0.00000  Uiso   1.00
C102   C     0.62200   0.15404   0.20445   0.00000  Uiso   1.00
C103   C     0.90393   0.37207   0.12886   0.00000  Uiso   1.00
C104   C     0.87805   0.34600   0.20448   0.00000  Uiso   1.00
C105   C     0.59602   0.12789   0.12890   0.00000  Uiso   1.00
C106   C     0.65390   0.37796   0.12883   0.00000  Uiso   1.00
C107   C     0.87190   0.09606   0.20453   0.00000  Uiso   1.00
C108   C     0.84613   0.12201   0.12881   0.00000  Uiso   1.00
C109   C     0.62808   0.40397   0.20451   0.00000  Uiso   1.00
C110   C     0.84607   0.37793   0.20447   0.00000  Uiso   1.00
C111   C     0.94056   0.19052   0.16667   0.00000  Uiso   1.00
C112   C     0.62800   0.09596   0.12889   0.00000  Uiso   1.00
C113   C     0.65398   0.12211   0.20444   0.00000  Uiso   1.00
C114   C     0.87195   0.40400   0.12885   0.00000  Uiso   1.00
C115   C     0.59289   0.34293   0.16666   0.00000  Uiso   1.00
C116   C     0.90711   0.15707   0.16666   0.00000  Uiso   1.00
C117   C     0.90711   0.34293   0.16667   0.00000  Uiso   1.00
C118   C     0.59289   0.15707   0.16667   0.00000  Uiso   1.00
C119   C     0.84289   0.09293   0.16667   0.00000  Uiso   1.00
C120   C     0.65711   0.40707   0.16667   0.00000  Uiso   1.00
C121   C     0.65711   0.09293   0.16666   0.00000  Uiso   1.00
C122   C     0.55944   0.30948   0.16667   0.00000  Uiso   1.00
C123   C     0.84289   0.40707   0.16666   0.00000  Uiso   1.00
C124   C     0.80944   0.44052   0.16667   0.00000  Uiso   1.00
C125   C     0.69056   0.05948   0.16667   0.00000  Uiso   1.00
C126   C     0.69056   0.44052   0.16667   0.00000  Uiso   1.00
C127   C     0.80944   0.05948   0.16667   0.00000  Uiso   1.00
C128   C     0.99998   0.21161   0.02481   0.00000  Uiso   1.00
Cu129  Cu    0.50000   0.25000   0.21355   0.00000  Uiso   1.00
Cu130  Cu    0.50000   0.25000   0.11978   0.00000  Uiso   1.00
Cu131  Cu    0.75000  -0.00000   0.21355   0.00000  Uiso   1.00
Cu132  Cu    0.75000  -0.00000   0.11978   0.00000  Uiso   1.00
F133   F     0.87990   0.18243   0.09235   0.00000  Uiso   1.00
F134   F     0.87010   0.06757   0.24099   0.00000  Uiso   1.00
F135   F     0.81770   0.12035   0.09238   0.00000  Uiso   1.00
F136   F     0.62985   0.43249   0.24094   0.00000  Uiso   1.00
F137   F     0.81758   0.37954   0.24085   0.00000  Uiso   1.00
F138   F     0.62970   0.06736   0.09253   0.00000  Uiso   1.00
F139   F     0.68251   0.12054   0.24078   0.00000  Uiso   1.00
F140   F     0.87021   0.43255   0.09245   0.00000  Uiso   1.00
F141   F     0.56764   0.37040   0.24091   0.00000  Uiso   1.00
F142   F     0.62016   0.31751   0.09239   0.00000  Uiso   1.00
F143   F     0.93230   0.12965   0.24096   0.00000  Uiso   1.00
F144   F     0.62030   0.18264   0.24081   0.00000  Uiso   1.00
F145   F     0.93242   0.37046   0.09248   0.00000  Uiso   1.00
F146   F     0.87979   0.31745   0.24088   0.00000  Uiso   1.00
F147   F     0.56749   0.12946   0.09256   0.00000  Uiso   1.00
F148   F     0.68236   0.37960   0.09242   0.00000  Uiso   1.00
H149   H     0.99994   0.18086   0.04351   0.00000  Uiso   1.00
H150   H     0.99994   0.31914   0.28983   0.00000  Uiso   1.00
H151   H     0.50006   0.31914   0.04350   0.00000  Uiso   1.00
H152   H     0.50007   0.18086   0.28983   0.00000  Uiso   1.00
H153   H     0.75007   0.43086   0.04351   0.00000  Uiso   1.00
H154   H     0.75006   0.06914   0.28983   0.00000  Uiso   1.00
H155   H     0.74994   0.06914   0.04350   0.00000  Uiso   1.00
H156   H     0.74994   0.43086   0.28983   0.00000  Uiso   1.00
N157   N     0.50000   0.25000   0.28402   0.00000  Uiso   1.00
N158   N     0.50000   0.25000   0.04931   0.00000  Uiso   1.00
N159   N     0.75000  -0.00000   0.28402   0.00000  Uiso   1.00
N160   N     0.75000  -0.00000   0.04931   0.00000  Uiso   1.00
O161   O     0.54509   0.20491   0.20625   0.00000  Uiso   1.00
O162   O     0.70492   0.04509   0.12709   0.00000  Uiso   1.00
O163   O     0.70492   0.04509   0.20625   0.00000  Uiso   1.00
O164   O     0.79509   0.45491   0.12709   0.00000  Uiso   1.00
O165   O     0.70492   0.45491   0.12709   0.00000  Uiso   1.00
O166   O     0.79509   0.04509   0.20625   0.00000  Uiso   1.00
O167   O     0.79509   0.04509   0.12709   0.00000  Uiso   1.00
O168   O     0.70492   0.45491   0.20625   0.00000  Uiso   1.00
O169   O     0.95492   0.29509   0.12709   0.00000  Uiso   1.00
O170   O     0.95492   0.29509   0.20625   0.00000  Uiso   1.00
O171   O     0.54509   0.20491   0.12709   0.00000  Uiso   1.00
O172   O     0.95492   0.20491   0.12709   0.00000  Uiso   1.00
O173   O     0.54509   0.29509   0.20625   0.00000  Uiso   1.00
O174   O     0.54509   0.29509   0.12709   0.00000  Uiso   1.00
O175   O     0.95492   0.20491   0.20625   0.00000  Uiso   1.00
O176   O     0.79509   0.45491   0.20625   0.00000  Uiso   1.00
C177   C     0.05944   0.69052   0.16667   0.00000  Uiso   1.00
C178   C     0.49998   0.78839   0.30853   0.00000  Uiso   1.00
C179   C     0.00002   0.78839   0.02481   0.00000  Uiso   1.00
C180   C     0.00002   0.71161   0.30853   0.00000  Uiso   1.00
C181   C     0.25002   0.96161   0.02481   0.00000  Uiso   1.00
C182   C     0.25002   0.53839   0.30853   0.00000  Uiso   1.00
C183   C     0.24998   0.53839   0.02481   0.00000  Uiso   1.00
C184   C     0.24998   0.96161   0.30853   0.00000  Uiso   1.00
C185   C     0.37811   0.65394   0.12880   0.00000  Uiso   1.00
C186   C     0.09610   0.87204   0.20450   0.00000  Uiso   1.00
C187   C     0.12192   0.84603   0.12882   0.00000  Uiso   1.00
C188   C     0.44056   0.80948   0.16667   0.00000  Uiso   1.00
C189   C     0.40387   0.62799   0.20452   0.00000  Uiso   1.00
C190   C     0.12200   0.65404   0.20445   0.00000  Uiso   1.00
C191   C     0.40393   0.87207   0.12886   0.00000  Uiso   1.00
C192   C     0.37805   0.84600   0.20448   0.00000  Uiso   1.00
C193   C     0.09602   0.62789   0.12890   0.00000  Uiso   1.00
C194   C     0.15390   0.87796   0.12883   0.00000  Uiso   1.00
C195   C     0.37190   0.59606   0.20453   0.00000  Uiso   1.00
C196   C     0.34613   0.62201   0.12881   0.00000  Uiso   1.00
C197   C     0.12808   0.90397   0.20451   0.00000  Uiso   1.00
C198   C     0.34607   0.87793   0.20447   0.00000  Uiso   1.00
C199   C     0.44056   0.69052   0.16667   0.00000  Uiso   1.00
C200   C     0.12800   0.59596   0.12889   0.00000  Uiso   1.00
C201   C     0.15398   0.62211   0.20444   0.00000  Uiso   1.00
C202   C     0.37195   0.90400   0.12885   0.00000  Uiso   1.00
C203   C     0.09289   0.84293   0.16666   0.00000  Uiso   1.00
C204   C     0.40711   0.65707   0.16666   0.00000  Uiso   1.00
C205   C     0.40711   0.84293   0.16667   0.00000  Uiso   1.00
C206   C     0.09289   0.65707   0.16667   0.00000  Uiso   1.00
C207   C     0.34289   0.59293   0.16667   0.00000  Uiso   1.00
C208   C     0.15711   0.90707   0.16667   0.00000  Uiso   1.00
C209   C     0.15711   0.59293   0.16666   0.00000  Uiso   1.00
C210   C     0.05944   0.80948   0.16667   0.00000  Uiso   1.00
C211   C     0.34289   0.90707   0.16666   0.00000  Uiso   1.00
C212   C     0.30944   0.94052   0.16667   0.00000  Uiso   1.00
C213   C     0.19056   0.55948   0.16667   0.00000  Uiso   1.00
C214   C     0.19056   0.94052   0.16667   0.00000  Uiso   1.00
C215   C     0.30944   0.55948   0.16667   0.00000  Uiso   1.00
C216   C     0.49998   0.71161   0.02481   0.00000  Uiso   1.00
Cu217  Cu    0.00000   0.75000   0.21355   0.00000  Uiso   1.00
Cu218  Cu    0.00000   0.75000   0.11978   0.00000  Uiso   1.00
Cu219  Cu    0.25000   0.50000   0.21355   0.00000  Uiso   1.00
Cu220  Cu    0.25000   0.50000   0.11978   0.00000  Uiso   1.00
F221   F     0.37990   0.68243   0.09235   0.00000  Uiso   1.00
F222   F     0.37010   0.56757   0.24099   0.00000  Uiso   1.00
F223   F     0.31770   0.62035   0.09238   0.00000  Uiso   1.00
F224   F     0.12985   0.93249   0.24094   0.00000  Uiso   1.00
F225   F     0.31758   0.87954   0.24085   0.00000  Uiso   1.00
F226   F     0.12970   0.56736   0.09253   0.00000  Uiso   1.00
F227   F     0.18251   0.62054   0.24078   0.00000  Uiso   1.00
F228   F     0.37021   0.93255   0.09245   0.00000  Uiso   1.00
F229   F     0.06764   0.87040   0.24091   0.00000  Uiso   1.00
F230   F     0.12016   0.81751   0.09239   0.00000  Uiso   1.00
F231   F     0.43230   0.62965   0.24096   0.00000  Uiso   1.00
F232   F     0.12030   0.68264   0.24081   0.00000  Uiso   1.00
F233   F     0.43242   0.87046   0.09248   0.00000  Uiso   1.00
F234   F     0.37979   0.81745   0.24088   0.00000  Uiso   1.00
F235   F     0.06749   0.62946   0.09256   0.00000  Uiso   1.00
F236   F     0.18236   0.87960   0.09242   0.00000  Uiso   1.00
H237   H     0.49994   0.68086   0.04351   0.00000  Uiso   1.00
H238   H     0.49994   0.81914   0.28983   0.00000  Uiso   1.00
H239   H     0.00006   0.81914   0.04350   0.00000  Uiso   1.00
H240   H     0.00007   0.68086   0.28983   0.00000  Uiso   1.00
H241   H     0.25007   0.93086   0.04351   0.00000  Uiso   1.00
H242   H     0.25006   0.56914   0.28983   0.00000  Uiso   1.00
H243   H     0.24994   0.56914   0.04350   0.00000  Uiso   1.00
H244   H     0.24994   0.93086   0.28983   0.00000  Uiso   1.00
N245   N     0.00000   0.75000   0.28402   0.00000  Uiso   1.00
N246   N     0.00000   0.75000   0.04931   0.00000  Uiso   1.00
N247   N     0.25000   0.50000   0.28402   0.00000  Uiso   1.00
N248   N     0.25000   0.50000   0.04931   0.00000  Uiso   1.00
O249   O     0.04509   0.70491   0.20625   0.00000  Uiso   1.00
O250   O     0.20492   0.54509   0.12709   0.00000  Uiso   1.00
O251   O     0.20492   0.54509   0.20625   0.00000  Uiso   1.00
O252   O     0.29509   0.95491   0.12709   0.00000  Uiso   1.00
O253   O     0.20492   0.95491   0.12709   0.00000  Uiso   1.00
O254   O     0.29509   0.54509   0.20625   0.00000  Uiso   1.00
O255   O     0.29509   0.54509   0.12709   0.00000  Uiso   1.00
O256   O     0.20492   0.95491   0.20625   0.00000  Uiso   1.00
O257   O     0.45492   0.79509   0.12709   0.00000  Uiso   1.00
O258   O     0.45492   0.79509   0.20625   0.00000  Uiso   1.00
O259   O     0.04509   0.70491   0.12709   0.00000  Uiso   1.00
O260   O     0.45492   0.70491   0.12709   0.00000  Uiso   1.00
O261   O     0.04509   0.79509   0.20625   0.00000  Uiso   1.00
O262   O     0.04509   0.79509   0.12709   0.00000  Uiso   1.00
O263   O     0.45492   0.70491   0.20625   0.00000  Uiso   1.00
O264   O     0.29509   0.95491   0.20625   0.00000  Uiso   1.00
C265   C     0.55944   0.69052   0.16667   0.00000  Uiso   1.00
C266   C     0.99998   0.78839   0.30853   0.00000  Uiso   1.00
C267   C     0.50002   0.78839   0.02481   0.00000  Uiso   1.00
C268   C     0.50002   0.71161   0.30853   0.00000  Uiso   1.00
C269   C     0.75002   0.96161   0.02481   0.00000  Uiso   1.00
C270   C     0.75002   0.53839   0.30853   0.00000  Uiso   1.00
C271   C     0.74998   0.53839   0.02481   0.00000  Uiso   1.00
C272   C     0.74998   0.96161   0.30853   0.00000  Uiso   1.00
C273   C     0.87811   0.65394   0.12880   0.00000  Uiso   1.00
C274   C     0.59610   0.87204   0.20450   0.00000  Uiso   1.00
C275   C     0.62192   0.84603   0.12882   0.00000  Uiso   1.00
C276   C     0.94056   0.80948   0.16667   0.00000  Uiso   1.00
C277   C     0.90387   0.62799   0.20452   0.00000  Uiso   1.00
C278   C     0.62200   0.65404   0.20445   0.00000  Uiso   1.00
C279   C     0.90393   0.87207   0.12886   0.00000  Uiso   1.00
C280   C     0.87805   0.84600   0.20448   0.00000  Uiso   1.00
C281   C     0.59602   0.62789   0.12890   0.00000  Uiso   1.00
C282   C     0.65390   0.87796   0.12883   0.00000  Uiso   1.00
C283   C     0.87190   0.59606   0.20453   0.00000  Uiso   1.00
C284   C     0.84613   0.62201   0.12881   0.00000  Uiso   1.00
C285   C     0.62808   0.90397   0.20451   0.00000  Uiso   1.00
C286   C     0.84607   0.87793   0.20447   0.00000  Uiso   1.00
C287   C     0.94056   0.69052   0.16667   0.00000  Uiso   1.00
C288   C     0.62800   0.59596   0.12889   0.00000  Uiso   1.00
C289   C     0.65398   0.62211   0.20444   0.00000  Uiso   1.00
C290   C     0.87195   0.90400   0.12885   0.00000  Uiso   1.00
C291   C     0.59289   0.84293   0.16666   0.00000  Uiso   1.00
C292   C     0.90711   0.65707   0.16666   0.00000  Uiso   1.00
C293   C     0.90711   0.84293   0.16667   0.00000  Uiso   1.00
C294   C     0.59289   0.65707   0.16667   0.00000  Uiso   1.00
C295   C     0.84289   0.59293   0.16667   0.00000  Uiso   1.00
C296   C     0.65711   0.90707   0.16667   0.00000  Uiso   1.00
C297   C     0.65711   0.59293   0.16666   0.00000  Uiso   1.00
C298   C     0.55944   0.80948   0.16667   0.00000  Uiso   1.00
C299   C     0.84289   0.90707   0.16666   0.00000  Uiso   1.00
C300   C     0.80944   0.94052   0.16667   0.00000  Uiso   1.00
C301   C     0.69056   0.55948   0.16667   0.00000  Uiso   1.00
C302   C     0.69056   0.94052   0.16667   0.00000  Uiso   1.00
C303   C     0.80944   0.55948   0.16667   0.00000  Uiso   1.00
C304   C     0.99998   0.71161   0.02481   0.00000  Uiso   1.00
Cu305  Cu    0.50000   0.75000   0.21355   0.00000  Uiso   1.00
Cu306  Cu    0.50000   0.75000   0.11978   0.00000  Uiso   1.00
Cu307  Cu    0.75000   0.50000   0.21355   0.00000  Uiso   1.00
Cu308  Cu    0.75000   0.50000   0.11978   0.00000  Uiso   1.00
F309   F     0.87990   0.68243   0.09235   0.00000  Uiso   1.00
F310   F     0.87010   0.56757   0.24099   0.00000  Uiso   1.00
F311   F     0.81770   0.62035   0.09238   0.00000  Uiso   1.00
F312   F     0.62985   0.93249   0.24094   0.00000  Uiso   1.00
F313   F     0.81758   0.87954   0.24085   0.00000  Uiso   1.00
F314   F     0.62970   0.56736   0.09253   0.00000  Uiso   1.00
F315   F     0.68251   0.62054   0.24078   0.00000  Uiso   1.00
F316   F     0.87021   0.93255   0.09245   0.00000  Uiso   1.00
F317   F     0.56764   0.87040   0.24091   0.00000  Uiso   1.00
F318   F     0.62016   0.81751   0.09239   0.00000  Uiso   1.00
F319   F     0.93230   0.62965   0.24096   0.00000  Uiso   1.00
F320   F     0.62030   0.68264   0.24081   0.00000  Uiso   1.00
F321   F     0.93242   0.87046   0.09248   0.00000  Uiso   1.00
F322   F     0.87979   0.81745   0.24088   0.00000  Uiso   1.00
F323   F     0.56749   0.62946   0.09256   0.00000  Uiso   1.00
F324   F     0.68236   0.87960   0.09242   0.00000  Uiso   1.00
H325   H     0.99994   0.68086   0.04351   0.00000  Uiso   1.00
H326   H     0.99994   0.81914   0.28983   0.00000  Uiso   1.00
H327   H     0.50006   0.81914   0.04350   0.00000  Uiso   1.00
H328   H     0.50007   0.68086   0.28983   0.00000  Uiso   1.00
H329   H     0.75007   0.93086   0.04351   0.00000  Uiso   1.00
H330   H     0.75006   0.56914   0.28983   0.00000  Uiso   1.00
H331   H     0.74994   0.56914   0.04350   0.00000  Uiso   1.00
H332   H     0.74994   0.93086   0.28983   0.00000  Uiso   1.00
N333   N     0.50000   0.75000   0.28402   0.00000  Uiso   1.00
N334   N     0.50000   0.75000   0.04931   0.00000  Uiso   1.00
N335   N     0.75000   0.50000   0.28402   0.00000  Uiso   1.00
N336   N     0.75000   0.50000   0.04931   0.00000  Uiso   1.00
O337   O     0.54509   0.70491   0.20625   0.00000  Uiso   1.00
O338   O     0.70492   0.54509   0.12709   0.00000  Uiso   1.00
O339   O     0.70492   0.54509   0.20625   0.00000  Uiso   1.00
O340   O     0.79509   0.95491   0.12709   0.00000  Uiso   1.00
O341   O     0.70492   0.95491   0.12709   0.00000  Uiso   1.00
O342   O     0.79509   0.54509   0.20625   0.00000  Uiso   1.00
O343   O     0.79509   0.54509   0.12709   0.00000  Uiso   1.00
O344   O     0.70492   0.95491   0.20625   0.00000  Uiso   1.00
O345   O     0.95492   0.79509   0.12709   0.00000  Uiso   1.00
O346   O     0.95492   0.79509   0.20625   0.00000  Uiso   1.00
O347   O     0.54509   0.70491   0.12709   0.00000  Uiso   1.00
O348   O     0.95492   0.70491   0.12709   0.00000  Uiso   1.00
O349   O     0.54509   0.79509   0.20625   0.00000  Uiso   1.00
O350   O     0.54509   0.79509   0.12709   0.00000  Uiso   1.00
O351   O     0.95492   0.70491   0.20625   0.00000  Uiso   1.00
O352   O     0.79509   0.95491   0.20625   0.00000  Uiso   1.00
C353   C     0.05944   0.19052   0.50000   0.00000  Uiso   1.00
C354   C     0.49998   0.28839   0.64186   0.00000  Uiso   1.00
C355   C     0.00002   0.28839   0.35814   0.00000  Uiso   1.00
C356   C     0.00002   0.21161   0.64186   0.00000  Uiso   1.00
C357   C     0.25002   0.46161   0.35814   0.00000  Uiso   1.00
C358   C     0.25002   0.03839   0.64186   0.00000  Uiso   1.00
C359   C     0.24998   0.03839   0.35814   0.00000  Uiso   1.00
C360   C     0.24998   0.46161   0.64186   0.00000  Uiso   1.00
C361   C     0.37811   0.15394   0.46214   0.00000  Uiso   1.00
C362   C     0.09610   0.37204   0.53783   0.00000  Uiso   1.00
C363   C     0.12192   0.34603   0.46216   0.00000  Uiso   1.00
C364   C     0.44056   0.30948   0.50000   0.00000  Uiso   1.00
C365   C     0.40387   0.12799   0.53785   0.00000  Uiso   1.00
C366   C     0.12200   0.15404   0.53778   0.00000  Uiso   1.00
C367   C     0.40393   0.37207   0.46220   0.00000  Uiso   1.00
C368   C     0.37805   0.34600   0.53781   0.00000  Uiso   1.00
C369   C     0.09602   0.12789   0.46223   0.00000  Uiso   1.00
C370   C     0.15390   0.37796   0.46217   0.00000  Uiso   1.00
C371   C     0.37190   0.09606   0.53786   0.00000  Uiso   1.00
C372   C     0.34613   0.12201   0.46215   0.00000  Uiso   1.00
C373   C     0.12808   0.40397   0.53784   0.00000  Uiso   1.00
C374   C     0.34607   0.37793   0.53781   0.00000  Uiso   1.00
C375   C     0.44056   0.19052   0.50000   0.00000  Uiso   1.00
C376   C     0.12800   0.09596   0.46222   0.00000  Uiso   1.00
C377   C     0.15398   0.12211   0.53777   0.00000  Uiso   1.00
C378   C     0.37195   0.40400   0.46219   0.00000  Uiso   1.00
C379   C     0.09289   0.34293   0.49999   0.00000  Uiso   1.00
C380   C     0.40711   0.15707   0.49999   0.00000  Uiso   1.00
C381   C     0.40711   0.34293   0.50001   0.00000  Uiso   1.00
C382   C     0.09289   0.15707   0.50001   0.00000  Uiso   1.00
C383   C     0.34289   0.09293   0.50000   0.00000  Uiso   1.00
C384   C     0.15711   0.40707   0.50001   0.00000  Uiso   1.00
C385   C     0.15711   0.09293   0.49999   0.00000  Uiso   1.00
C386   C     0.05944   0.30948   0.50000   0.00000  Uiso   1.00
C387   C     0.34289   0.40707   0.49999   0.00000  Uiso   1.00
C388   C     0.30944   0.44052   0.50000   0.00000  Uiso   1.00
C389   C     0.19056   0.05948   0.50000   0.00000  Uiso   1.00
C390   C     0.19056   0.44052   0.50000   0.00000  Uiso   1.00
C391   C     0.30944   0.05948   0.50000   0.00000  Uiso   1.00
C392   C     0.49998   0.21161   0.35814   0.00000  Uiso   1.00
Cu393  Cu    0.00000   0.25000   0.54689   0.00000  Uiso   1.00
Cu394  Cu    0.00000   0.25000   0.45311   0.00000  Uiso   1.00
Cu395  Cu    0.25000  -0.00000   0.54689   0.00000  Uiso   1.00
Cu396  Cu    0.25000  -0.00000   0.45311   0.00000  Uiso   1.00
F397   F     0.37990   0.18243   0.42568   0.00000  Uiso   1.00
F398   F     0.37010   0.06757   0.57432   0.00000  Uiso   1.00
F399   F     0.31770   0.12035   0.42571   0.00000  Uiso   1.00
F400   F     0.12985   0.43249   0.57427   0.00000  Uiso   1.00
F401   F     0.31758   0.37954   0.57419   0.00000  Uiso   1.00
F402   F     0.12970   0.06736   0.42586   0.00000  Uiso   1.00
F403   F     0.18251   0.12054   0.57411   0.00000  Uiso   1.00
F404   F     0.37021   0.43255   0.42579   0.00000  Uiso   1.00
F405   F     0.06764   0.37040   0.57424   0.00000  Uiso   1.00
F406   F     0.12016   0.31751   0.42573   0.00000  Uiso   1.00
F407   F     0.43230   0.12965   0.57429   0.00000  Uiso   1.00
F408   F     0.12030   0.18264   0.57414   0.00000  Uiso   1.00
F409   F     0.43242   0.37046   0.42581   0.00000  Uiso   1.00
F410   F     0.37979   0.31745   0.57421   0.00000  Uiso   1.00
F411   F     0.06749   0.12946   0.42589   0.00000  Uiso   1.00
F412   F     0.18236   0.37960   0.42576   0.00000  Uiso   1.00
H413   H     0.49994   0.18086   0.37684   0.00000  Uiso   1.00
H414   H     0.49994   0.31914   0.62316   0.00000  Uiso   1.00
H415   H     0.00006   0.31914   0.37684   0.00000  Uiso   1.00
H416   H     0.00007   0.18086   0.62316   0.00000  Uiso   1.00
H417   H     0.25007   0.43086   0.37684   0.00000  Uiso   1.00
H418   H     0.25006   0.06914   0.62316   0.00000  Uiso   1.00
H419   H     0.24994   0.06914   0.37684   0.00000  Uiso   1.00
H420   H     0.24994   0.43086   0.62316   0.00000  Uiso   1.00
N421   N     0.00000   0.25000   0.61736   0.00000  Uiso   1.00
N422   N     0.00000   0.25000   0.38264   0.00000  Uiso   1.00
N423   N     0.25000  -0.00000   0.61736   0.00000  Uiso   1.00
N424   N     0.25000  -0.00000   0.38264   0.00000  Uiso   1.00
O425   O     0.04509   0.20491   0.53958   0.00000  Uiso   1.00
O426   O     0.20492   0.04509   0.46042   0.00000  Uiso   1.00
O427   O     0.20492   0.04509   0.53958   0.00000  Uiso   1.00
O428   O     0.29509   0.45491   0.46042   0.00000  Uiso   1.00
O429   O     0.20492   0.45491   0.46042   0.00000  Uiso   1.00
O430   O     0.29509   0.04509   0.53958   0.00000  Uiso   1.00
O431   O     0.29509   0.04509   0.46042   0.00000  Uiso   1.00
O432   O     0.20492   0.45491   0.53958   0.00000  Uiso   1.00
O433   O     0.45492   0.29509   0.46042   0.00000  Uiso   1.00
O434   O     0.45492   0.29509   0.53958   0.00000  Uiso   1.00
O435   O     0.04509   0.20491   0.46042   0.00000  Uiso   1.00
O436   O     0.45492   0.20491   0.46042   0.00000  Uiso   1.00
O437   O     0.04509   0.29509   0.53958   0.00000  Uiso   1.00
O438   O     0.04509   0.29509   0.46042   0.00000  Uiso   1.00
O439   O     0.45492   0.20491   0.53958   0.00000  Uiso   1.00
O440   O     0.29509   0.45491   0.53958   0.00000  Uiso   1.00
C441   C     0.55944   0.19052   0.50000   0.00000  Uiso   1.00
C442   C     0.99998   0.28839   0.64186   0.00000  Uiso   1.00
C443   C     0.50002   0.28839   0.35814   0.00000  Uiso   1.00
C444   C     0.50002   0.21161   0.64186   0.00000  Uiso   1.00
C445   C     0.75002   0.46161   0.35814   0.00000  Uiso   1.00
C446   C     0.75002   0.03839   0.64186   0.00000  Uiso   1.00
C447   C     0.74998   0.03839   0.35814   0.00000  Uiso   1.00
C448   C     0.74998   0.46161   0.64186   0.00000  Uiso   1.00
C449   C     0.87811   0.15394   0.46214   0.00000  Uiso   1.00
C450   C     0.59610   0.37204   0.53783   0.00000  Uiso   1.00
C451   C     0.62192   0.34603   0.46216   0.00000  Uiso   1.00
C452   C     0.94056   0.30948   0.50000   0.00000  Uiso   1.00
C453   C     0.90387   0.12799   0.53785   0.00000  Uiso   1.00
C454   C     0.62200   0.15404   0.53778   0.00000  Uiso   1.00
C455   C     0.90393   0.37207   0.46220   0.00000  Uiso   1.00
C456   C     0.87805   0.34600   0.53781   0.00000  Uiso   1.00
C457   C     0.59602   0.12789   0.46223   0.00000  Uiso   1.00
C458   C     0.65390   0.37796   0.46217   0.00000  Uiso   1.00
C459   C     0.87190   0.09606   0.53786   0.00000  Uiso   1.00
C460   C     0.84613   0.12201   0.46215   0.00000  Uiso   1.00
C461   C     0.62808   0.40397   0.53784   0.00000  Uiso   1.00
C462   C     0.84607   0.37793   0.53781   0.00000  Uiso   1.00
C463   C     0.94056   0.19052   0.50000   0.00000  Uiso   1.00
C464   C     0.62800   0.09596   0.46222   0.00000  Uiso   1.00
C465   C     0.65398   0.12211   0.53777   0.00000  Uiso   1.00
C466   C     0.87195   0.40400   0.46219   0.00000  Uiso   1.00
C467   C     0.59289   0.34293   0.49999   0.00000  Uiso   1.00
C468   C     0.90711   0.15707   0.49999   0.00000  Uiso   1.00
C469   C     0.90711   0.34293   0.50001   0.00000  Uiso   1.00
C470   C     0.59289   0.15707   0.50001   0.00000  Uiso   1.00
C471   C     0.84289   0.09293   0.50000   0.00000  Uiso   1.00
C472   C     0.65711   0.40707   0.50001   0.00000  Uiso   1.00
C473   C     0.65711   0.09293   0.49999   0.00000  Uiso   1.00
C474   C     0.55944   0.30948   0.50000   0.00000  Uiso   1.00
C475   C     0.84289   0.40707   0.49999   0.00000  Uiso   1.00
C476   C     0.80944   0.44052   0.50000   0.00000  Uiso   1.00
C477   C     0.69056   0.05948   0.50000   0.00000  Uiso   1.00
C478   C     0.69056   0.44052   0.50000   0.00000  Uiso   1.00
C479   C     0.80944   0.05948   0.50000   0.00000  Uiso   1.00
C480   C     0.99998   0.21161   0.35814   0.00000  Uiso   1.00
Cu481  Cu    0.50000   0.25000   0.54689   0.00000  Uiso   1.00
Cu482  Cu    0.50000   0.25000   0.45311   0.00000  Uiso   1.00
Cu483  Cu    0.75000  -0.00000   0.54689   0.00000  Uiso   1.00
Cu484  Cu    0.75000  -0.00000   0.45311   0.00000  Uiso   1.00
F485   F     0.87990   0.18243   0.42568   0.00000  Uiso   1.00
F486   F     0.87010   0.06757   0.57432   0.00000  Uiso   1.00
F487   F     0.81770   0.12035   0.42571   0.00000  Uiso   1.00
F488   F     0.62985   0.43249   0.57427   0.00000  Uiso   1.00
F489   F     0.81758   0.37954   0.57419   0.00000  Uiso   1.00
F490   F     0.62970   0.06736   0.42586   0.00000  Uiso   1.00
F491   F     0.68251   0.12054   0.57411   0.00000  Uiso   1.00
F492   F     0.87021   0.43255   0.42579   0.00000  Uiso   1.00
F493   F     0.56764   0.37040   0.57424   0.00000  Uiso   1.00
F494   F     0.62016   0.31751   0.42573   0.00000  Uiso   1.00
F495   F     0.93230   0.12965   0.57429   0.00000  Uiso   1.00
F496   F     0.62030   0.18264   0.57414   0.00000  Uiso   1.00
F497   F     0.93242   0.37046   0.42581   0.00000  Uiso   1.00
F498   F     0.87979   0.31745   0.57421   0.00000  Uiso   1.00
F499   F     0.56749   0.12946   0.42589   0.00000  Uiso   1.00
F500   F     0.68236   0.37960   0.42576   0.00000  Uiso   1.00
H501   H     0.99994   0.18086   0.37684   0.00000  Uiso   1.00
H502   H     0.99994   0.31914   0.62316   0.00000  Uiso   1.00
H503   H     0.50006   0.31914   0.37684   0.00000  Uiso   1.00
H504   H     0.50007   0.18086   0.62316   0.00000  Uiso   1.00
H505   H     0.75007   0.43086   0.37684   0.00000  Uiso   1.00
H506   H     0.75006   0.06914   0.62316   0.00000  Uiso   1.00
H507   H     0.74994   0.06914   0.37684   0.00000  Uiso   1.00
H508   H     0.74994   0.43086   0.62316   0.00000  Uiso   1.00
N509   N     0.50000   0.25000   0.61736   0.00000  Uiso   1.00
N510   N     0.50000   0.25000   0.38264   0.00000  Uiso   1.00
N511   N     0.75000  -0.00000   0.61736   0.00000  Uiso   1.00
N512   N     0.75000  -0.00000   0.38264   0.00000  Uiso   1.00
O513   O     0.54509   0.20491   0.53958   0.00000  Uiso   1.00
O514   O     0.70492   0.04509   0.46042   0.00000  Uiso   1.00
O515   O     0.70492   0.04509   0.53958   0.00000  Uiso   1.00
O516   O     0.79509   0.45491   0.46042   0.00000  Uiso   1.00
O517   O     0.70492   0.45491   0.46042   0.00000  Uiso   1.00
O518   O     0.79509   0.04509   0.53958   0.00000  Uiso   1.00
O519   O     0.79509   0.04509   0.46042   0.00000  Uiso   1.00
O520   O     0.70492   0.45491   0.53958   0.00000  Uiso   1.00
O521   O     0.95492   0.29509   0.46042   0.00000  Uiso   1.00
O522   O     0.95492   0.29509   0.53958   0.00000  Uiso   1.00
O523   O     0.54509   0.20491   0.46042   0.00000  Uiso   1.00
O524   O     0.95492   0.20491   0.46042   0.00000  Uiso   1.00
O525   O     0.54509   0.29509   0.53958   0.00000  Uiso   1.00
O526   O     0.54509   0.29509   0.46042   0.00000  Uiso   1.00
O527   O     0.95492   0.20491   0.53958   0.00000  Uiso   1.00
O528   O     0.79509   0.45491   0.53958   0.00000  Uiso   1.00
C529   C     0.05944   0.69052   0.50000   0.00000  Uiso   1.00
C530   C     0.49998   0.78839   0.64186   0.00000  Uiso   1.00
C531   C     0.00002   0.78839   0.35814   0.00000  Uiso   1.00
C532   C     0.00002   0.71161   0.64186   0.00000  Uiso   1.00
C533   C     0.25002   0.96161   0.35814   0.00000  Uiso   1.00
C534   C     0.25002   0.53839   0.64186   0.00000  Uiso   1.00
C535   C     0.24998   0.53839   0.35814   0.00000  Uiso   1.00
C536   C     0.24998   0.96161   0.64186   0.00000  Uiso   1.00
C537   C     0.37811   0.65394   0.46214   0.00000  Uiso   1.00
C538   C     0.09610   0.87204   0.53783   0.00000  Uiso   1.00
C539   C     0.12192   0.84603   0.46216   0.00000  Uiso   1.00
C540   C     0.44056   0.80948   0.50000   0.00000  Uiso   1.00
C541   C     0.40387   0.62799   0.53785   0.00000  Uiso   1.00
C542   C     0.12200   0.65404   0.53778   0.00000  Uiso   1.00
C543   C     0.40393   0.87207   0.46220   0.00000  Uiso   1.00
C544   C     0.37805   0.84600   0.53781   0.00000  Uiso   1.00
C545   C     0.09602   0.62789   0.46223   0.00000  Uiso   1.00
C546   C     0.15390   0.87796   0.46217   0.00000  Uiso   1.00
C547   C     0.37190   0.59606   0.53786   0.00000  Uiso   1.00
C548   C     0.34613   0.62201   0.46215   0.00000  Uiso   1.00
C549   C     0.12808   0.90397   0.53784   0.00000  Uiso   1.00
C550   C     0.34607   0.87793   0.53781   0.00000  Uiso   1.00
C551   C     0.44056   0.69052   0.50000   0.00000  Uiso   1.00
C552   C     0.12800   0.59596   0.46222   0.00000  Uiso   1.00
C553   C     0.15398   0.62211   0.53777   0.00000  Uiso   1.00
C554   C     0.37195   0.90400   0.46219   0.00000  Uiso   1.00
C555   C     0.09289   0.84293   0.49999   0.00000  Uiso   1.00
C556   C     0.40711   0.65707   0.49999   0.00000  Uiso   1.00
C557   C     0.40711   0.84293   0.50001   0.00000  Uiso   1.00
C558   C     0.09289   0.65707   0.50001   0.00000  Uiso   1.00
C559   C     0.34289   0.59293   0.50000   0.00000  Uiso   1.00
C560   C     0.15711   0.90707   0.50001   0.00000  Uiso   1.00
C561   C     0.15711   0.59293   0.49999   0.00000  Uiso   1.00
C562   C     0.05944   0.80948   0.50000   0.00000  Uiso   1.00
C563   C     0.34289   0.90707   0.49999   0.00000  Uiso   1.00
C564   C     0.30944   0.94052   0.50000   0.00000  Uiso   1.00
C565   C     0.19056   0.55948   0.50000   0.00000  Uiso   1.00
C566   C     0.19056   0.94052   0.50000   0.00000  Uiso   1.00
C567   C     0.30944   0.55948   0.50000   0.00000  Uiso   1.00
C568   C     0.49998   0.71161   0.35814   0.00000  Uiso   1.00
Cu569  Cu    0.00000   0.75000   0.54689   0.00000  Uiso   1.00
Cu570  Cu    0.00000   0.75000   0.45311   0.00000  Uiso   1.00
Cu571  Cu    0.25000   0.50000   0.54689   0.00000  Uiso   1.00
Cu572  Cu    0.25000   0.50000   0.45311   0.00000  Uiso   1.00
F573   F     0.37990   0.68243   0.42568   0.00000  Uiso   1.00
F574   F     0.37010   0.56757   0.57432   0.00000  Uiso   1.00
F575   F     0.31770   0.62035   0.42571   0.00000  Uiso   1.00
F576   F     0.12985   0.93249   0.57427   0.00000  Uiso   1.00
F577   F     0.31758   0.87954   0.57419   0.00000  Uiso   1.00
F578   F     0.12970   0.56736   0.42586   0.00000  Uiso   1.00
F579   F     0.18251   0.62054   0.57411   0.00000  Uiso   1.00
F580   F     0.37021   0.93255   0.42579   0.00000  Uiso   1.00
F581   F     0.06764   0.87040   0.57424   0.00000  Uiso   1.00
F582   F     0.12016   0.81751   0.42573   0.00000  Uiso   1.00
F583   F     0.43230   0.62965   0.57429   0.00000  Uiso   1.00
F584   F     0.12030   0.68264   0.57414   0.00000  Uiso   1.00
F585   F     0.43242   0.87046   0.42581   0.00000  Uiso   1.00
F586   F     0.37979   0.81745   0.57421   0.00000  Uiso   1.00
F587   F     0.06749   0.62946   0.42589   0.00000  Uiso   1.00
F588   F     0.18236   0.87960   0.42576   0.00000  Uiso   1.00
H589   H     0.49994   0.68086   0.37684   0.00000  Uiso   1.00
H590   H     0.49994   0.81914   0.62316   0.00000  Uiso   1.00
H591   H     0.00006   0.81914   0.37684   0.00000  Uiso   1.00
H592   H     0.00007   0.68086   0.62316   0.00000  Uiso   1.00
H593   H     0.25007   0.93086   0.37684   0.00000  Uiso   1.00
H594   H     0.25006   0.56914   0.62316   0.00000  Uiso   1.00
H595   H     0.24994   0.56914   0.37684   0.00000  Uiso   1.00
H596   H     0.24994   0.93086   0.62316   0.00000  Uiso   1.00
N597   N     0.00000   0.75000   0.61736   0.00000  Uiso   1.00
N598   N     0.00000   0.75000   0.38264   0.00000  Uiso   1.00
N599   N     0.25000   0.50000   0.61736   0.00000  Uiso   1.00
N600   N     0.25000   0.50000   0.38264   0.00000  Uiso   1.00
O601   O     0.04509   0.70491   0.53958   0.00000  Uiso   1.00
O602   O     0.20492   0.54509   0.46042   0.00000  Uiso   1.00
O603   O     0.20492   0.54509   0.53958   0.00000  Uiso   1.00
O604   O     0.29509   0.95491   0.46042   0.00000  Uiso   1.00
O605   O     0.20492   0.95491   0.46042   0.00000  Uiso   1.00
O606   O     0.29509   0.54509   0.53958   0.00000  Uiso   1.00
O607   O     0.29509   0.54509   0.46042   0.00000  Uiso   1.00
O608   O     0.20492   0.95491   0.53958   0.00000  Uiso   1.00
O609   O     0.45492   0.79509   0.46042   0.00000  Uiso   1.00
O610   O     0.45492   0.79509   0.53958   0.00000  Uiso   1.00
O611   O     0.04509   0.70491   0.46042   0.00000  Uiso   1.00
O612   O     0.45492   0.70491   0.46042   0.00000  Uiso   1.00
O613   O     0.04509   0.79509   0.53958   0.00000  Uiso   1.00
O614   O     0.04509   0.79509   0.46042   0.00000  Uiso   1.00
O615   O     0.45492   0.70491   0.53958   0.00000  Uiso   1.00
O616   O     0.29509   0.95491   0.53958   0.00000  Uiso   1.00
C617   C     0.55944   0.69052   0.50000   0.00000  Uiso   1.00
C618   C     0.99998   0.78839   0.64186   0.00000  Uiso   1.00
C619   C     0.50002   0.78839   0.35814   0.00000  Uiso   1.00
C620   C     0.50002   0.71161   0.64186   0.00000  Uiso   1.00
C621   C     0.75002   0.96161   0.35814   0.00000  Uiso   1.00
C622   C     0.75002   0.53839   0.64186   0.00000  Uiso   1.00
C623   C     0.74998   0.53839   0.35814   0.00000  Uiso   1.00
C624   C     0.74998   0.96161   0.64186   0.00000  Uiso   1.00
C625   C     0.87811   0.65394   0.46214   0.00000  Uiso   1.00
C626   C     0.59610   0.87204   0.53783   0.00000  Uiso   1.00
C627   C     0.62192   0.84603   0.46216   0.00000  Uiso   1.00
C628   C     0.94056   0.80948   0.50000   0.00000  Uiso   1.00
C629   C     0.90387   0.62799   0.53785   0.00000  Uiso   1.00
C630   C     0.62200   0.65404   0.53778   0.00000  Uiso   1.00
C631   C     0.90393   0.87207   0.46220   0.00000  Uiso   1.00
C632   C     0.87805   0.84600   0.53781   0.00000  Uiso   1.00
C633   C     0.59602   0.62789   0.46223   0.00000  Uiso   1.00
C634   C     0.65390   0.87796   0.46217   0.00000  Uiso   1.00
C635   C     0.87190   0.59606   0.53786   0.00000  Uiso   1.00
C636   C     0.84613   0.62201   0.46215   0.00000  Uiso   1.00
C637   C     0.62808   0.90397   0.53784   0.00000  Uiso   1.00
C638   C     0.84607   0.87793   0.53781   0.00000  Uiso   1.00
C639   C     0.94056   0.69052   0.50000   0.00000  Uiso   1.00
C640   C     0.62800   0.59596   0.46222   0.00000  Uiso   1.00
C641   C     0.65398   0.62211   0.53777   0.00000  Uiso   1.00
C642   C     0.87195   0.90400   0.46219   0.00000  Uiso   1.00
C643   C     0.59289   0.84293   0.49999   0.00000  Uiso   1.00
C644   C     0.90711   0.65707   0.49999   0.00000  Uiso   1.00
C645   C     0.90711   0.84293   0.50001   0.00000  Uiso   1.00
C646   C     0.59289   0.65707   0.50001   0.00000  Uiso   1.00
C647   C     0.84289   0.59293   0.50000   0.00000  Uiso   1.00
C648   C     0.65711   0.90707   0.50001   0.00000  Uiso   1.00
C649   C     0.65711   0.59293   0.49999   0.00000  Uiso   1.00
C650   C     0.55944   0.80948   0.50000   0.00000  Uiso   1.00
C651   C     0.84289   0.90707   0.49999   0.00000  Uiso   1.00
C652   C     0.80944   0.94052   0.50000   0.00000  Uiso   1.00
C653   C     0.69056   0.55948   0.50000   0.00000  Uiso   1.00
C654   C     0.69056   0.94052   0.50000   0.00000  Uiso   1.00
C655   C     0.80944   0.55948   0.50000   0.00000  Uiso   1.00
C656   C     0.99998   0.71161   0.35814   0.00000  Uiso   1.00
Cu657  Cu    0.50000   0.75000   0.54689   0.00000  Uiso   1.00
Cu658  Cu    0.50000   0.75000   0.45311   0.00000  Uiso   1.00
Cu659  Cu    0.75000   0.50000   0.54689   0.00000  Uiso   1.00
Cu660  Cu    0.75000   0.50000   0.45311   0.00000  Uiso   1.00
F661   F     0.87990   0.68243   0.42568   0.00000  Uiso   1.00
F662   F     0.87010   0.56757   0.57432   0.00000  Uiso   1.00
F663   F     0.81770   0.62035   0.42571   0.00000  Uiso   1.00
F664   F     0.62985   0.93249   0.57427   0.00000  Uiso   1.00
F665   F     0.81758   0.87954   0.57419   0.00000  Uiso   1.00
F666   F     0.62970   0.56736   0.42586   0.00000  Uiso   1.00
F667   F     0.68251   0.62054   0.57411   0.00000  Uiso   1.00
F668   F     0.87021   0.93255   0.42579   0.00000  Uiso   1.00
F669   F     0.56764   0.87040   0.57424   0.00000  Uiso   1.00
F670   F     0.62016   0.81751   0.42573   0.00000  Uiso   1.00
F671   F     0.93230   0.62965   0.57429   0.00000  Uiso   1.00
F672   F     0.62030   0.68264   0.57414   0.00000  Uiso   1.00
F673   F     0.93242   0.87046   0.42581   0.00000  Uiso   1.00
F674   F     0.87979   0.81745   0.57421   0.00000  Uiso   1.00
F675   F     0.56749   0.62946   0.42589   0.00000  Uiso   1.00
F676   F     0.68236   0.87960   0.42576   0.00000  Uiso   1.00
H677   H     0.99994   0.68086   0.37684   0.00000  Uiso   1.00
H678   H     0.99994   0.81914   0.62316   0.00000  Uiso   1.00
H679   H     0.50006   0.81914   0.37684   0.00000  Uiso   1.00
H680   H     0.50007   0.68086   0.62316   0.00000  Uiso   1.00
H681   H     0.75007   0.93086   0.37684   0.00000  Uiso   1.00
H682   H     0.75006   0.56914   0.62316   0.00000  Uiso   1.00
H683   H     0.74994   0.56914   0.37684   0.00000  Uiso   1.00
H684   H     0.74994   0.93086   0.62316   0.00000  Uiso   1.00
N685   N     0.50000   0.75000   0.61736   0.00000  Uiso   1.00
N686   N     0.50000   0.75000   0.38264   0.00000  Uiso   1.00
N687   N     0.75000   0.50000   0.61736   0.00000  Uiso   1.00
N688   N     0.75000   0.50000   0.38264   0.00000  Uiso   1.00
O689   O     0.54509   0.70491   0.53958   0.00000  Uiso   1.00
O690   O     0.70492   0.54509   0.46042   0.00000  Uiso   1.00
O691   O     0.70492   0.54509   0.53958   0.00000  Uiso   1.00
O692   O     0.79509   0.95491   0.46042   0.00000  Uiso   1.00
O693   O     0.70492   0.95491   0.46042   0.00000  Uiso   1.00
O694   O     0.79509   0.54509   0.53958   0.00000  Uiso   1.00
O695   O     0.79509   0.54509   0.46042   0.00000  Uiso   1.00
O696   O     0.70492   0.95491   0.53958   0.00000  Uiso   1.00
O697   O     0.95492   0.79509   0.46042   0.00000  Uiso   1.00
O698   O     0.95492   0.79509   0.53958   0.00000  Uiso   1.00
O699   O     0.54509   0.70491   0.46042   0.00000  Uiso   1.00
O700   O     0.95492   0.70491   0.46042   0.00000  Uiso   1.00
O701   O     0.54509   0.79509   0.53958   0.00000  Uiso   1.00
O702   O     0.54509   0.79509   0.46042   0.00000  Uiso   1.00
O703   O     0.95492   0.70491   0.53958   0.00000  Uiso   1.00
O704   O     0.79509   0.95491   0.53958   0.00000  Uiso   1.00
C705   C     0.05944   0.19052   0.83333   0.00000  Uiso   1.00
C706   C     0.49998   0.28839   0.97519   0.00000  Uiso   1.00
C707   C     0.00002   0.28839   0.69147   0.00000  Uiso   1.00
C708   C     0.00002   0.21161   0.97519   0.00000  Uiso   1.00
C709   C     0.25002   0.46161   0.69147   0.00000  Uiso   1.00
C710   C     0.25002   0.03839   0.97519   0.00000  Uiso   1.00
C711   C     0.24998   0.03839   0.69147   0.00000  Uiso   1.00
C712   C     0.24998   0.46161   0.97519   0.00000  Uiso   1.00
C713   C     0.37811   0.15394   0.79547   0.00000  Uiso   1.00
C714   C     0.09610   0.37204   0.87117   0.00000  Uiso   1.00
C715   C     0.12192   0.34603   0.79549   0.00000  Uiso   1.00
C716   C     0.44056   0.30948   0.83333   0.00000  Uiso   1.00
C717   C     0.40387   0.12799   0.87119   0.00000  Uiso   1.00
C718   C     0.12200   0.15404   0.87111   0.00000  Uiso   1.00
C719   C     0.40393   0.37207   0.79553   0.00000  Uiso   1.00
C720   C     0.37805   0.34600   0.87115   0.00000  Uiso   1.00
C721   C     0.09602   0.12789   0.79556   0.00000  Uiso   1.00
C722   C     0.15390   0.37796   0.79550   0.00000  Uiso   1.00
C723   C     0.37190   0.09606   0.87120   0.00000  Uiso   1.00
C724   C     0.34613   0.12201   0.79548   0.00000  Uiso   1.00
C725   C     0.12808   0.40397   0.87118   0.00000  Uiso   1.00
C726   C     0.34607   0.37793   0.87114   0.00000  Uiso   1.00
C727   C     0.44056   0.19052   0.83333   0.00000  Uiso   1.00
C728   C     0.12800   0.09596   0.79555   0.00000  Uiso   1.00
C729   C     0.15398   0.12211   0.87110   0.00000  Uiso   1.00
C730   C     0.37195   0.40400   0.79552   0.00000  Uiso   1.00
C731   C     0.09289   0.34293   0.83333   0.00000  Uiso   1.00
C732   C     0.40711   0.15707   0.83333   0.00000  Uiso   1.00
C733   C     0.40711   0.34293   0.83334   0.00000  Uiso   1.00
C734   C     0.09289   0.15707   0.83334   0.00000  Uiso   1.00
C735   C     0.34289   0.09293   0.83334   0.00000  Uiso   1.00
C736   C     0.15711   0.40707   0.83334   0.00000  Uiso   1.00
C737   C     0.15711   0.09293   0.83333   0.00000  Uiso   1.00
C738   C     0.05944   0.30948   0.83333   0.00000  Uiso   1.00
C739   C     0.34289   0.40707   0.83333   0.00000  Uiso   1.00
C740   C     0.30944   0.44052   0.83333   0.00000  Uiso   1.00
C741   C     0.19056   0.05948   0.83333   0.00000  Uiso   1.00
C742   C     0.19056   0.44052   0.83333   0.00000  Uiso   1.00
C743   C     0.30944   0.05948   0.83333   0.00000  Uiso   1.00
C744   C     0.49998   0.21161   0.69147   0.00000  Uiso   1.00
Cu745  Cu    0.00000   0.25000   0.88022   0.00000  Uiso   1.00
Cu746  Cu    0.00000   0.25000   0.78645   0.00000  Uiso   1.00
Cu747  Cu    0.25000  -0.00000   0.88022   0.00000  Uiso   1.00
Cu748  Cu    0.25000  -0.00000   0.78645   0.00000  Uiso   1.00
F749   F     0.37990   0.18243   0.75901   0.00000  Uiso   1.00
F750   F     0.37010   0.06757   0.90765   0.00000  Uiso   1.00
F751   F     0.31770   0.12035   0.75904   0.00000  Uiso   1.00
F752   F     0.12985   0.43249   0.90761   0.00000  Uiso   1.00
F753   F     0.31758   0.37954   0.90752   0.00000  Uiso   1.00
F754   F     0.12970   0.06736   0.75920   0.00000  Uiso   1.00
F755   F     0.18251   0.12054   0.90744   0.00000  Uiso   1.00
F756   F     0.37021   0.43255   0.75912   0.00000  Uiso   1.00
F757   F     0.06764   0.37040   0.90758   0.00000  Uiso   1.00
F758   F     0.12016   0.31751   0.75906   0.00000  Uiso   1.00
F759   F     0.43230   0.12965   0.90762   0.00000  Uiso   1.00
F760   F     0.12030   0.18264   0.90747   0.00000  Uiso   1.00
F761   F     0.43242   0.37046   0.75915   0.00000  Uiso   1.00
F762   F     0.37979   0.31745   0.90755   0.00000  Uiso   1.00
F763   F     0.06749   0.12946   0.75922   0.00000  Uiso   1.00
F764   F     0.18236   0.37960   0.75909   0.00000  Uiso   1.00
H765   H     0.49994   0.18086   0.71017   0.00000  Uiso   1.00
H766   H     0.49994   0.31914   0.95649   0.00000  Uiso   1.00
H767   H     0.00006   0.31914   0.71017   0.00000  Uiso   1.00
H768   H     0.00007   0.18086   0.95650   0.00000  Uiso   1.00
H769   H     0.25007   0.43086   0.71017   0.00000  Uiso   1.00
H770   H     0.25006   0.06914   0.95649   0.00000  Uiso   1.00
H771   H     0.24994   0.06914   0.71017   0.00000  Uiso   1.00
H772   H     0.24994   0.43086   0.95650   0.00000  Uiso   1.00
N773   N     0.00000   0.25000   0.95069   0.00000  Uiso   1.00
N774   N     0.00000   0.25000   0.71598   0.00000  Uiso   1.00
N775   N     0.25000  -0.00000   0.95069   0.00000  Uiso   1.00
N776   N     0.25000  -0.00000   0.71598   0.00000  Uiso   1.00
O777   O     0.04509   0.20491   0.87291   0.00000  Uiso   1.00
O778   O     0.20492   0.04509   0.79375   0.00000  Uiso   1.00
O779   O     0.20492   0.04509   0.87291   0.00000  Uiso   1.00
O780   O     0.29509   0.45491   0.79375   0.00000  Uiso   1.00
O781   O     0.20492   0.45491   0.79375   0.00000  Uiso   1.00
O782   O     0.29509   0.04509   0.87291   0.00000  Uiso   1.00
O783   O     0.29509   0.04509   0.79375   0.00000  Uiso   1.00
O784   O     0.20492   0.45491   0.87291   0.00000  Uiso   1.00
O785   O     0.45492   0.29509   0.79375   0.00000  Uiso   1.00
O786   O     0.45492   0.29509   0.87291   0.00000  Uiso   1.00
O787   O     0.04509   0.20491   0.79375   0.00000  Uiso   1.00
O788   O     0.45492   0.20491   0.79375   0.00000  Uiso   1.00
O789   O     0.04509   0.29509   0.87291   0.00000  Uiso   1.00
O790   O     0.04509   0.29509   0.79375   0.00000  Uiso   1.00
O791   O     0.45492   0.20491   0.87291   0.00000  Uiso   1.00
O792   O     0.29509   0.45491   0.87291   0.00000  Uiso   1.00
C793   C     0.55944   0.19052   0.83333   0.00000  Uiso   1.00
C794   C     0.99998   0.28839   0.97519   0.00000  Uiso   1.00
C795   C     0.50002   0.28839   0.69147   0.00000  Uiso   1.00
C796   C     0.50002   0.21161   0.97519   0.00000  Uiso   1.00
C797   C     0.75002   0.46161   0.69147   0.00000  Uiso   1.00
C798   C     0.75002   0.03839   0.97519   0.00000  Uiso   1.00
C799   C     0.74998   0.03839   0.69147   0.00000  Uiso   1.00
C800   C     0.74998   0.46161   0.97519   0.00000  Uiso   1.00
C801   C     0.87811   0.15394   0.79547   0.00000  Uiso   1.00
C802   C     0.59610   0.37204   0.87117   0.00000  Uiso   1.00
C803   C     0.62192   0.34603   0.79549   0.00000  Uiso   1.00
C804   C     0.94056   0.30948   0.83333   0.00000  Uiso   1.00
C805   C     0.90387   0.12799   0.87119   0.00000  Uiso   1.00
C806   C     0.62200   0.15404   0.87111   0.00000  Uiso   1.00
C807   C     0.90393   0.37207   0.79553   0.00000  Uiso   1.00
C808   C     0.87805   0.34600   0.87115   0.00000  Uiso   1.00
C809   C     0.59602   0.12789   0.79556   0.00000  Uiso   1.00
C810   C     0.65390   0.37796   0.79550   0.00000  Uiso   1.00
C811   C     0.87190   0.09606   0.87120   0.00000  Uiso   1.00
C812   C     0.84613   0.12201   0.79548   0.00000  Uiso   1.00
C813   C     0.62808   0.40397   0.87118   0.00000  Uiso   1.00
C814   C     0.84607   0.37793   0.87114   0.00000  Uiso   1.00
C815   C     0.94056   0.19052   0.83333   0.00000  Uiso   1.00
C816   C     0.62800   0.09596   0.79555   0.00000  Uiso   1.00
C817   C     0.65398   0.12211   0.87110   0.00000  Uiso   1.00
C818   C     0.87195   0.40400   0.79552   0.00000  Uiso   1.00
C819   C     0.59289   0.34293   0.83333   0.00000  Uiso   1.00
C820   C     0.90711   0.15707   0.83333   0.00000  Uiso   1.00
C821   C     0.90711   0.34293   0.83334   0.00000  Uiso   1.00
C822   C     0.59289   0.15707   0.83334   0.00000  Uiso   1.00
C823   C     0.84289   0.09293   0.83334   0.00000  Uiso   1.00
C824   C     0.65711   0.40707   0.83334   0.00000  Uiso   1.00
C825   C     0.65711   0.09293   0.83333   0.00000  Uiso   1.00
C826   C     0.55944   0.30948   0.83333   0.00000  Uiso   1.00
C827   C     0.84289   0.40707   0.83333   0.00000  Uiso   1.00
C828   C     0.80944   0.44052   0.83333   0.00000  Uiso   1.00
C829   C     0.69056   0.05948   0.83333   0.00000  Uiso   1.00
C830   C     0.69056   0.44052   0.83333   0.00000  Uiso   1.00
C831   C     0.80944   0.05948   0.83333   0.00000  Uiso   1.00
C832   C     0.99998   0.21161   0.69147   0.00000  Uiso   1.00
Cu833  Cu    0.50000   0.25000   0.88022   0.00000  Uiso   1.00
Cu834  Cu    0.50000   0.25000   0.78645   0.00000  Uiso   1.00
Cu835  Cu    0.75000  -0.00000   0.88022   0.00000  Uiso   1.00
Cu836  Cu    0.75000  -0.00000   0.78645   0.00000  Uiso   1.00
F837   F     0.87990   0.18243   0.75901   0.00000  Uiso   1.00
F838   F     0.87010   0.06757   0.90765   0.00000  Uiso   1.00
F839   F     0.81770   0.12035   0.75904   0.00000  Uiso   1.00
F840   F     0.62985   0.43249   0.90761   0.00000  Uiso   1.00
F841   F     0.81758   0.37954   0.90752   0.00000  Uiso   1.00
F842   F     0.62970   0.06736   0.75920   0.00000  Uiso   1.00
F843   F     0.68251   0.12054   0.90744   0.00000  Uiso   1.00
F844   F     0.87021   0.43255   0.75912   0.00000  Uiso   1.00
F845   F     0.56764   0.37040   0.90758   0.00000  Uiso   1.00
F846   F     0.62016   0.31751   0.75906   0.00000  Uiso   1.00
F847   F     0.93230   0.12965   0.90762   0.00000  Uiso   1.00
F848   F     0.62030   0.18264   0.90747   0.00000  Uiso   1.00
F849   F     0.93242   0.37046   0.75915   0.00000  Uiso   1.00
F850   F     0.87979   0.31745   0.90755   0.00000  Uiso   1.00
F851   F     0.56749   0.12946   0.75922   0.00000  Uiso   1.00
F852   F     0.68236   0.37960   0.75909   0.00000  Uiso   1.00
H853   H     0.99994   0.18086   0.71017   0.00000  Uiso   1.00
H854   H     0.99994   0.31914   0.95649   0.00000  Uiso   1.00
H855   H     0.50006   0.31914   0.71017   0.00000  Uiso   1.00
H856   H     0.50007   0.18086   0.95650   0.00000  Uiso   1.00
H857   H     0.75007   0.43086   0.71017   0.00000  Uiso   1.00
H858   H     0.75006   0.06914   0.95649   0.00000  Uiso   1.00
H859   H     0.74994   0.06914   0.71017   0.00000  Uiso   1.00
H860   H     0.74994   0.43086   0.95650   0.00000  Uiso   1.00
N861   N     0.50000   0.25000   0.95069   0.00000  Uiso   1.00
N862   N     0.50000   0.25000   0.71598   0.00000  Uiso   1.00
N863   N     0.75000  -0.00000   0.95069   0.00000  Uiso   1.00
N864   N     0.75000  -0.00000   0.71598   0.00000  Uiso   1.00
O865   O     0.54509   0.20491   0.87291   0.00000  Uiso   1.00
O866   O     0.70492   0.04509   0.79375   0.00000  Uiso   1.00
O867   O     0.70492   0.04509   0.87291   0.00000  Uiso   1.00
O868   O     0.79509   0.45491   0.79375   0.00000  Uiso   1.00
O869   O     0.70492   0.45491   0.79375   0.00000  Uiso   1.00
O870   O     0.79509   0.04509   0.87291   0.00000  Uiso   1.00
O871   O     0.79509   0.04509   0.79375   0.00000  Uiso   1.00
O872   O     0.70492   0.45491   0.87291   0.00000  Uiso   1.00
O873   O     0.95492   0.29509   0.79375   0.00000  Uiso   1.00
O874   O     0.95492   0.29509   0.87291   0.00000  Uiso   1.00
O875   O     0.54509   0.20491   0.79375   0.00000  Uiso   1.00
O876   O     0.95492   0.20491   0.79375   0.00000  Uiso   1.00
O877   O     0.54509   0.29509   0.87291   0.00000  Uiso   1.00
O878   O     0.54509   0.29509   0.79375   0.00000  Uiso   1.00
O879   O     0.95492   0.20491   0.87291   0.00000  Uiso   1.00
O880   O     0.79509   0.45491   0.87291   0.00000  Uiso   1.00
C881   C     0.05944   0.69052   0.83333   0.00000  Uiso   1.00
C882   C     0.49998   0.78839   0.97519   0.00000  Uiso   1.00
C883   C     0.00002   0.78839   0.69147   0.00000  Uiso   1.00
C884   C     0.00002   0.71161   0.97519   0.00000  Uiso   1.00
C885   C     0.25002   0.96161   0.69147   0.00000  Uiso   1.00
C886   C     0.25002   0.53839   0.97519   0.00000  Uiso   1.00
C887   C     0.24998   0.53839   0.69147   0.00000  Uiso   1.00
C888   C     0.24998   0.96161   0.97519   0.00000  Uiso   1.00
C889   C     0.37811   0.65394   0.79547   0.00000  Uiso   1.00
C890   C     0.09610   0.87204   0.87117   0.00000  Uiso   1.00
C891   C     0.12192   0.84603   0.79549   0.00000  Uiso   1.00
C892   C     0.44056   0.80948   0.83333   0.00000  Uiso   1.00
C893   C     0.40387   0.62799   0.87119   0.00000  Uiso   1.00
C894   C     0.12200   0.65404   0.87111   0.00000  Uiso   1.00
C895   C     0.40393   0.87207   0.79553   0.00000  Uiso   1.00
C896   C     0.37805   0.84600   0.87115   0.00000  Uiso   1.00
C897   C     0.09602   0.62789   0.79556   0.00000  Uiso   1.00
C898   C     0.15390   0.87796   0.79550   0.00000  Uiso   1.00
C899   C     0.37190   0.59606   0.87120   0.00000  Uiso   1.00
C900   C     0.34613   0.62201   0.79548   0.00000  Uiso   1.00
C901   C     0.12808   0.90397   0.87118   0.00000  Uiso   1.00
C902   C     0.34607   0.87793   0.87114   0.00000  Uiso   1.00
C903   C     0.44056   0.69052   0.83333   0.00000  Uiso   1.00
C904   C     0.12800   0.59596   0.79555   0.00000  Uiso   1.00
C905   C     0.15398   0.62211   0.87110   0.00000  Uiso   1.00
C906   C     0.37195   0.90400   0.79552   0.00000  Uiso   1.00
C907   C     0.09289   0.84293   0.83333   0.00000  Uiso   1.00
C908   C     0.40711   0.65707   0.83333   0.00000  Uiso   1.00
C909   C     0.40711   0.84293   0.83334   0.00000  Uiso   1.00
C910   C     0.09289   0.65707   0.83334   0.00000  Uiso   1.00
C911   C     0.34289   0.59293   0.83334   0.00000  Uiso   1.00
C912   C     0.15711   0.90707   0.83334   0.00000  Uiso   1.00
C913   C     0.15711   0.59293   0.83333   0.00000  Uiso   1.00
C914   C     0.05944   0.80948   0.83333   0.00000  Uiso   1.00
C915   C     0.34289   0.90707   0.83333   0.00000  Uiso   1.00
C916   C     0.30944   0.94052   0.83333   0.00000  Uiso   1.00
C917   C     0.19056   0.55948   0.83333   0.00000  Uiso   1.00
C918   C     0.19056   0.94052   0.83333   0.00000  Uiso   1.00
C919   C     0.30944   0.55948   0.83333   0.00000  Uiso   1.00
C920   C     0.49998   0.71161   0.69147   0.00000  Uiso   1.00
Cu921  Cu    0.00000   0.75000   0.88022   0.00000  Uiso   1.00
Cu922  Cu    0.00000   0.75000   0.78645   0.00000  Uiso   1.00
Cu923  Cu    0.25000   0.50000   0.88022   0.00000  Uiso   1.00
Cu924  Cu    0.25000   0.50000   0.78645   0.00000  Uiso   1.00
F925   F     0.37990   0.68243   0.75901   0.00000  Uiso   1.00
F926   F     0.37010   0.56757   0.90765   0.00000  Uiso   1.00
F927   F     0.31770   0.62035   0.75904   0.00000  Uiso   1.00
F928   F     0.12985   0.93249   0.90761   0.00000  Uiso   1.00
F929   F     0.31758   0.87954   0.90752   0.00000  Uiso   1.00
F930   F     0.12970   0.56736   0.75920   0.00000  Uiso   1.00
F931   F     0.18251   0.62054   0.90744   0.00000  Uiso   1.00
F932   F     0.37021   0.93255   0.75912   0.00000  Uiso   1.00
F933   F     0.06764   0.87040   0.90758   0.00000  Uiso   1.00
F934   F     0.12016   0.81751   0.75906   0.00000  Uiso   1.00
F935   F     0.43230   0.62965   0.90762   0.00000  Uiso   1.00
F936   F     0.12030   0.68264   0.90747   0.00000  Uiso   1.00
F937   F     0.43242   0.87046   0.75915   0.00000  Uiso   1.00
F938   F     0.37979   0.81745   0.90755   0.00000  Uiso   1.00
F939   F     0.06749   0.62946   0.75922   0.00000  Uiso   1.00
F940   F     0.18236   0.87960   0.75909   0.00000  Uiso   1.00
H941   H     0.49994   0.68086   0.71017   0.00000  Uiso   1.00
H942   H     0.49994   0.81914   0.95649   0.00000  Uiso   1.00
H943   H     0.00006   0.81914   0.71017   0.00000  Uiso   1.00
H944   H     0.00007   0.68086   0.95650   0.00000  Uiso   1.00
H945   H     0.25007   0.93086   0.71017   0.00000  Uiso   1.00
H946   H     0.25006   0.56914   0.95649   0.00000  Uiso   1.00
H947   H     0.24994   0.56914   0.71017   0.00000  Uiso   1.00
H948   H     0.24994   0.93086   0.95650   0.00000  Uiso   1.00
N949   N     0.00000   0.75000   0.95069   0.00000  Uiso   1.00
N950   N     0.00000   0.75000   0.71598   0.00000  Uiso   1.00
N951   N     0.25000   0.50000   0.95069   0.00000  Uiso   1.00
N952   N     0.25000   0.50000   0.71598   0.00000  Uiso   1.00
O953   O     0.04509   0.70491   0.87291   0.00000  Uiso   1.00
O954   O     0.20492   0.54509   0.79375   0.00000  Uiso   1.00
O955   O     0.20492   0.54509   0.87291   0.00000  Uiso   1.00
O956   O     0.29509   0.95491   0.79375   0.00000  Uiso   1.00
O957   O     0.20492   0.95491   0.79375   0.00000  Uiso   1.00
O958   O     0.29509   0.54509   0.87291   0.00000  Uiso   1.00
O959   O     0.29509   0.54509   0.79375   0.00000  Uiso   1.00
O960   O     0.20492   0.95491   0.87291   0.00000  Uiso   1.00
O961   O     0.45492   0.79509   0.79375   0.00000  Uiso   1.00
O962   O     0.45492   0.79509   0.87291   0.00000  Uiso   1.00
O963   O     0.04509   0.70491   0.79375   0.00000  Uiso   1.00
O964   O     0.45492   0.70491   0.79375   0.00000  Uiso   1.00
O965   O     0.04509   0.79509   0.87291   0.00000  Uiso   1.00
O966   O     0.04509   0.79509   0.79375   0.00000  Uiso   1.00
O967   O     0.45492   0.70491   0.87291   0.00000  Uiso   1.00
O968   O     0.29509   0.95491   0.87291   0.00000  Uiso   1.00
C969   C     0.55944   0.69052   0.83333   0.00000  Uiso   1.00
C970   C     0.99998   0.78839   0.97519   0.00000  Uiso   1.00
C971   C     0.50002   0.78839   0.69147   0.00000  Uiso   1.00
C972   C     0.50002   0.71161   0.97519   0.00000  Uiso   1.00
C973   C     0.75002   0.96161   0.69147   0.00000  Uiso   1.00
C974   C     0.75002   0.53839   0.97519   0.00000  Uiso   1.00
C975   C     0.74998   0.53839   0.69147   0.00000  Uiso   1.00
C976   C     0.74998   0.96161   0.97519   0.00000  Uiso   1.00
C977   C     0.87811   0.65394   0.79547   0.00000  Uiso   1.00
C978   C     0.59610   0.87204   0.87117   0.00000  Uiso   1.00
C979   C     0.62192   0.84603   0.79549   0.00000  Uiso   1.00
C980   C     0.94056   0.80948   0.83333   0.00000  Uiso   1.00
C981   C     0.90387   0.62799   0.87119   0.00000  Uiso   1.00
C982   C     0.62200   0.65404   0.87111   0.00000  Uiso   1.00
C983   C     0.90393   0.87207   0.79553   0.00000  Uiso   1.00
C984   C     0.87805   0.84600   0.87115   0.00000  Uiso   1.00
C985   C     0.59602   0.62789   0.79556   0.00000  Uiso   1.00
C986   C     0.65390   0.87796   0.79550   0.00000  Uiso   1.00
C987   C     0.87190   0.59606   0.87120   0.00000  Uiso   1.00
C988   C     0.84613   0.62201   0.79548   0.00000  Uiso   1.00
C989   C     0.62808   0.90397   0.87118   0.00000  Uiso   1.00
C990   C     0.84607   0.87793   0.87114   0.00000  Uiso   1.00
C991   C     0.94056   0.69052   0.83333   0.00000  Uiso   1.00
C992   C     0.62800   0.59596   0.79555   0.00000  Uiso   1.00
C993   C     0.65398   0.62211   0.87110   0.00000  Uiso   1.00
C994   C     0.87195   0.90400   0.79552   0.00000  Uiso   1.00
C995   C     0.59289   0.84293   0.83333   0.00000  Uiso   1.00
C996   C     0.90711   0.65707   0.83333   0.00000  Uiso   1.00
C997   C     0.90711   0.84293   0.83334   0.00000  Uiso   1.00
C998   C     0.59289   0.65707   0.83334   0.00000  Uiso   1.00
C999   C     0.84289   0.59293   0.83334   0.00000  Uiso   1.00
C1000  C     0.65711   0.90707   0.83334   0.00000  Uiso   1.00
C1001  C     0.65711   0.59293   0.83333   0.00000  Uiso   1.00
C1002  C     0.55944   0.80948   0.83333   0.00000  Uiso   1.00
C1003  C     0.84289   0.90707   0.83333   0.00000  Uiso   1.00
C1004  C     0.80944   0.94052   0.83333   0.00000  Uiso   1.00
C1005  C     0.69056   0.55948   0.83333   0.00000  Uiso   1.00
C1006  C     0.69056   0.94052   0.83333   0.00000  Uiso   1.00
C1007  C     0.80944   0.55948   0.83333   0.00000  Uiso   1.00
C1008  C     0.99998   0.71161   0.69147   0.00000  Uiso   1.00
Cu1009 Cu    0.50000   0.75000   0.88022   0.00000  Uiso   1.00
Cu1010 Cu    0.50000   0.75000   0.78645   0.00000  Uiso   1.00
Cu1011 Cu    0.75000   0.50000   0.88022   0.00000  Uiso   1.00
Cu1012 Cu    0.75000   0.50000   0.78645   0.00000  Uiso   1.00
F1013  F     0.87990   0.68243   0.75901   0.00000  Uiso   1.00
F1014  F     0.87010   0.56757   0.90765   0.00000  Uiso   1.00
F1015  F     0.81770   0.62035   0.75904   0.00000  Uiso   1.00
F1016  F     0.62985   0.93249   0.90761   0.00000  Uiso   1.00
F1017  F     0.81758   0.87954   0.90752   0.00000  Uiso   1.00
F1018  F     0.62970   0.56736   0.75920   0.00000  Uiso   1.00
F1019  F     0.68251   0.62054   0.90744   0.00000  Uiso   1.00
F1020  F     0.87021   0.93255   0.75912   0.00000  Uiso   1.00
F1021  F     0.56764   0.87040   0.90758   0.00000  Uiso   1.00
F1022  F     0.62016   0.81751   0.75906   0.00000  Uiso   1.00
F1023  F     0.93230   0.62965   0.90762   0.00000  Uiso   1.00
F1024  F     0.62030   0.68264   0.90747   0.00000  Uiso   1.00
F1025  F     0.93242   0.87046   0.75915   0.00000  Uiso   1.00
F1026  F     0.87979   0.81745   0.90755   0.00000  Uiso   1.00
F1027  F     0.56749   0.62946   0.75922   0.00000  Uiso   1.00
F1028  F     0.68236   0.87960   0.75909   0.00000  Uiso   1.00
H1029  H     0.99994   0.68086   0.71017   0.00000  Uiso   1.00
H1030  H     0.99994   0.81914   0.95649   0.00000  Uiso   1.00
H1031  H     0.50006   0.81914   0.71017   0.00000  Uiso   1.00
H1032  H     0.50007   0.68086   0.95650   0.00000  Uiso   1.00
H1033  H     0.75007   0.93086   0.71017   0.00000  Uiso   1.00
H1034  H     0.75006   0.56914   0.95649   0.00000  Uiso   1.00
H1035  H     0.74994   0.56914   0.71017   0.00000  Uiso   1.00
H1036  H     0.74994   0.93086   0.95650   0.00000  Uiso   1.00
N1037  N     0.50000   0.75000   0.95069   0.00000  Uiso   1.00
N1038  N     0.50000   0.75000   0.71598   0.00000  Uiso   1.00
N1039  N     0.75000   0.50000   0.95069   0.00000  Uiso   1.00
N1040  N     0.75000   0.50000   0.71598   0.00000  Uiso   1.00
O1041  O     0.54509   0.70491   0.87291   0.00000  Uiso   1.00
O1042  O     0.70492   0.54509   0.79375   0.00000  Uiso   1.00
O1043  O     0.70492   0.54509   0.87291   0.00000  Uiso   1.00
O1044  O     0.79509   0.95491   0.79375   0.00000  Uiso   1.00
O1045  O     0.70492   0.95491   0.79375   0.00000  Uiso   1.00
O1046  O     0.79509   0.54509   0.87291   0.00000  Uiso   1.00
O1047  O     0.79509   0.54509   0.79375   0.00000  Uiso   1.00
O1048  O     0.70492   0.95491   0.87291   0.00000  Uiso   1.00
O1049  O     0.95492   0.79509   0.79375   0.00000  Uiso   1.00
O1050  O     0.95492   0.79509   0.87291   0.00000  Uiso   1.00
O1051  O     0.54509   0.70491   0.79375   0.00000  Uiso   1.00
O1052  O     0.95492   0.70491   0.79375   0.00000  Uiso   1.00
O1053  O     0.54509   0.79509   0.87291   0.00000  Uiso   1.00
O1054  O     0.54509   0.79509   0.79375   0.00000  Uiso   1.00
O1055  O     0.95492   0.70491   0.87291   0.00000  Uiso   1.00
O1056  O     0.79509   0.95491   0.87291   0.00000  Uiso   1.00
loop_
_geom_bond_atom_site_label_1
_geom_bond_atom_site_label_2
_geom_bond_distance
_geom_bond_site_symmetry_2
_ccdc_geom_bond_type
C1     O83     1.290   .     A
C1     O73     1.290   .     A
C1     C30     1.449   .     S
C2     N157    1.367   .     A
C2     H62     1.082   .     S
C2     C443    1.417   .     S
C3     H63     1.082   .     S
C3     C794    1.417   1_454 S
C3     N70     1.367   .     S
C4     H64     1.082   .     S
C4     C480    1.417   1_455 S
C4     N69     1.367   .     S
C5     N248    1.367   .     A
C5     H65     1.082   .     S
C5     C712    1.417   1_554 S
C6     H66     1.082   .     S
C6     C359    1.417   .     S
C6     N71     1.367   .     S
C7     H67     1.082   .     S
C7     C710    1.417   1_554 S
C7     N72     1.367   .     S
C8     H68     1.082   .     S
C8     N247    1.367   .     A
C8     C357    1.417   .     S
C9     F45     1.359   .     S
C9     C20     1.385   .     A
C9     C28     1.403   .     A
C10    C27     1.403   .     A
C10    F53     1.359   .     S
C10    C21     1.385   .     A
C11    C18     1.385   .     A
C11    C27     1.404   .     A
C11    F54     1.359   .     S
C12    C29     1.449   .     S
C12    O82     1.290   .     A
C12    O81     1.290   .     A
C13    C28     1.403   .     A
C13    C19     1.385   .     A
C13    F55     1.359   .     S
C14    F56     1.359   .     S
C14    C30     1.403   .     A
C14    C25     1.385   .     A
C15    F57     1.359   .     S
C15    C29     1.403   .     A
C15    C26     1.385   .     A
C16    C22     1.385   .     A
C16    F58     1.359   .     S
C16    C29     1.403   .     A
C17    C30     1.403   .     A
C17    C24     1.385   .     A
C17    F59     1.359   .     S
C18    F60     1.359   .     S
C18    C32     1.403   .     A
C19    C31     1.403   .     A
C19    F46     1.359   .     S
C20    F47     1.359   .     S
C20    C31     1.403   .     A
C21    F48     1.359   .     S
C21    C32     1.404   .     A
C22    C35     1.403   .     A
C22    F49     1.359   .     S
C23    O87     1.290   .     A
C23    O84     1.290   .     A
C23    C28     1.449   .     S
C24    F50     1.359   .     S
C24    C33     1.403   .     A
C25    F51     1.359   .     S
C25    C33     1.403   .     A
C26    F52     1.359   .     S
C26    C35     1.403   .     A
C27    C34     1.449   .     S
C31    C39     1.449   .     S
C32    C38     1.449   .     S
C33    C37     1.449   .     S
C34    O86     1.290   .     A
C34    O85     1.290   .     A
C35    C36     1.449   .     S
C36    O88     1.290   .     A
C36    O76     1.290   .     A
C37    O74     1.290   .     A
C37    O75     1.290   .     A
C38    O77     1.290   .     A
C38    O80     1.290   .     A
C39    O78     1.290   .     A
C39    O79     1.290   .     A
C40    N158    1.367   .     A
C40    H61     1.082   .     S
C40    C796    1.417   1_554 S
Cu41   Cu42    2.677   .     S
Cu41   O175    1.965   1_455 S
Cu41   N69     2.012   .     S
Cu41   O170    1.965   1_455 S
Cu41   O73     1.965   .     S
Cu41   O85     1.965   .     S
Cu42   N70     2.012   .     S
Cu42   O169    1.965   1_455 S
Cu42   O172    1.965   1_455 S
Cu42   O83     1.965   .     S
Cu42   O86     1.965   .     S
Cu43   O264    1.965   1_545 S
Cu43   O256    1.965   1_545 S
Cu43   Cu44    2.677   .     S
Cu43   N71     2.012   .     S
Cu43   O75     1.965   .     S
Cu43   O78     1.965   .     S
Cu44   O253    1.965   1_545 S
Cu44   O252    1.965   1_545 S
Cu44   N72     2.012   .     S
Cu44   O74     1.965   .     S
Cu44   O79     1.965   .     S
N69    C90     1.367   1_455 A
N70    C128    1.367   1_455 A
N71    C184    1.367   1_545 A
N72    C181    1.367   1_545 A
O76    Cu220   1.965   .     S
O77    Cu220   1.965   .     S
O80    Cu219   1.965   .     S
O81    Cu130   1.965   .     S
O82    Cu129   1.965   .     S
O84    Cu130   1.965   .     S
O87    Cu129   1.965   .     S
O88    Cu219   1.965   .     S
C89    O171    1.290   .     A
C89    O161    1.290   .     A
C89    C118    1.449   .     S
C90    N69     1.367   1_655 A
C90    H150    1.082   .     S
C90    C355    1.417   1_655 S
C91    H151    1.082   .     S
C91    C706    1.417   1_554 S
C91    N158    1.367   .     S
C92    H152    1.082   .     S
C92    C392    1.417   .     S
C92    N157    1.367   .     S
C93    N336    1.367   .     A
C93    H153    1.082   .     S
C93    C800    1.417   1_554 S
C94    H154    1.082   .     S
C94    C447    1.417   .     S
C94    N159    1.367   .     S
C95    H155    1.082   .     S
C95    C798    1.417   1_554 S
C95    N160    1.367   .     S
C96    H156    1.082   .     S
C96    N335    1.367   .     A
C96    C445    1.417   .     S
C97    F133    1.359   .     S
C97    C108    1.385   .     A
C97    C116    1.403   .     A
C98    C115    1.403   .     A
C98    F141    1.359   .     S
C98    C109    1.385   .     A
C99    C106    1.385   .     A
C99    C115    1.404   .     A
C99    F142    1.359   .     S
C100   C117    1.449   .     S
C100   O170    1.290   .     A
C100   O169    1.290   .     A
C101   C116    1.403   .     A
C101   C107    1.385   .     A
C101   F143    1.359   .     S
C102   F144    1.359   .     S
C102   C118    1.403   .     A
C102   C113    1.385   .     A
C103   F145    1.359   .     S
C103   C117    1.403   .     A
C103   C114    1.385   .     A
C104   C110    1.385   .     A
C104   F146    1.359   .     S
C104   C117    1.403   .     A
C105   C118    1.403   .     A
C105   C112    1.385   .     A
C105   F147    1.359   .     S
C106   F148    1.359   .     S
C106   C120    1.403   .     A
C107   C119    1.403   .     A
C107   F134    1.359   .     S
C108   F135    1.359   .     S
C108   C119    1.403   .     A
C109   F136    1.359   .     S
C109   C120    1.404   .     A
C110   C123    1.403   .     A
C110   F137    1.359   .     S
C111   O175    1.290   .     A
C111   O172    1.290   .     A
C111   C116    1.449   .     S
C112   F138    1.359   .     S
C112   C121    1.403   .     A
C113   F139    1.359   .     S
C113   C121    1.403   .     A
C114   F140    1.359   .     S
C114   C123    1.403   .     A
C115   C122    1.449   .     S
C119   C127    1.449   .     S
C120   C126    1.449   .     S
C121   C125    1.449   .     S
C122   O174    1.290   .     A
C122   O173    1.290   .     A
C123   C124    1.449   .     S
C124   O176    1.290   .     A
C124   O164    1.290   .     A
C125   O162    1.290   .     A
C125   O163    1.290   .     A
C126   O165    1.290   .     A
C126   O168    1.290   .     A
C127   O166    1.290   .     A
C127   O167    1.290   .     A
C128   N70     1.367   1_655 A
C128   H149    1.082   .     S
C128   C708    1.417   1_654 S
Cu129  Cu130   2.677   .     S
Cu129  N157    2.012   .     S
Cu129  O161    1.965   .     S
Cu129  O173    1.965   .     S
Cu130  N158    2.012   .     S
Cu130  O171    1.965   .     S
Cu130  O174    1.965   .     S
Cu131  O352    1.965   1_545 S
Cu131  O344    1.965   1_545 S
Cu131  Cu132   2.677   .     S
Cu131  N159    2.012   .     S
Cu131  O163    1.965   .     S
Cu131  O166    1.965   .     S
Cu132  O341    1.965   1_545 S
Cu132  O340    1.965   1_545 S
Cu132  N160    2.012   .     S
Cu132  O162    1.965   .     S
Cu132  O167    1.965   .     S
N159   C272    1.367   1_545 A
N160   C269    1.367   1_545 A
O164   Cu308   1.965   .     S
O165   Cu308   1.965   .     S
O168   Cu307   1.965   .     S
O169   Cu42    1.965   1_655 S
O170   Cu41    1.965   1_655 S
O172   Cu42    1.965   1_655 S
O175   Cu41    1.965   1_655 S
O176   Cu307   1.965   .     S
C177   O259    1.290   .     A
C177   O249    1.290   .     A
C177   C206    1.449   .     S
C178   N333    1.367   .     A
C178   H238    1.082   .     S
C178   C619    1.417   .     S
C179   H239    1.082   .     S
C179   C970    1.417   1_454 S
C179   N246    1.367   .     S
C180   H240    1.082   .     S
C180   C656    1.417   1_455 S
C180   N245    1.367   .     S
C181   N72     1.367   1_565 A
C181   H241    1.082   .     S
C181   C888    1.417   1_554 S
C182   H242    1.082   .     S
C182   C535    1.417   .     S
C182   N247    1.367   .     S
C183   H243    1.082   .     S
C183   C886    1.417   1_554 S
C183   N248    1.367   .     S
C184   H244    1.082   .     S
C184   N71     1.367   1_565 A
C184   C533    1.417   .     S
C185   F221    1.359   .     S
C185   C196    1.385   .     A
C185   C204    1.403   .     A
C186   C203    1.403   .     A
C186   F229    1.359   .     S
C186   C197    1.385   .     A
C187   C194    1.385   .     A
C187   C203    1.404   .     A
C187   F230    1.359   .     S
C188   C205    1.449   .     S
C188   O258    1.290   .     A
C188   O257    1.290   .     A
C189   C204    1.403   .     A
C189   C195    1.385   .     A
C189   F231    1.359   .     S
C190   F232    1.359   .     S
C190   C206    1.403   .     A
C190   C201    1.385   .     A
C191   F233    1.359   .     S
C191   C205    1.403   .     A
C191   C202    1.385   .     A
C192   C198    1.385   .     A
C192   F234    1.359   .     S
C192   C205    1.403   .     A
C193   C206    1.403   .     A
C193   C200    1.385   .     A
C193   F235    1.359   .     S
C194   F236    1.359   .     S
C194   C208    1.403   .     A
C195   C207    1.403   .     A
C195   F222    1.359   .     S
C196   F223    1.359   .     S
C196   C207    1.403   .     A
C197   F224    1.359   .     S
C197   C208    1.404   .     A
C198   C211    1.403   .     A
C198   F225    1.359   .     S
C199   O263    1.290   .     A
C199   O260    1.290   .     A
C199   C204    1.449   .     S
C200   F226    1.359   .     S
C200   C209    1.403   .     A
C201   F227    1.359   .     S
C201   C209    1.403   .     A
C202   F228    1.359   .     S
C202   C211    1.403   .     A
C203   C210    1.449   .     S
C207   C215    1.449   .     S
C208   C214    1.449   .     S
C209   C213    1.449   .     S
C210   O262    1.290   .     A
C210   O261    1.290   .     A
C211   C212    1.449   .     S
C212   O264    1.290   .     A
C212   O252    1.290   .     A
C213   O250    1.290   .     A
C213   O251    1.290   .     A
C214   O253    1.290   .     A
C214   O256    1.290   .     A
C215   O254    1.290   .     A
C215   O255    1.290   .     A
C216   N334    1.367   .     A
C216   H237    1.082   .     S
C216   C972    1.417   1_554 S
Cu217  Cu218   2.677   .     S
Cu217  O351    1.965   1_455 S
Cu217  N245    2.012   .     S
Cu217  O346    1.965   1_455 S
Cu217  O249    1.965   .     S
Cu217  O261    1.965   .     S
Cu218  N246    2.012   .     S
Cu218  O345    1.965   1_455 S
Cu218  O348    1.965   1_455 S
Cu218  O259    1.965   .     S
Cu218  O262    1.965   .     S
Cu219  Cu220   2.677   .     S
Cu219  N247    2.012   .     S
Cu219  O251    1.965   .     S
Cu219  O254    1.965   .     S
Cu220  N248    2.012   .     S
Cu220  O250    1.965   .     S
Cu220  O255    1.965   .     S
N245   C266    1.367   1_455 A
N246   C304    1.367   1_455 A
O252   Cu44    1.965   1_565 S
O253   Cu44    1.965   1_565 S
O256   Cu43    1.965   1_565 S
O257   Cu306   1.965   .     S
O258   Cu305   1.965   .     S
O260   Cu306   1.965   .     S
O263   Cu305   1.965   .     S
O264   Cu43    1.965   1_565 S
C265   O347    1.290   .     A
C265   O337    1.290   .     A
C265   C294    1.449   .     S
C266   N245    1.367   1_655 A
C266   H326    1.082   .     S
C266   C531    1.417   1_655 S
C267   H327    1.082   .     S
C267   C882    1.417   1_554 S
C267   N334    1.367   .     S
C268   H328    1.082   .     S
C268   C568    1.417   .     S
C268   N333    1.367   .     S
C269   N160    1.367   1_565 A
C269   H329    1.082   .     S
C269   C976    1.417   1_554 S
C270   H330    1.082   .     S
C270   C623    1.417   .     S
C270   N335    1.367   .     S
C271   H331    1.082   .     S
C271   C974    1.417   1_554 S
C271   N336    1.367   .     S
C272   H332    1.082   .     S
C272   N159    1.367   1_565 A
C272   C621    1.417   .     S
C273   F309    1.359   .     S
C273   C284    1.385   .     A
C273   C292    1.403   .     A
C274   C291    1.403   .     A
C274   F317    1.359   .     S
C274   C285    1.385   .     A
C275   C282    1.385   .     A
C275   C291    1.404   .     A
C275   F318    1.359   .     S
C276   C293    1.449   .     S
C276   O346    1.290   .     A
C276   O345    1.290   .     A
C277   C292    1.403   .     A
C277   C283    1.385   .     A
C277   F319    1.359   .     S
C278   F320    1.359   .     S
C278   C294    1.403   .     A
C278   C289    1.385   .     A
C279   F321    1.359   .     S
C279   C293    1.403   .     A
C279   C290    1.385   .     A
C280   C286    1.385   .     A
C280   F322    1.359   .     S
C280   C293    1.403   .     A
C281   C294    1.403   .     A
C281   C288    1.385   .     A
C281   F323    1.359   .     S
C282   F324    1.359   .     S
C282   C296    1.403   .     A
C283   C295    1.403   .     A
C283   F310    1.359   .     S
C284   F311    1.359   .     S
C284   C295    1.403   .     A
C285   F312    1.359   .     S
C285   C296    1.404   .     A
C286   C299    1.403   .     A
C286   F313    1.359   .     S
C287   O351    1.290   .     A
C287   O348    1.290   .     A
C287   C292    1.449   .     S
C288   F314    1.359   .     S
C288   C297    1.403   .     A
C289   F315    1.359   .     S
C289   C297    1.403   .     A
C290   F316    1.359   .     S
C290   C299    1.403   .     A
C291   C298    1.449   .     S
C295   C303    1.449   .     S
C296   C302    1.449   .     S
C297   C301    1.449   .     S
C298   O350    1.290   .     A
C298   O349    1.290   .     A
C299   C300    1.449   .     S
C300   O352    1.290   .     A
C300   O340    1.290   .     A
C301   O338    1.290   .     A
C301   O339    1.290   .     A
C302   O341    1.290   .     A
C302   O344    1.290   .     A
C303   O342    1.290   .     A
C303   O343    1.290   .     A
C304   N246    1.367   1_655 A
C304   H325    1.082   .     S
C304   C884    1.417   1_654 S
Cu305  Cu306   2.677   .     S
Cu305  N333    2.012   .     S
Cu305  O337    1.965   .     S
Cu305  O349    1.965   .     S
Cu306  N334    2.012   .     S
Cu306  O347    1.965   .     S
Cu306  O350    1.965   .     S
Cu307  Cu308   2.677   .     S
Cu307  N335    2.012   .     S
Cu307  O339    1.965   .     S
Cu307  O342    1.965   .     S
Cu308  N336    2.012   .     S
Cu308  O338    1.965   .     S
Cu308  O343    1.965   .     S
O340   Cu132   1.965   1_565 S
O341   Cu132   1.965   1_565 S
O344   Cu131   1.965   1_565 S
O345   Cu218   1.965   1_655 S
O346   Cu217   1.965   1_655 S
O348   Cu218   1.965   1_655 S
O351   Cu217   1.965   1_655 S
O352   Cu131   1.965   1_565 S
C353   O435    1.290   .     A
C353   O425    1.290   .     A
C353   C382    1.449   .     S
C354   N509    1.367   .     A
C354   H414    1.082   .     S
C354   C795    1.417   .     S
C355   H415    1.082   .     S
C355   C90     1.417   1_455 S
C355   N422    1.367   .     S
C356   H416    1.082   .     S
C356   C832    1.417   1_455 S
C356   N421    1.367   .     S
C357   N600    1.367   .     A
C357   H417    1.082   .     S
C358   H418    1.082   .     S
C358   C711    1.417   .     S
C358   N423    1.367   .     S
C359   H419    1.082   .     S
C359   N424    1.367   .     S
C360   H420    1.082   .     S
C360   N599    1.367   .     A
C360   C709    1.417   .     S
C361   F397    1.359   .     S
C361   C372    1.385   .     A
C361   C380    1.403   .     A
C362   C379    1.403   .     A
C362   F405    1.359   .     S
C362   C373    1.385   .     A
C363   C370    1.385   .     A
C363   C379    1.404   .     A
C363   F406    1.359   .     S
C364   C381    1.449   .     S
C364   O434    1.290   .     A
C364   O433    1.290   .     A
C365   C380    1.403   .     A
C365   C371    1.385   .     A
C365   F407    1.359   .     S
C366   F408    1.359   .     S
C366   C382    1.403   .     A
C366   C377    1.385   .     A
C367   F409    1.359   .     S
C367   C381    1.403   .     A
C367   C378    1.385   .     A
C368   C374    1.385   .     A
C368   F410    1.359   .     S
C368   C381    1.403   .     A
C369   C382    1.403   .     A
C369   C376    1.385   .     A
C369   F411    1.359   .     S
C370   F412    1.359   .     S
C370   C384    1.403   .     A
C371   C383    1.403   .     A
C371   F398    1.359   .     S
C372   F399    1.359   .     S
C372   C383    1.403   .     A
C373   F400    1.359   .     S
C373   C384    1.404   .     A
C374   C387    1.403   .     A
C374   F401    1.359   .     S
C375   O439    1.290   .     A
C375   O436    1.290   .     A
C375   C380    1.449   .     S
C376   F402    1.359   .     S
C376   C385    1.403   .     A
C377   F403    1.359   .     S
C377   C385    1.403   .     A
C378   F404    1.359   .     S
C378   C387    1.403   .     A
C379   C386    1.449   .     S
C383   C391    1.449   .     S
C384   C390    1.449   .     S
C385   C389    1.449   .     S
C386   O438    1.290   .     A
C386   O437    1.290   .     A
C387   C388    1.449   .     S
C388   O440    1.290   .     A
C388   O428    1.290   .     A
C389   O426    1.290   .     A
C389   O427    1.290   .     A
C390   O429    1.290   .     A
C390   O432    1.290   .     A
C391   O430    1.290   .     A
C391   O431    1.290   .     A
C392   N510    1.367   .     A
C392   H413    1.082   .     S
Cu393  Cu394   2.677   .     S
Cu393  O527    1.965   1_455 S
Cu393  N421    2.012   .     S
Cu393  O522    1.965   1_455 S
Cu393  O425    1.965   .     S
Cu393  O437    1.965   .     S
Cu394  N422    2.012   .     S
Cu394  O521    1.965   1_455 S
Cu394  O524    1.965   1_455 S
Cu394  O435    1.965   .     S
Cu394  O438    1.965   .     S
Cu395  O616    1.965   1_545 S
Cu395  O608    1.965   1_545 S
Cu395  Cu396   2.677   .     S
Cu395  N423    2.012   .     S
Cu395  O427    1.965   .     S
Cu395  O430    1.965   .     S
Cu396  O605    1.965   1_545 S
Cu396  O604    1.965   1_545 S
Cu396  N424    2.012   .     S
Cu396  O426    1.965   .     S
Cu396  O431    1.965   .     S
N421   C442    1.367   1_455 A
N422   C480    1.367   1_455 A
N423   C536    1.367   1_545 A
N424   C533    1.367   1_545 A
O428   Cu572   1.965   .     S
O429   Cu572   1.965   .     S
O432   Cu571   1.965   .     S
O433   Cu482   1.965   .     S
O434   Cu481   1.965   .     S
O436   Cu482   1.965   .     S
O439   Cu481   1.965   .     S
O440   Cu571   1.965   .     S
C441   O523    1.290   .     A
C441   O513    1.290   .     A
C441   C470    1.449   .     S
C442   N421    1.367   1_655 A
C442   H502    1.082   .     S
C442   C707    1.417   1_655 S
C443   H503    1.082   .     S
C443   N510    1.367   .     S
C444   H504    1.082   .     S
C444   C744    1.417   .     S
C444   N509    1.367   .     S
C445   N688    1.367   .     A
C445   H505    1.082   .     S
C446   H506    1.082   .     S
C446   C799    1.417   .     S
C446   N511    1.367   .     S
C447   H507    1.082   .     S
C447   N512    1.367   .     S
C448   H508    1.082   .     S
C448   N687    1.367   .     A
C448   C797    1.417   .     S
C449   F485    1.359   .     S
C449   C460    1.385   .     A
C449   C468    1.403   .     A
C450   C467    1.403   .     A
C450   F493    1.359   .     S
C450   C461    1.385   .     A
C451   C458    1.385   .     A
C451   C467    1.404   .     A
C451   F494    1.359   .     S
C452   C469    1.449   .     S
C452   O522    1.290   .     A
C452   O521    1.290   .     A
C453   C468    1.403   .     A
C453   C459    1.385   .     A
C453   F495    1.359   .     S
C454   F496    1.359   .     S
C454   C470    1.403   .     A
C454   C465    1.385   .     A
C455   F497    1.359   .     S
C455   C469    1.403   .     A
C455   C466    1.385   .     A
C456   C462    1.385   .     A
C456   F498    1.359   .     S
C456   C469    1.403   .     A
C457   C470    1.403   .     A
C457   C464    1.385   .     A
C457   F499    1.359   .     S
C458   F500    1.359   .     S
C458   C472    1.403   .     A
C459   C471    1.403   .     A
C459   F486    1.359   .     S
C460   F487    1.359   .     S
C460   C471    1.403   .     A
C461   F488    1.359   .     S
C461   C472    1.404   .     A
C462   C475    1.403   .     A
C462   F489    1.359   .     S
C463   O527    1.290   .     A
C463   O524    1.290   .     A
C463   C468    1.449   .     S
C464   F490    1.359   .     S
C464   C473    1.403   .     A
C465   F491    1.359   .     S
C465   C473    1.403   .     A
C466   F492    1.359   .     S
C466   C475    1.403   .     A
C467   C474    1.449   .     S
C471   C479    1.449   .     S
C472   C478    1.449   .     S
C473   C477    1.449   .     S
C474   O526    1.290   .     A
C474   O525    1.290   .     A
C475   C476    1.449   .     S
C476   O528    1.290   .     A
C476   O516    1.290   .     A
C477   O514    1.290   .     A
C477   O515    1.290   .     A
C478   O517    1.290   .     A
C478   O520    1.290   .     A
C479   O518    1.290   .     A
C479   O519    1.290   .     A
C480   N422    1.367   1_655 A
C480   H501    1.082   .     S
C480   C4      1.417   1_655 S
Cu481  Cu482   2.677   .     S
Cu481  N509    2.012   .     S
Cu481  O513    1.965   .     S
Cu481  O525    1.965   .     S
Cu482  N510    2.012   .     S
Cu482  O523    1.965   .     S
Cu482  O526    1.965   .     S
Cu483  O704    1.965   1_545 S
Cu483  O696    1.965   1_545 S
Cu483  Cu484   2.677   .     S
Cu483  N511    2.012   .     S
Cu483  O515    1.965   .     S
Cu483  O518    1.965   .     S
Cu484  O693    1.965   1_545 S
Cu484  O692    1.965   1_545 S
Cu484  N512    2.012   .     S
Cu484  O514    1.965   .     S
Cu484  O519    1.965   .     S
N511   C624    1.367   1_545 A
N512   C621    1.367   1_545 A
O516   Cu660   1.965   .     S
O517   Cu660   1.965   .     S
O520   Cu659   1.965   .     S
O521   Cu394   1.965   1_655 S
O522   Cu393   1.965   1_655 S
O524   Cu394   1.965   1_655 S
O527   Cu393   1.965   1_655 S
O528   Cu659   1.965   .     S
C529   O611    1.290   .     A
C529   O601    1.290   .     A
C529   C558    1.449   .     S
C530   N685    1.367   .     A
C530   H590    1.082   .     S
C530   C971    1.417   .     S
C531   H591    1.082   .     S
C531   C266    1.417   1_455 S
C531   N598    1.367   .     S
C532   H592    1.082   .     S
C532   C1008   1.417   1_455 S
C532   N597    1.367   .     S
C533   N424    1.367   1_565 A
C533   H593    1.082   .     S
C534   H594    1.082   .     S
C534   C887    1.417   .     S
C534   N599    1.367   .     S
C535   H595    1.082   .     S
C535   N600    1.367   .     S
C536   H596    1.082   .     S
C536   N423    1.367   1_565 A
C536   C885    1.417   .     S
C537   F573    1.359   .     S
C537   C548    1.385   .     A
C537   C556    1.403   .     A
C538   C555    1.403   .     A
C538   F581    1.359   .     S
C538   C549    1.385   .     A
C539   C546    1.385   .     A
C539   C555    1.404   .     A
C539   F582    1.359   .     S
C540   C557    1.449   .     S
C540   O610    1.290   .     A
C540   O609    1.290   .     A
C541   C556    1.403   .     A
C541   C547    1.385   .     A
C541   F583    1.359   .     S
C542   F584    1.359   .     S
C542   C558    1.403   .     A
C542   C553    1.385   .     A
C543   F585    1.359   .     S
C543   C557    1.403   .     A
C543   C554    1.385   .     A
C544   C550    1.385   .     A
C544   F586    1.359   .     S
C544   C557    1.403   .     A
C545   C558    1.403   .     A
C545   C552    1.385   .     A
C545   F587    1.359   .     S
C546   F588    1.359   .     S
C546   C560    1.403   .     A
C547   C559    1.403   .     A
C547   F574    1.359   .     S
C548   F575    1.359   .     S
C548   C559    1.403   .     A
C549   F576    1.359   .     S
C549   C560    1.404   .     A
C550   C563    1.403   .     A
C550   F577    1.359   .     S
C551   O615    1.290   .     A
C551   O612    1.290   .     A
C551   C556    1.449   .     S
C552   F578    1.359   .     S
C552   C561    1.403   .     A
C553   F579    1.359   .     S
C553   C561    1.403   .     A
C554   F580    1.359   .     S
C554   C563    1.403   .     A
C555   C562    1.449   .     S
C559   C567    1.449   .     S
C560   C566    1.449   .     S
C561   C565    1.449   .     S
C562   O614    1.290   .     A
C562   O613    1.290   .     A
C563   C564    1.449   .     S
C564   O616    1.290   .     A
C564   O604    1.290   .     A
C565   O602    1.290   .     A
C565   O603    1.290   .     A
C566   O605    1.290   .     A
C566   O608    1.290   .     A
C567   O606    1.290   .     A
C567   O607    1.290   .     A
C568   N686    1.367   .     A
C568   H589    1.082   .     S
Cu569  Cu570   2.677   .     S
Cu569  O703    1.965   1_455 S
Cu569  N597    2.012   .     S
Cu569  O698    1.965   1_455 S
Cu569  O601    1.965   .     S
Cu569  O613    1.965   .     S
Cu570  N598    2.012   .     S
Cu570  O697    1.965   1_455 S
Cu570  O700    1.965   1_455 S
Cu570  O611    1.965   .     S
Cu570  O614    1.965   .     S
Cu571  Cu572   2.677   .     S
Cu571  N599    2.012   .     S
Cu571  O603    1.965   .     S
Cu571  O606    1.965   .     S
Cu572  N600    2.012   .     S
Cu572  O602    1.965   .     S
Cu572  O607    1.965   .     S
N597   C618    1.367   1_455 A
N598   C656    1.367   1_455 A
O604   Cu396   1.965   1_565 S
O605   Cu396   1.965   1_565 S
O608   Cu395   1.965   1_565 S
O609   Cu658   1.965   .     S
O610   Cu657   1.965   .     S
O612   Cu658   1.965   .     S
O615   Cu657   1.965   .     S
O616   Cu395   1.965   1_565 S
C617   O699    1.290   .     A
C617   O689    1.290   .     A
C617   C646    1.449   .     S
C618   N597    1.367   1_655 A
C618   H678    1.082   .     S
C618   C883    1.417   1_655 S
C619   H679    1.082   .     S
C619   N686    1.367   .     S
C620   H680    1.082   .     S
C620   C920    1.417   .     S
C620   N685    1.367   .     S
C621   N512    1.367   1_565 A
C621   H681    1.082   .     S
C622   H682    1.082   .     S
C622   C975    1.417   .     S
C622   N687    1.367   .     S
C623   H683    1.082   .     S
C623   N688    1.367   .     S
C624   H684    1.082   .     S
C624   N511    1.367   1_565 A
C624   C973    1.417   .     S
C625   F661    1.359   .     S
C625   C636    1.385   .     A
C625   C644    1.403   .     A
C626   C643    1.403   .     A
C626   F669    1.359   .     S
C626   C637    1.385   .     A
C627   C634    1.385   .     A
C627   C643    1.404   .     A
C627   F670    1.359   .     S
C628   C645    1.449   .     S
C628   O698    1.290   .     A
C628   O697    1.290   .     A
C629   C644    1.403   .     A
C629   C635    1.385   .     A
C629   F671    1.359   .     S
C630   F672    1.359   .     S
C630   C646    1.403   .     A
C630   C641    1.385   .     A
C631   F673    1.359   .     S
C631   C645    1.403   .     A
C631   C642    1.385   .     A
C632   C638    1.385   .     A
C632   F674    1.359   .     S
C632   C645    1.403   .     A
C633   C646    1.403   .     A
C633   C640    1.385   .     A
C633   F675    1.359   .     S
C634   F676    1.359   .     S
C634   C648    1.403   .     A
C635   C647    1.403   .     A
C635   F662    1.359   .     S
C636   F663    1.359   .     S
C636   C647    1.403   .     A
C637   F664    1.359   .     S
C637   C648    1.404   .     A
C638   C651    1.403   .     A
C638   F665    1.359   .     S
C639   O703    1.290   .     A
C639   O700    1.290   .     A
C639   C644    1.449   .     S
C640   F666    1.359   .     S
C640   C649    1.403   .     A
C641   F667    1.359   .     S
C641   C649    1.403   .     A
C642   F668    1.359   .     S
C642   C651    1.403   .     A
C643   C650    1.449   .     S
C647   C655    1.449   .     S
C648   C654    1.449   .     S
C649   C653    1.449   .     S
C650   O702    1.290   .     A
C650   O701    1.290   .     A
C651   C652    1.449   .     S
C652   O704    1.290   .     A
C652   O692    1.290   .     A
C653   O690    1.290   .     A
C653   O691    1.290   .     A
C654   O693    1.290   .     A
C654   O696    1.290   .     A
C655   O694    1.290   .     A
C655   O695    1.290   .     A
C656   N598    1.367   1_655 A
C656   H677    1.082   .     S
C656   C180    1.417   1_655 S
Cu657  Cu658   2.677   .     S
Cu657  N685    2.012   .     S
Cu657  O689    1.965   .     S
Cu657  O701    1.965   .     S
Cu658  N686    2.012   .     S
Cu658  O699    1.965   .     S
Cu658  O702    1.965   .     S
Cu659  Cu660   2.677   .     S
Cu659  N687    2.012   .     S
Cu659  O691    1.965   .     S
Cu659  O694    1.965   .     S
Cu660  N688    2.012   .     S
Cu660  O690    1.965   .     S
Cu660  O695    1.965   .     S
O692   Cu484   1.965   1_565 S
O693   Cu484   1.965   1_565 S
O696   Cu483   1.965   1_565 S
O697   Cu570   1.965   1_655 S
O698   Cu569   1.965   1_655 S
O700   Cu570   1.965   1_655 S
O703   Cu569   1.965   1_655 S
O704   Cu483   1.965   1_565 S
C705   O787    1.290   .     A
C705   O777    1.290   .     A
C705   C734    1.449   .     S
C706   N861    1.367   .     A
C706   H766    1.082   .     S
C706   C91     1.417   1_556 S
C707   H767    1.082   .     S
C707   C442    1.417   1_455 S
C707   N774    1.367   .     S
C708   H768    1.082   .     S
C708   C128    1.417   1_456 S
C708   N773    1.367   .     S
C709   N952    1.367   .     A
C709   H769    1.082   .     S
C710   H770    1.082   .     S
C710   C7      1.417   1_556 S
C710   N775    1.367   .     S
C711   H771    1.082   .     S
C711   N776    1.367   .     S
C712   H772    1.082   .     S
C712   N951    1.367   .     A
C712   C5      1.417   1_556 S
C713   F749    1.359   .     S
C713   C724    1.385   .     A
C713   C732    1.403   .     A
C714   C731    1.403   .     A
C714   F757    1.359   .     S
C714   C725    1.385   .     A
C715   C722    1.385   .     A
C715   C731    1.404   .     A
C715   F758    1.359   .     S
C716   C733    1.449   .     S
C716   O786    1.290   .     A
C716   O785    1.290   .     A
C717   C732    1.403   .     A
C717   C723    1.385   .     A
C717   F759    1.359   .     S
C718   F760    1.359   .     S
C718   C734    1.403   .     A
C718   C729    1.385   .     A
C719   F761    1.359   .     S
C719   C733    1.403   .     A
C719   C730    1.385   .     A
C720   C726    1.385   .     A
C720   F762    1.359   .     S
C720   C733    1.403   .     A
C721   C734    1.403   .     A
C721   C728    1.385   .     A
C721   F763    1.359   .     S
C722   F764    1.359   .     S
C722   C736    1.403   .     A
C723   C735    1.403   .     A
C723   F750    1.359   .     S
C724   F751    1.359   .     S
C724   C735    1.403   .     A
C725   F752    1.359   .     S
C725   C736    1.404   .     A
C726   C739    1.403   .     A
C726   F753    1.359   .     S
C727   O791    1.290   .     A
C727   O788    1.290   .     A
C727   C732    1.449   .     S
C728   F754    1.359   .     S
C728   C737    1.403   .     A
C729   F755    1.359   .     S
C729   C737    1.403   .     A
C730   F756    1.359   .     S
C730   C739    1.403   .     A
C731   C738    1.449   .     S
C735   C743    1.449   .     S
C736   C742    1.449   .     S
C737   C741    1.449   .     S
C738   O790    1.290   .     A
C738   O789    1.290   .     A
C739   C740    1.449   .     S
C740   O792    1.290   .     A
C740   O780    1.290   .     A
C741   O778    1.290   .     A
C741   O779    1.290   .     A
C742   O781    1.290   .     A
C742   O784    1.290   .     A
C743   O782    1.290   .     A
C743   O783    1.290   .     A
C744   N862    1.367   .     A
C744   H765    1.082   .     S
Cu745  Cu746   2.677   .     S
Cu745  O879    1.965   1_455 S
Cu745  N773    2.012   .     S
Cu745  O874    1.965   1_455 S
Cu745  O777    1.965   .     S
Cu745  O789    1.965   .     S
Cu746  N774    2.012   .     S
Cu746  O873    1.965   1_455 S
Cu746  O876    1.965   1_455 S
Cu746  O787    1.965   .     S
Cu746  O790    1.965   .     S
Cu747  O968    1.965   1_545 S
Cu747  O960    1.965   1_545 S
Cu747  Cu748   2.677   .     S
Cu747  N775    2.012   .     S
Cu747  O779    1.965   .     S
Cu747  O782    1.965   .     S
Cu748  O957    1.965   1_545 S
Cu748  O956    1.965   1_545 S
Cu748  N776    2.012   .     S
Cu748  O778    1.965   .     S
Cu748  O783    1.965   .     S
N773   C794    1.367   1_455 A
N774   C832    1.367   1_455 A
N775   C888    1.367   1_545 A
N776   C885    1.367   1_545 A
O780   Cu924   1.965   .     S
O781   Cu924   1.965   .     S
O784   Cu923   1.965   .     S
O785   Cu834   1.965   .     S
O786   Cu833   1.965   .     S
O788   Cu834   1.965   .     S
O791   Cu833   1.965   .     S
O792   Cu923   1.965   .     S
C793   O875    1.290   .     A
C793   O865    1.290   .     A
C793   C822    1.449   .     S
C794   N773    1.367   1_655 A
C794   H854    1.082   .     S
C794   C3      1.417   1_656 S
C795   H855    1.082   .     S
C795   N862    1.367   .     S
C796   H856    1.082   .     S
C796   C40     1.417   1_556 S
C796   N861    1.367   .     S
C797   N1040   1.367   .     A
C797   H857    1.082   .     S
C798   H858    1.082   .     S
C798   C95     1.417   1_556 S
C798   N863    1.367   .     S
C799   H859    1.082   .     S
C799   N864    1.367   .     S
C800   H860    1.082   .     S
C800   N1039   1.367   .     A
C800   C93     1.417   1_556 S
C801   F837    1.359   .     S
C801   C812    1.385   .     A
C801   C820    1.403   .     A
C802   C819    1.403   .     A
C802   F845    1.359   .     S
C802   C813    1.385   .     A
C803   C810    1.385   .     A
C803   C819    1.404   .     A
C803   F846    1.359   .     S
C804   C821    1.449   .     S
C804   O874    1.290   .     A
C804   O873    1.290   .     A
C805   C820    1.403   .     A
C805   C811    1.385   .     A
C805   F847    1.359   .     S
C806   F848    1.359   .     S
C806   C822    1.403   .     A
C806   C817    1.385   .     A
C807   F849    1.359   .     S
C807   C821    1.403   .     A
C807   C818    1.385   .     A
C808   C814    1.385   .     A
C808   F850    1.359   .     S
C808   C821    1.403   .     A
C809   C822    1.403   .     A
C809   C816    1.385   .     A
C809   F851    1.359   .     S
C810   F852    1.359   .     S
C810   C824    1.403   .     A
C811   C823    1.403   .     A
C811   F838    1.359   .     S
C812   F839    1.359   .     S
C812   C823    1.403   .     A
C813   F840    1.359   .     S
C813   C824    1.404   .     A
C814   C827    1.403   .     A
C814   F841    1.359   .     S
C815   O879    1.290   .     A
C815   O876    1.290   .     A
C815   C820    1.449   .     S
C816   F842    1.359   .     S
C816   C825    1.403   .     A
C817   F843    1.359   .     S
C817   C825    1.403   .     A
C818   F844    1.359   .     S
C818   C827    1.403   .     A
C819   C826    1.449   .     S
C823   C831    1.449   .     S
C824   C830    1.449   .     S
C825   C829    1.449   .     S
C826   O878    1.290   .     A
C826   O877    1.290   .     A
C827   C828    1.449   .     S
C828   O880    1.290   .     A
C828   O868    1.290   .     A
C829   O866    1.290   .     A
C829   O867    1.290   .     A
C830   O869    1.290   .     A
C830   O872    1.290   .     A
C831   O870    1.290   .     A
C831   O871    1.290   .     A
C832   N774    1.367   1_655 A
C832   H853    1.082   .     S
C832   C356    1.417   1_655 S
Cu833  Cu834   2.677   .     S
Cu833  N861    2.012   .     S
Cu833  O865    1.965   .     S
Cu833  O877    1.965   .     S
Cu834  N862    2.012   .     S
Cu834  O875    1.965   .     S
Cu834  O878    1.965   .     S
Cu835  O1056   1.965   1_545 S
Cu835  O1048   1.965   1_545 S
Cu835  Cu836   2.677   .     S
Cu835  N863    2.012   .     S
Cu835  O867    1.965   .     S
Cu835  O870    1.965   .     S
Cu836  O1045   1.965   1_545 S
Cu836  O1044   1.965   1_545 S
Cu836  N864    2.012   .     S
Cu836  O866    1.965   .     S
Cu836  O871    1.965   .     S
N863   C976    1.367   1_545 A
N864   C973    1.367   1_545 A
O868   Cu1012  1.965   .     S
O869   Cu1012  1.965   .     S
O872   Cu1011  1.965   .     S
O873   Cu746   1.965   1_655 S
O874   Cu745   1.965   1_655 S
O876   Cu746   1.965   1_655 S
O879   Cu745   1.965   1_655 S
O880   Cu1011  1.965   .     S
C881   O963    1.290   .     A
C881   O953    1.290   .     A
C881   C910    1.449   .     S
C882   N1037   1.367   .     A
C882   H942    1.082   .     S
C882   C267    1.417   1_556 S
C883   H943    1.082   .     S
C883   C618    1.417   1_455 S
C883   N950    1.367   .     S
C884   H944    1.082   .     S
C884   C304    1.417   1_456 S
C884   N949    1.367   .     S
C885   N776    1.367   1_565 A
C885   H945    1.082   .     S
C886   H946    1.082   .     S
C886   C183    1.417   1_556 S
C886   N951    1.367   .     S
C887   H947    1.082   .     S
C887   N952    1.367   .     S
C888   H948    1.082   .     S
C888   N775    1.367   1_565 A
C888   C181    1.417   1_556 S
C889   F925    1.359   .     S
C889   C900    1.385   .     A
C889   C908    1.403   .     A
C890   C907    1.403   .     A
C890   F933    1.359   .     S
C890   C901    1.385   .     A
C891   C898    1.385   .     A
C891   C907    1.404   .     A
C891   F934    1.359   .     S
C892   C909    1.449   .     S
C892   O962    1.290   .     A
C892   O961    1.290   .     A
C893   C908    1.403   .     A
C893   C899    1.385   .     A
C893   F935    1.359   .     S
C894   F936    1.359   .     S
C894   C910    1.403   .     A
C894   C905    1.385   .     A
C895   F937    1.359   .     S
C895   C909    1.403   .     A
C895   C906    1.385   .     A
C896   C902    1.385   .     A
C896   F938    1.359   .     S
C896   C909    1.403   .     A
C897   C910    1.403   .     A
C897   C904    1.385   .     A
C897   F939    1.359   .     S
C898   F940    1.359   .     S
C898   C912    1.403   .     A
C899   C911    1.403   .     A
C899   F926    1.359   .     S
C900   F927    1.359   .     S
C900   C911    1.403   .     A
C901   F928    1.359   .     S
C901   C912    1.404   .     A
C902   C915    1.403   .     A
C902   F929    1.359   .     S
C903   O967    1.290   .     A
C903   O964    1.290   .     A
C903   C908    1.449   .     S
C904   F930    1.359   .     S
C904   C913    1.403   .     A
C905   F931    1.359   .     S
C905   C913    1.403   .     A
C906   F932    1.359   .     S
C906   C915    1.403   .     A
C907   C914    1.449   .     S
C911   C919    1.449   .     S
C912   C918    1.449   .     S
C913   C917    1.449   .     S
C914   O966    1.290   .     A
C914   O965    1.290   .     A
C915   C916    1.449   .     S
C916   O968    1.290   .     A
C916   O956    1.290   .     A
C917   O954    1.290   .     A
C917   O955    1.290   .     A
C918   O957    1.290   .     A
C918   O960    1.290   .     A
C919   O958    1.290   .     A
C919   O959    1.290   .     A
C920   N1038   1.367   .     A
C920   H941    1.082   .     S
Cu921  Cu922   2.677   .     S
Cu921  O1055   1.965   1_455 S
Cu921  N949    2.012   .     S
Cu921  O1050   1.965   1_455 S
Cu921  O953    1.965   .     S
Cu921  O965    1.965   .     S
Cu922  N950    2.012   .     S
Cu922  O1049   1.965   1_455 S
Cu922  O1052   1.965   1_455 S
Cu922  O963    1.965   .     S
Cu922  O966    1.965   .     S
Cu923  Cu924   2.677   .     S
Cu923  N951    2.012   .     S
Cu923  O955    1.965   .     S
Cu923  O958    1.965   .     S
Cu924  N952    2.012   .     S
Cu924  O954    1.965   .     S
Cu924  O959    1.965   .     S
N949   C970    1.367   1_455 A
N950   C1008   1.367   1_455 A
O956   Cu748   1.965   1_565 S
O957   Cu748   1.965   1_565 S
O960   Cu747   1.965   1_565 S
O961   Cu1010  1.965   .     S
O962   Cu1009  1.965   .     S
O964   Cu1010  1.965   .     S
O967   Cu1009  1.965   .     S
O968   Cu747   1.965   1_565 S
C969   O1051   1.290   .     A
C969   O1041   1.290   .     A
C969   C998    1.449   .     S
C970   N949    1.367   1_655 A
C970   H1030   1.082   .     S
C970   C179    1.417   1_656 S
C971   H1031   1.082   .     S
C971   N1038   1.367   .     S
C972   H1032   1.082   .     S
C972   C216    1.417   1_556 S
C972   N1037   1.367   .     S
C973   N864    1.367   1_565 A
C973   H1033   1.082   .     S
C974   H1034   1.082   .     S
C974   C271    1.417   1_556 S
C974   N1039   1.367   .     S
C975   H1035   1.082   .     S
C975   N1040   1.367   .     S
C976   H1036   1.082   .     S
C976   N863    1.367   1_565 A
C976   C269    1.417   1_556 S
C977   F1013   1.359   .     S
C977   C988    1.385   .     A
C977   C996    1.403   .     A
C978   C995    1.403   .     A
C978   F1021   1.359   .     S
C978   C989    1.385   .     A
C979   C986    1.385   .     A
C979   C995    1.404   .     A
C979   F1022   1.359   .     S
C980   C997    1.449   .     S
C980   O1050   1.290   .     A
C980   O1049   1.290   .     A
C981   C996    1.403   .     A
C981   C987    1.385   .     A
C981   F1023   1.359   .     S
C982   F1024   1.359   .     S
C982   C998    1.403   .     A
C982   C993    1.385   .     A
C983   F1025   1.359   .     S
C983   C997    1.403   .     A
C983   C994    1.385   .     A
C984   C990    1.385   .     A
C984   F1026   1.359   .     S
C984   C997    1.403   .     A
C985   C998    1.403   .     A
C985   C992    1.385   .     A
C985   F1027   1.359   .     S
C986   F1028   1.359   .     S
C986   C1000   1.403   .     A
C987   C999    1.403   .     A
C987   F1014   1.359   .     S
C988   F1015   1.359   .     S
C988   C999    1.403   .     A
C989   F1016   1.359   .     S
C989   C1000   1.404   .     A
C990   C1003   1.403   .     A
C990   F1017   1.359   .     S
C991   O1055   1.290   .     A
C991   O1052   1.290   .     A
C991   C996    1.449   .     S
C992   F1018   1.359   .     S
C992   C1001   1.403   .     A
C993   F1019   1.359   .     S
C993   C1001   1.403   .     A
C994   F1020   1.359   .     S
C994   C1003   1.403   .     A
C995   C1002   1.449   .     S
C999   C1007   1.449   .     S
C1000  C1006   1.449   .     S
C1001  C1005   1.449   .     S
C1002  O1054   1.290   .     A
C1002  O1053   1.290   .     A
C1003  C1004   1.449   .     S
C1004  O1056   1.290   .     A
C1004  O1044   1.290   .     A
C1005  O1042   1.290   .     A
C1005  O1043   1.290   .     A
C1006  O1045   1.290   .     A
C1006  O1048   1.290   .     A
C1007  O1046   1.290   .     A
C1007  O1047   1.290   .     A
C1008  N950    1.367   1_655 A
C1008  H1029   1.082   .     S
C1008  C532    1.417   1_655 S
Cu1009 Cu1010  2.677   .     S
Cu1009 N1037   2.012   .     S
Cu1009 O1041   1.965   .     S
Cu1009 O1053   1.965   .     S
Cu1010 N1038   2.012   .     S
Cu1010 O1051   1.965   .     S
Cu1010 O1054   1.965   .     S
Cu1011 Cu1012  2.677   .     S
Cu1011 N1039   2.012   .     S
Cu1011 O1043   1.965   .     S
Cu1011 O1046   1.965   .     S
Cu1012 N1040   2.012   .     S
Cu1012 O1042   1.965   .     S
Cu1012 O1047   1.965   .     S
O1044  Cu836   1.965   1_565 S
O1045  Cu836   1.965   1_565 S
O1048  Cu835   1.965   1_565 S
O1049  Cu922   1.965   1_655 S
O1050  Cu921   1.965   1_655 S
O1052  Cu922   1.965   1_655 S
O1055  Cu921   1.965   1_655 S
O1056  Cu835   1.965   1_565 S
