data_str_m1_o5_o17_pcu_sym.91
_audit_creation_date              2020-01-03
_audit_creation_method            'Materials Studio'
_symmetry_space_group_name_H-M    'P1'
_symmetry_Int_Tables_number       1
_symmetry_cell_setting            triclinic
loop_
_symmetry_equiv_pos_as_xyz
  x,y,z
_cell_length_a                    31.7617
_cell_length_b                    31.7601
_cell_length_c                    34.6155
_cell_angle_alpha                 89.9826
_cell_angle_beta                  89.9955
_cell_angle_gamma                 89.9842
loop_
_atom_site_label
_atom_site_type_symbol
_atom_site_fract_x
_atom_site_fract_y
_atom_site_fract_z
_atom_site_U_iso_or_equiv
_atom_site_adp_type
_atom_site_occupancy
C1     C     0.25000   0.49999   0.35601   0.00000  Uiso   1.00
C2     C     0.33000   0.41999   0.75000   0.00000  Uiso   1.00
C3     C     0.45264   0.31138   0.02032   0.00000  Uiso   1.00
C4     C     0.17530   0.01593   0.98073   0.00000  Uiso   1.00
C5     C     0.32286   0.46817   0.02009   0.00000  Uiso   1.00
C6     C     0.45002   0.30926   0.97974   0.00000  Uiso   1.00
C7     C     0.04740   0.18840   0.02035   0.00000  Uiso   1.00
C8     C     0.41175   0.17100   0.45901   0.00000  Uiso   1.00
C9     C     0.08824   0.32901   0.54099   0.00000  Uiso   1.00
C10    C     0.31355   0.09980   0.45880   0.00000  Uiso   1.00
C11    C     0.18644   0.40020   0.54120   0.00000  Uiso   1.00
C12    C     0.08823   0.32902   0.45895   0.00000  Uiso   1.00
C13    C     0.41999   0.16999   0.25000   0.00000  Uiso   1.00
C14    C     0.41177   0.17098   0.54105   0.00000  Uiso   1.00
C15    C     0.18645   0.40020   0.45887   0.00000  Uiso   1.00
C16    C     0.31355   0.09980   0.54113   0.00000  Uiso   1.00
C17    C     0.35725   0.44643   0.95826   0.00000  Uiso   1.00
C18    C     0.13191   0.49214   0.03758   0.00000  Uiso   1.00
C19    C     0.07049   0.15437   0.95903   0.00000  Uiso   1.00
C20    C     0.42985   0.34573   0.04079   0.00000  Uiso   1.00
C21    C     0.14319   0.04535   0.96398   0.00000  Uiso   1.00
C22    C     0.36021   0.45113   0.04075   0.00000  Uiso   1.00
C23    C     0.42070   0.33853   0.95970   0.00000  Uiso   1.00
C24    C     0.08001   0.33001   0.74999   0.00000  Uiso   1.00
C25    C     0.07368   0.15674   0.04092   0.00000  Uiso   1.00
C26    C     0.33000   0.41999   0.25000   0.00000  Uiso   1.00
C27    C     0.16999   0.08001   0.75000   0.00000  Uiso   1.00
C28    C     0.08001   0.33001   0.25000   0.00000  Uiso   1.00
C29    C     0.41999   0.16999   0.75000   0.00000  Uiso   1.00
C30    C     0.16999   0.41999   0.75000   0.00000  Uiso   1.00
C31    C     0.33001   0.08000   0.25000   0.00000  Uiso   1.00
C32    C     0.41999   0.33000   0.75000   0.00000  Uiso   1.00
C33    C     0.25000   0.00000   0.64399   0.00000  Uiso   1.00
C34    C     0.08001   0.17000   0.25000   0.00000  Uiso   1.00
C35    C     0.33001   0.08001   0.74999   0.00000  Uiso   1.00
C36    C     0.16999   0.41999   0.25000   0.00000  Uiso   1.00
C37    C     0.08001   0.16999   0.75000   0.00000  Uiso   1.00
C38    C     0.41999   0.33001   0.24999   0.00000  Uiso   1.00
C39    C     0.13833   0.38834   0.25001   0.00000  Uiso   1.00
C40    C     0.36167   0.11166   0.74999   0.00000  Uiso   1.00
C41    C     0.11167   0.13834   0.24999   0.00000  Uiso   1.00
C42    C     0.38833   0.36166   0.75001   0.00000  Uiso   1.00
C43    C     0.36167   0.11166   0.25001   0.00000  Uiso   1.00
C44    C    -0.00000   0.25000   0.35595   0.00000  Uiso   1.00
C45    C     0.13833   0.38834   0.74999   0.00000  Uiso   1.00
C46    C     0.38833   0.36166   0.24999   0.00000  Uiso   1.00
C47    C     0.11166   0.13834   0.75001   0.00000  Uiso   1.00
C48    C     0.13834   0.11167   0.75000   0.00000  Uiso   1.00
C49    C     0.36166   0.38833   0.24999   0.00000  Uiso   1.00
C50    C     0.11166   0.36167   0.74999   0.00000  Uiso   1.00
C51    C     0.38834   0.13833   0.25001   0.00000  Uiso   1.00
C52    C     0.36166   0.38833   0.75001   0.00000  Uiso   1.00
C53    C     0.13834   0.11166   0.24999   0.00000  Uiso   1.00
C54    C     0.38834   0.13833   0.74999   0.00000  Uiso   1.00
C55    C     0.00000   0.25000   0.64405   0.00000  Uiso   1.00
C56    C     0.11166   0.36167   0.25000   0.00000  Uiso   1.00
C57    C     0.02719   0.27664   0.41817   0.00000  Uiso   1.00
C58    C     0.47281   0.22336   0.58183   0.00000  Uiso   1.00
C59    C     0.23344   0.46567   0.41847   0.00000  Uiso   1.00
C60    C     0.26656   0.03432   0.58153   0.00000  Uiso   1.00
C61    C     0.47281   0.22336   0.41819   0.00000  Uiso   1.00
C62    C     0.02719   0.27664   0.58181   0.00000  Uiso   1.00
C63    C     0.26659   0.03430   0.41844   0.00000  Uiso   1.00
C64    C     0.23341   0.46570   0.58156   0.00000  Uiso   1.00
C65    C     0.21220   0.00423   0.91914   0.00000  Uiso   1.00
C66    C     0.00001   0.24998   0.85598   0.00000  Uiso   1.00
C67    C     0.28654   0.48515   0.08149   0.00000  Uiso   1.00
C68    C     0.47688   0.28025   0.91837   0.00000  Uiso   1.00
C69    C     0.02323   0.21970   0.08178   0.00000  Uiso   1.00
C70    C     0.28704   0.48924   0.91890   0.00000  Uiso   1.00
C71    C     0.21257   0.00431   0.08105   0.00000  Uiso   1.00
C72    C     0.02183   0.21875   0.91823   0.00000  Uiso   1.00
C73    C     0.47744   0.28059   0.08174   0.00000  Uiso   1.00
C74    C    -0.00000   0.25000   0.39828   0.00000  Uiso   1.00
C75    C     0.00000   0.25000   0.60172   0.00000  Uiso   1.00
C76    C     0.25001   0.49999   0.39841   0.00000  Uiso   1.00
C77    C     0.00003   0.25002   0.14403   0.00000  Uiso   1.00
C78    C     0.24999   0.00001   0.60159   0.00000  Uiso   1.00
C79    C     0.24983   0.49819   0.89873   0.00000  Uiso   1.00
C80    C     0.24985   0.49674   0.10141   0.00000  Uiso   1.00
C81    C     0.49955   0.24972   0.89835   0.00000  Uiso   1.00
C82    C     0.00034   0.25016   0.10168   0.00000  Uiso   1.00
C83    C     0.47172   0.22328   0.45902   0.00000  Uiso   1.00
C84    C     0.02828   0.27672   0.54098   0.00000  Uiso   1.00
C85    C     0.26867   0.03412   0.45914   0.00000  Uiso   1.00
C86    C     0.23133   0.46588   0.54086   0.00000  Uiso   1.00
C87    C     0.02827   0.27673   0.45900   0.00000  Uiso   1.00
C88    C     0.24998   0.49984   0.85614   0.00000  Uiso   1.00
C89    C     0.47173   0.22328   0.54100   0.00000  Uiso   1.00
C90    C     0.23135   0.46587   0.45916   0.00000  Uiso   1.00
C91    C     0.26865   0.03413   0.54084   0.00000  Uiso   1.00
C92    C     0.28637   0.48282   0.95918   0.00000  Uiso   1.00
C93    C     0.21113   0.49962   0.04078   0.00000  Uiso   1.00
C94    C     0.02211   0.21779   0.95905   0.00000  Uiso   1.00
C95    C     0.47692   0.28126   0.04093   0.00000  Uiso   1.00
C96    C     0.21205   0.00498   0.95974   0.00000  Uiso   1.00
C97    C     0.28654   0.48145   0.04082   0.00000  Uiso   1.00
C98    C     0.47464   0.27948   0.95910   0.00000  Uiso   1.00
C99    C     0.25001   0.49982   0.14389   0.00000  Uiso   1.00
C100   C     0.02405   0.21922   0.04097   0.00000  Uiso   1.00
C101   C    -0.00000   0.25000   0.47954   0.00000  Uiso   1.00
C102   C     0.00000   0.25000   0.52046   0.00000  Uiso   1.00
C103   C     0.25000  -0.00000   0.47961   0.00000  Uiso   1.00
C104   C     0.25000   0.00000   0.52039   0.00000  Uiso   1.00
C105   C     0.24904   0.49249   0.97978   0.00000  Uiso   1.00
C106   C     0.24898   0.49121   0.02045   0.00000  Uiso   1.00
C107   C     0.49881   0.24895   0.97959   0.00000  Uiso   1.00
C108   C     0.49993   0.24980   0.02045   0.00000  Uiso   1.00
C109   C     0.44351   0.19689   0.47965   0.00000  Uiso   1.00
C110   C     0.16999   0.08001   0.25000   0.00000  Uiso   1.00
C111   C     0.05648   0.30311   0.52035   0.00000  Uiso   1.00
C112   C     0.28875   0.06722   0.47963   0.00000  Uiso   1.00
C113   C     0.21125   0.43278   0.52037   0.00000  Uiso   1.00
C114   C     0.05648   0.30312   0.47961   0.00000  Uiso   1.00
C115   C     0.44352   0.19689   0.52038   0.00000  Uiso   1.00
C116   C     0.21125   0.43278   0.47967   0.00000  Uiso   1.00
C117   C     0.28875   0.06722   0.52033   0.00000  Uiso   1.00
C118   C     0.32221   0.46756   0.97928   0.00000  Uiso   1.00
C119   C     0.17309   0.00507   0.02014   0.00000  Uiso   1.00
C120   C     0.04607   0.18741   0.97964   0.00000  Uiso   1.00
F121   F     0.05116   0.30344   0.39686   0.00000  Uiso   1.00
F122   F     0.32248   0.47931   0.10206   0.00000  Uiso   1.00
F123   F     0.45816   0.31122   0.89743   0.00000  Uiso   1.00
F124   F     0.04438   0.19066   0.10310   0.00000  Uiso   1.00
F125   F     0.32402   0.48775   0.89920   0.00000  Uiso   1.00
F126   F     0.17934   0.02151   0.10011   0.00000  Uiso   1.00
F127   F     0.04522   0.19148   0.89692   0.00000  Uiso   1.00
F128   F     0.45358   0.30752   0.10299   0.00000  Uiso   1.00
F129   F     0.44884   0.19656   0.60314   0.00000  Uiso   1.00
F130   F     0.21926   0.43229   0.39766   0.00000  Uiso   1.00
F131   F     0.28074   0.06771   0.60234   0.00000  Uiso   1.00
F132   F     0.44884   0.19656   0.39690   0.00000  Uiso   1.00
F133   F     0.05117   0.30343   0.60310   0.00000  Uiso   1.00
F134   F     0.28078   0.06769   0.39761   0.00000  Uiso   1.00
F135   F     0.21922   0.43232   0.60239   0.00000  Uiso   1.00
F136   F     0.17533   0.00631   0.89934   0.00000  Uiso   1.00
H137   H     0.38759   0.18621   0.44178   0.00000  Uiso   1.00
H138   H     0.12905   0.48477   0.06796   0.00000  Uiso   1.00
H139   H     0.05454   0.13239   0.94001   0.00000  Uiso   1.00
H140   H     0.44695   0.36704   0.05960   0.00000  Uiso   1.00
H141   H     0.14703   0.05861   0.93542   0.00000  Uiso   1.00
H142   H     0.35627   0.42633   0.06201   0.00000  Uiso   1.00
H143   H     0.42329   0.37222   0.96431   0.00000  Uiso   1.00
H144   H     0.09883   0.16697   0.05994   0.00000  Uiso   1.00
H145   H     0.11241   0.31380   0.55821   0.00000  Uiso   1.00
H146   H     0.33953   0.09033   0.44039   0.00000  Uiso   1.00
H147   H     0.16046   0.40967   0.55961   0.00000  Uiso   1.00
H148   H     0.11242   0.31381   0.44175   0.00000  Uiso   1.00
H149   H     0.38758   0.18619   0.55825   0.00000  Uiso   1.00
H150   H     0.16049   0.40967   0.44043   0.00000  Uiso   1.00
H151   H     0.33951   0.09033   0.55957   0.00000  Uiso   1.00
H152   H     0.38976   0.45432   0.96439   0.00000  Uiso   1.00
O153   O     0.25000  -0.00000   0.25000   0.00000  Uiso   1.00
O154   O     0.25000   0.46538   0.66251   0.00000  Uiso   1.00
O155   O     0.46538   0.25000   0.33749   0.00000  Uiso   1.00
O156   O     0.03461   0.25000   0.66251   0.00000  Uiso   1.00
O157   O    -0.00000   0.21538   0.83749   0.00000  Uiso   1.00
O158   O     0.00000   0.28461   0.16251   0.00000  Uiso   1.00
O159   O     0.28461  -0.00000   0.83749   0.00000  Uiso   1.00
O160   O     0.21538  -0.00000   0.16251   0.00000  Uiso   1.00
O161   O    -0.00000   0.28461   0.83749   0.00000  Uiso   1.00
O162   O     0.00000   0.21538   0.16251   0.00000  Uiso   1.00
O163   O     0.21538  -0.00000   0.83749   0.00000  Uiso   1.00
O164   O     0.25000  -0.00000   0.75000   0.00000  Uiso   1.00
O165   O     0.28461  -0.00000   0.16251   0.00000  Uiso   1.00
O166   O     0.20126   0.08332   0.27298   0.00000  Uiso   1.00
O167   O     0.29873   0.41668   0.72702   0.00000  Uiso   1.00
O168   O     0.41668   0.20126   0.27298   0.00000  Uiso   1.00
O169   O     0.08332   0.29873   0.72702   0.00000  Uiso   1.00
O170   O     0.29873   0.41668   0.27298   0.00000  Uiso   1.00
O171   O     0.20126   0.08332   0.72702   0.00000  Uiso   1.00
O172   O     0.08332   0.29873   0.27298   0.00000  Uiso   1.00
O173   O     0.41668   0.20126   0.72702   0.00000  Uiso   1.00
O174   O     0.20126   0.41668   0.72702   0.00000  Uiso   1.00
O175   O     0.00000   0.25000   0.25000   0.00000  Uiso   1.00
O176   O     0.29873   0.08332   0.27298   0.00000  Uiso   1.00
O177   O     0.41668   0.29873   0.72702   0.00000  Uiso   1.00
O178   O     0.08332   0.20126   0.27298   0.00000  Uiso   1.00
O179   O     0.29873   0.08332   0.72702   0.00000  Uiso   1.00
O180   O     0.20126   0.41668   0.27298   0.00000  Uiso   1.00
O181   O     0.08332   0.20126   0.72702   0.00000  Uiso   1.00
O182   O     0.41668   0.29873   0.27298   0.00000  Uiso   1.00
O183   O     0.45126   0.33332   0.77298   0.00000  Uiso   1.00
O184   O     0.04873   0.16668   0.22702   0.00000  Uiso   1.00
O185   O     0.16668   0.45126   0.77298   0.00000  Uiso   1.00
O186   O     0.00000   0.25000   0.75000   0.00000  Uiso   1.00
O187   O     0.33332   0.04873   0.22702   0.00000  Uiso   1.00
O188   O     0.04873   0.16668   0.77298   0.00000  Uiso   1.00
O189   O     0.45126   0.33332   0.22702   0.00000  Uiso   1.00
O190   O     0.33332   0.04873   0.77298   0.00000  Uiso   1.00
O191   O     0.16668   0.45126   0.22702   0.00000  Uiso   1.00
O192   O     0.45126   0.16668   0.22702   0.00000  Uiso   1.00
O193   O     0.04873   0.33332   0.77298   0.00000  Uiso   1.00
O194   O     0.16668   0.04873   0.22702   0.00000  Uiso   1.00
O195   O     0.33332   0.45126   0.77298   0.00000  Uiso   1.00
O196   O     0.04873   0.33332   0.22702   0.00000  Uiso   1.00
O197   O     0.25000   0.46538   0.33749   0.00000  Uiso   1.00
O198   O     0.45126   0.16668   0.77298   0.00000  Uiso   1.00
O199   O     0.33332   0.45126   0.22702   0.00000  Uiso   1.00
O200   O     0.16668   0.04873   0.77298   0.00000  Uiso   1.00
O201   O     0.41333   0.13263   0.46024   0.00000  Uiso   1.00
O202   O     0.08665   0.36738   0.53977   0.00000  Uiso   1.00
O203   O     0.30410   0.13698   0.46092   0.00000  Uiso   1.00
O204   O     0.19590   0.36303   0.53908   0.00000  Uiso   1.00
O205   O     0.08661   0.36739   0.46013   0.00000  Uiso   1.00
O206   O     0.41339   0.13261   0.53988   0.00000  Uiso   1.00
O207   O     0.19588   0.36302   0.46103   0.00000  Uiso   1.00
O208   O     0.25000   0.03461   0.66251   0.00000  Uiso   1.00
O209   O     0.30411   0.13698   0.53897   0.00000  Uiso   1.00
O210   O     0.34983   0.41887   0.93463   0.00000  Uiso   1.00
O211   O     0.10101   0.48574   0.01743   0.00000  Uiso   1.00
O212   O     0.10862   0.15191   0.96299   0.00000  Uiso   1.00
O213   O     0.39184   0.34990   0.03718   0.00000  Uiso   1.00
O214   O     0.11359   0.05829   0.98307   0.00000  Uiso   1.00
O215   O     0.39531   0.46544   0.03493   0.00000  Uiso   1.00
O216   O     0.39209   0.32488   0.93974   0.00000  Uiso   1.00
O217   O     0.06708   0.11913   0.03685   0.00000  Uiso   1.00
O218   O     0.03461   0.25000   0.33749   0.00000  Uiso   1.00
O219   O     0.46538   0.25000   0.66251   0.00000  Uiso   1.00
O220   O     0.25000   0.03461   0.33749   0.00000  Uiso   1.00
Zn221  Zn    0.20052  -0.00000   0.21730   0.00000  Uiso   1.00
Zn222  Zn    0.04947   0.25000   0.28270   0.00000  Uiso   1.00
Zn223  Zn    0.25000   0.45052   0.71730   0.00000  Uiso   1.00
Zn224  Zn    0.25000   0.04947   0.28270   0.00000  Uiso   1.00
Zn225  Zn    0.04947   0.25000   0.71730   0.00000  Uiso   1.00
Zn226  Zn    0.45052   0.25000   0.28270   0.00000  Uiso   1.00
Zn227  Zn    0.25000   0.04947   0.71730   0.00000  Uiso   1.00
Zn228  Zn    0.25000   0.45052   0.28270   0.00000  Uiso   1.00
Zn229  Zn    0.29947  -0.00000   0.78270   0.00000  Uiso   1.00
Zn230  Zn    0.00000   0.20052   0.21730   0.00000  Uiso   1.00
Zn231  Zn    0.00000   0.29947   0.78270   0.00000  Uiso   1.00
Zn232  Zn    0.29947  -0.00000   0.21730   0.00000  Uiso   1.00
Zn233  Zn    0.20052  -0.00000   0.78270   0.00000  Uiso   1.00
Zn234  Zn    0.00000   0.29947   0.21730   0.00000  Uiso   1.00
Zn235  Zn    0.00000   0.20052   0.78270   0.00000  Uiso   1.00
Zn236  Zn    0.45052   0.25000   0.71730   0.00000  Uiso   1.00
C237   C     0.75000   0.49999   0.35601   0.00000  Uiso   1.00
C238   C     0.83000   0.41999   0.75000   0.00000  Uiso   1.00
C239   C     0.95264   0.31138   0.02032   0.00000  Uiso   1.00
C240   C     0.67530   0.01593   0.98073   0.00000  Uiso   1.00
C241   C     0.82286   0.46817   0.02009   0.00000  Uiso   1.00
C242   C     0.95002   0.30926   0.97974   0.00000  Uiso   1.00
C243   C     0.54740   0.18840   0.02035   0.00000  Uiso   1.00
C244   C     0.91175   0.17100   0.45901   0.00000  Uiso   1.00
C245   C     0.58824   0.32901   0.54099   0.00000  Uiso   1.00
C246   C     0.81355   0.09980   0.45880   0.00000  Uiso   1.00
C247   C     0.68644   0.40020   0.54120   0.00000  Uiso   1.00
C248   C     0.58823   0.32902   0.45895   0.00000  Uiso   1.00
C249   C     0.91999   0.16999   0.25000   0.00000  Uiso   1.00
C250   C     0.91177   0.17098   0.54105   0.00000  Uiso   1.00
C251   C     0.68645   0.40020   0.45887   0.00000  Uiso   1.00
C252   C     0.81355   0.09980   0.54113   0.00000  Uiso   1.00
C253   C     0.85725   0.44643   0.95826   0.00000  Uiso   1.00
C254   C     0.63191   0.49214   0.03758   0.00000  Uiso   1.00
C255   C     0.57049   0.15437   0.95903   0.00000  Uiso   1.00
C256   C     0.92985   0.34573   0.04079   0.00000  Uiso   1.00
C257   C     0.64319   0.04535   0.96398   0.00000  Uiso   1.00
C258   C     0.86021   0.45113   0.04075   0.00000  Uiso   1.00
C259   C     0.92070   0.33853   0.95970   0.00000  Uiso   1.00
C260   C     0.58001   0.33001   0.74999   0.00000  Uiso   1.00
C261   C     0.57368   0.15674   0.04092   0.00000  Uiso   1.00
C262   C     0.83000   0.41999   0.25000   0.00000  Uiso   1.00
C263   C     0.66999   0.08001   0.75000   0.00000  Uiso   1.00
C264   C     0.58001   0.33001   0.25000   0.00000  Uiso   1.00
C265   C     0.91999   0.16999   0.75000   0.00000  Uiso   1.00
C266   C     0.66999   0.41999   0.75000   0.00000  Uiso   1.00
C267   C     0.83001   0.08000   0.25000   0.00000  Uiso   1.00
C268   C     0.91999   0.33000   0.75000   0.00000  Uiso   1.00
C269   C     0.75000   0.00000   0.64399   0.00000  Uiso   1.00
C270   C     0.58001   0.17000   0.25000   0.00000  Uiso   1.00
C271   C     0.83001   0.08001   0.74999   0.00000  Uiso   1.00
C272   C     0.66999   0.41999   0.25000   0.00000  Uiso   1.00
C273   C     0.58001   0.16999   0.75000   0.00000  Uiso   1.00
C274   C     0.91999   0.33001   0.24999   0.00000  Uiso   1.00
C275   C     0.63833   0.38834   0.25001   0.00000  Uiso   1.00
C276   C     0.86167   0.11166   0.74999   0.00000  Uiso   1.00
C277   C     0.61167   0.13834   0.24999   0.00000  Uiso   1.00
C278   C     0.88833   0.36166   0.75001   0.00000  Uiso   1.00
C279   C     0.86167   0.11166   0.25001   0.00000  Uiso   1.00
C280   C     0.50000   0.25000   0.35595   0.00000  Uiso   1.00
C281   C     0.63833   0.38834   0.74999   0.00000  Uiso   1.00
C282   C     0.88833   0.36166   0.24999   0.00000  Uiso   1.00
C283   C     0.61166   0.13834   0.75001   0.00000  Uiso   1.00
C284   C     0.63834   0.11167   0.75000   0.00000  Uiso   1.00
C285   C     0.86166   0.38833   0.24999   0.00000  Uiso   1.00
C286   C     0.61166   0.36167   0.74999   0.00000  Uiso   1.00
C287   C     0.88834   0.13833   0.25001   0.00000  Uiso   1.00
C288   C     0.86166   0.38833   0.75001   0.00000  Uiso   1.00
C289   C     0.63834   0.11166   0.24999   0.00000  Uiso   1.00
C290   C     0.88834   0.13833   0.74999   0.00000  Uiso   1.00
C291   C     0.50000   0.25000   0.64405   0.00000  Uiso   1.00
C292   C     0.61166   0.36167   0.25000   0.00000  Uiso   1.00
C293   C     0.52719   0.27664   0.41817   0.00000  Uiso   1.00
C294   C     0.97281   0.22336   0.58183   0.00000  Uiso   1.00
C295   C     0.73344   0.46567   0.41847   0.00000  Uiso   1.00
C296   C     0.76656   0.03432   0.58153   0.00000  Uiso   1.00
C297   C     0.97281   0.22336   0.41819   0.00000  Uiso   1.00
C298   C     0.52719   0.27664   0.58181   0.00000  Uiso   1.00
C299   C     0.76659   0.03430   0.41844   0.00000  Uiso   1.00
C300   C     0.73341   0.46570   0.58156   0.00000  Uiso   1.00
C301   C     0.71220   0.00423   0.91914   0.00000  Uiso   1.00
C302   C     0.50001   0.24998   0.85598   0.00000  Uiso   1.00
C303   C     0.78654   0.48515   0.08149   0.00000  Uiso   1.00
C304   C     0.97688   0.28025   0.91837   0.00000  Uiso   1.00
C305   C     0.52323   0.21970   0.08178   0.00000  Uiso   1.00
C306   C     0.78704   0.48924   0.91890   0.00000  Uiso   1.00
C307   C     0.71257   0.00431   0.08105   0.00000  Uiso   1.00
C308   C     0.52183   0.21875   0.91823   0.00000  Uiso   1.00
C309   C     0.97744   0.28059   0.08174   0.00000  Uiso   1.00
C310   C     0.50000   0.25000   0.39828   0.00000  Uiso   1.00
C311   C     0.50000   0.25000   0.60172   0.00000  Uiso   1.00
C312   C     0.75001   0.49999   0.39841   0.00000  Uiso   1.00
C313   C     0.50003   0.25002   0.14403   0.00000  Uiso   1.00
C314   C     0.74999   0.00001   0.60159   0.00000  Uiso   1.00
C315   C     0.74983   0.49819   0.89873   0.00000  Uiso   1.00
C316   C     0.74985   0.49674   0.10141   0.00000  Uiso   1.00
C317   C     0.99955   0.24972   0.89835   0.00000  Uiso   1.00
C318   C     0.50034   0.25016   0.10168   0.00000  Uiso   1.00
C319   C     0.97172   0.22328   0.45902   0.00000  Uiso   1.00
C320   C     0.52828   0.27672   0.54098   0.00000  Uiso   1.00
C321   C     0.76867   0.03412   0.45914   0.00000  Uiso   1.00
C322   C     0.73133   0.46588   0.54086   0.00000  Uiso   1.00
C323   C     0.52827   0.27673   0.45900   0.00000  Uiso   1.00
C324   C     0.74998   0.49984   0.85614   0.00000  Uiso   1.00
C325   C     0.97173   0.22328   0.54100   0.00000  Uiso   1.00
C326   C     0.73135   0.46587   0.45916   0.00000  Uiso   1.00
C327   C     0.76865   0.03413   0.54084   0.00000  Uiso   1.00
C328   C     0.78637   0.48282   0.95918   0.00000  Uiso   1.00
C329   C     0.71113   0.49962   0.04078   0.00000  Uiso   1.00
C330   C     0.52211   0.21779   0.95905   0.00000  Uiso   1.00
C331   C     0.97692   0.28126   0.04093   0.00000  Uiso   1.00
C332   C     0.71205   0.00498   0.95974   0.00000  Uiso   1.00
C333   C     0.78654   0.48145   0.04082   0.00000  Uiso   1.00
C334   C     0.97464   0.27948   0.95910   0.00000  Uiso   1.00
C335   C     0.75001   0.49982   0.14389   0.00000  Uiso   1.00
C336   C     0.52405   0.21922   0.04097   0.00000  Uiso   1.00
C337   C     0.50000   0.25000   0.47954   0.00000  Uiso   1.00
C338   C     0.50000   0.25000   0.52046   0.00000  Uiso   1.00
C339   C     0.75000  -0.00000   0.47961   0.00000  Uiso   1.00
C340   C     0.75000   0.00000   0.52039   0.00000  Uiso   1.00
C341   C     0.74904   0.49249   0.97978   0.00000  Uiso   1.00
C342   C     0.74898   0.49121   0.02045   0.00000  Uiso   1.00
C343   C     0.99881   0.24895   0.97959   0.00000  Uiso   1.00
C344   C     0.99993   0.24980   0.02045   0.00000  Uiso   1.00
C345   C     0.94351   0.19689   0.47965   0.00000  Uiso   1.00
C346   C     0.66999   0.08001   0.25000   0.00000  Uiso   1.00
C347   C     0.55648   0.30311   0.52035   0.00000  Uiso   1.00
C348   C     0.78875   0.06722   0.47963   0.00000  Uiso   1.00
C349   C     0.71125   0.43278   0.52037   0.00000  Uiso   1.00
C350   C     0.55648   0.30312   0.47961   0.00000  Uiso   1.00
C351   C     0.94352   0.19689   0.52038   0.00000  Uiso   1.00
C352   C     0.71125   0.43278   0.47967   0.00000  Uiso   1.00
C353   C     0.78875   0.06722   0.52033   0.00000  Uiso   1.00
C354   C     0.82221   0.46756   0.97928   0.00000  Uiso   1.00
C355   C     0.67309   0.00507   0.02014   0.00000  Uiso   1.00
C356   C     0.54607   0.18741   0.97964   0.00000  Uiso   1.00
F357   F     0.55116   0.30344   0.39686   0.00000  Uiso   1.00
F358   F     0.82248   0.47931   0.10206   0.00000  Uiso   1.00
F359   F     0.95816   0.31122   0.89743   0.00000  Uiso   1.00
F360   F     0.54438   0.19066   0.10310   0.00000  Uiso   1.00
F361   F     0.82402   0.48775   0.89920   0.00000  Uiso   1.00
F362   F     0.67934   0.02151   0.10011   0.00000  Uiso   1.00
F363   F     0.54522   0.19148   0.89692   0.00000  Uiso   1.00
F364   F     0.95358   0.30752   0.10299   0.00000  Uiso   1.00
F365   F     0.94884   0.19656   0.60314   0.00000  Uiso   1.00
F366   F     0.71926   0.43229   0.39766   0.00000  Uiso   1.00
F367   F     0.78074   0.06771   0.60234   0.00000  Uiso   1.00
F368   F     0.94884   0.19656   0.39690   0.00000  Uiso   1.00
F369   F     0.55117   0.30343   0.60310   0.00000  Uiso   1.00
F370   F     0.78078   0.06769   0.39761   0.00000  Uiso   1.00
F371   F     0.71922   0.43232   0.60239   0.00000  Uiso   1.00
F372   F     0.67533   0.00631   0.89934   0.00000  Uiso   1.00
H373   H     0.88759   0.18621   0.44178   0.00000  Uiso   1.00
H374   H     0.62905   0.48477   0.06796   0.00000  Uiso   1.00
H375   H     0.55454   0.13239   0.94001   0.00000  Uiso   1.00
H376   H     0.94695   0.36704   0.05960   0.00000  Uiso   1.00
H377   H     0.64703   0.05861   0.93542   0.00000  Uiso   1.00
H378   H     0.85627   0.42633   0.06201   0.00000  Uiso   1.00
H379   H     0.92329   0.37222   0.96431   0.00000  Uiso   1.00
H380   H     0.59883   0.16697   0.05994   0.00000  Uiso   1.00
H381   H     0.61241   0.31380   0.55821   0.00000  Uiso   1.00
H382   H     0.83953   0.09033   0.44039   0.00000  Uiso   1.00
H383   H     0.66046   0.40967   0.55961   0.00000  Uiso   1.00
H384   H     0.61242   0.31381   0.44175   0.00000  Uiso   1.00
H385   H     0.88758   0.18619   0.55825   0.00000  Uiso   1.00
H386   H     0.66049   0.40967   0.44043   0.00000  Uiso   1.00
H387   H     0.83951   0.09033   0.55957   0.00000  Uiso   1.00
H388   H     0.88976   0.45432   0.96439   0.00000  Uiso   1.00
O389   O     0.75000  -0.00000   0.25000   0.00000  Uiso   1.00
O390   O     0.75000   0.46538   0.66251   0.00000  Uiso   1.00
O391   O     0.96538   0.25000   0.33749   0.00000  Uiso   1.00
O392   O     0.53461   0.25000   0.66251   0.00000  Uiso   1.00
O393   O     0.50000   0.21538   0.83749   0.00000  Uiso   1.00
O394   O     0.50000   0.28461   0.16251   0.00000  Uiso   1.00
O395   O     0.78461  -0.00000   0.83749   0.00000  Uiso   1.00
O396   O     0.71538  -0.00000   0.16251   0.00000  Uiso   1.00
O397   O     0.50000   0.28461   0.83749   0.00000  Uiso   1.00
O398   O     0.50000   0.21538   0.16251   0.00000  Uiso   1.00
O399   O     0.71538  -0.00000   0.83749   0.00000  Uiso   1.00
O400   O     0.75000  -0.00000   0.75000   0.00000  Uiso   1.00
O401   O     0.78461  -0.00000   0.16251   0.00000  Uiso   1.00
O402   O     0.70126   0.08332   0.27298   0.00000  Uiso   1.00
O403   O     0.79873   0.41668   0.72702   0.00000  Uiso   1.00
O404   O     0.91668   0.20126   0.27298   0.00000  Uiso   1.00
O405   O     0.58332   0.29873   0.72702   0.00000  Uiso   1.00
O406   O     0.79873   0.41668   0.27298   0.00000  Uiso   1.00
O407   O     0.70126   0.08332   0.72702   0.00000  Uiso   1.00
O408   O     0.58332   0.29873   0.27298   0.00000  Uiso   1.00
O409   O     0.91668   0.20126   0.72702   0.00000  Uiso   1.00
O410   O     0.70126   0.41668   0.72702   0.00000  Uiso   1.00
O411   O     0.50000   0.25000   0.25000   0.00000  Uiso   1.00
O412   O     0.79873   0.08332   0.27298   0.00000  Uiso   1.00
O413   O     0.91668   0.29873   0.72702   0.00000  Uiso   1.00
O414   O     0.58332   0.20126   0.27298   0.00000  Uiso   1.00
O415   O     0.79873   0.08332   0.72702   0.00000  Uiso   1.00
O416   O     0.70126   0.41668   0.27298   0.00000  Uiso   1.00
O417   O     0.58332   0.20126   0.72702   0.00000  Uiso   1.00
O418   O     0.91668   0.29873   0.27298   0.00000  Uiso   1.00
O419   O     0.95126   0.33332   0.77298   0.00000  Uiso   1.00
O420   O     0.54873   0.16668   0.22702   0.00000  Uiso   1.00
O421   O     0.66668   0.45126   0.77298   0.00000  Uiso   1.00
O422   O     0.50000   0.25000   0.75000   0.00000  Uiso   1.00
O423   O     0.83332   0.04873   0.22702   0.00000  Uiso   1.00
O424   O     0.54873   0.16668   0.77298   0.00000  Uiso   1.00
O425   O     0.95126   0.33332   0.22702   0.00000  Uiso   1.00
O426   O     0.83332   0.04873   0.77298   0.00000  Uiso   1.00
O427   O     0.66668   0.45126   0.22702   0.00000  Uiso   1.00
O428   O     0.95126   0.16668   0.22702   0.00000  Uiso   1.00
O429   O     0.54873   0.33332   0.77298   0.00000  Uiso   1.00
O430   O     0.66668   0.04873   0.22702   0.00000  Uiso   1.00
O431   O     0.83332   0.45126   0.77298   0.00000  Uiso   1.00
O432   O     0.54873   0.33332   0.22702   0.00000  Uiso   1.00
O433   O     0.75000   0.46538   0.33749   0.00000  Uiso   1.00
O434   O     0.95126   0.16668   0.77298   0.00000  Uiso   1.00
O435   O     0.83332   0.45126   0.22702   0.00000  Uiso   1.00
O436   O     0.66668   0.04873   0.77298   0.00000  Uiso   1.00
O437   O     0.91333   0.13263   0.46024   0.00000  Uiso   1.00
O438   O     0.58665   0.36738   0.53977   0.00000  Uiso   1.00
O439   O     0.80410   0.13698   0.46092   0.00000  Uiso   1.00
O440   O     0.69590   0.36303   0.53908   0.00000  Uiso   1.00
O441   O     0.58661   0.36739   0.46013   0.00000  Uiso   1.00
O442   O     0.91339   0.13261   0.53988   0.00000  Uiso   1.00
O443   O     0.69588   0.36302   0.46103   0.00000  Uiso   1.00
O444   O     0.75000   0.03461   0.66251   0.00000  Uiso   1.00
O445   O     0.80411   0.13698   0.53897   0.00000  Uiso   1.00
O446   O     0.84983   0.41887   0.93463   0.00000  Uiso   1.00
O447   O     0.60101   0.48574   0.01743   0.00000  Uiso   1.00
O448   O     0.60862   0.15191   0.96299   0.00000  Uiso   1.00
O449   O     0.89184   0.34990   0.03718   0.00000  Uiso   1.00
O450   O     0.61359   0.05829   0.98307   0.00000  Uiso   1.00
O451   O     0.89531   0.46544   0.03493   0.00000  Uiso   1.00
O452   O     0.89209   0.32488   0.93974   0.00000  Uiso   1.00
O453   O     0.56708   0.11913   0.03685   0.00000  Uiso   1.00
O454   O     0.53461   0.25000   0.33749   0.00000  Uiso   1.00
O455   O     0.96538   0.25000   0.66251   0.00000  Uiso   1.00
O456   O     0.75000   0.03461   0.33749   0.00000  Uiso   1.00
Zn457  Zn    0.70052  -0.00000   0.21730   0.00000  Uiso   1.00
Zn458  Zn    0.54947   0.25000   0.28270   0.00000  Uiso   1.00
Zn459  Zn    0.75000   0.45052   0.71730   0.00000  Uiso   1.00
Zn460  Zn    0.75000   0.04947   0.28270   0.00000  Uiso   1.00
Zn461  Zn    0.54947   0.25000   0.71730   0.00000  Uiso   1.00
Zn462  Zn    0.95052   0.25000   0.28270   0.00000  Uiso   1.00
Zn463  Zn    0.75000   0.04947   0.71730   0.00000  Uiso   1.00
Zn464  Zn    0.75000   0.45052   0.28270   0.00000  Uiso   1.00
Zn465  Zn    0.79947  -0.00000   0.78270   0.00000  Uiso   1.00
Zn466  Zn    0.50000   0.20052   0.21730   0.00000  Uiso   1.00
Zn467  Zn    0.50000   0.29947   0.78270   0.00000  Uiso   1.00
Zn468  Zn    0.79947  -0.00000   0.21730   0.00000  Uiso   1.00
Zn469  Zn    0.70052  -0.00000   0.78270   0.00000  Uiso   1.00
Zn470  Zn    0.50000   0.29947   0.21730   0.00000  Uiso   1.00
Zn471  Zn    0.50000   0.20052   0.78270   0.00000  Uiso   1.00
Zn472  Zn    0.95052   0.25000   0.71730   0.00000  Uiso   1.00
C473   C     0.25000   0.99999   0.35601   0.00000  Uiso   1.00
C474   C     0.33000   0.91999   0.75000   0.00000  Uiso   1.00
C475   C     0.45264   0.81138   0.02032   0.00000  Uiso   1.00
C476   C     0.17530   0.51593   0.98073   0.00000  Uiso   1.00
C477   C     0.32286   0.96817   0.02009   0.00000  Uiso   1.00
C478   C     0.45002   0.80926   0.97974   0.00000  Uiso   1.00
C479   C     0.04740   0.68840   0.02035   0.00000  Uiso   1.00
C480   C     0.41175   0.67100   0.45901   0.00000  Uiso   1.00
C481   C     0.08824   0.82901   0.54099   0.00000  Uiso   1.00
C482   C     0.31355   0.59980   0.45880   0.00000  Uiso   1.00
C483   C     0.18644   0.90020   0.54120   0.00000  Uiso   1.00
C484   C     0.08823   0.82902   0.45895   0.00000  Uiso   1.00
C485   C     0.41999   0.66999   0.25000   0.00000  Uiso   1.00
C486   C     0.41177   0.67098   0.54105   0.00000  Uiso   1.00
C487   C     0.18645   0.90020   0.45887   0.00000  Uiso   1.00
C488   C     0.31355   0.59980   0.54113   0.00000  Uiso   1.00
C489   C     0.35725   0.94643   0.95826   0.00000  Uiso   1.00
C490   C     0.13191   0.99214   0.03758   0.00000  Uiso   1.00
C491   C     0.07049   0.65437   0.95903   0.00000  Uiso   1.00
C492   C     0.42985   0.84573   0.04079   0.00000  Uiso   1.00
C493   C     0.14319   0.54535   0.96398   0.00000  Uiso   1.00
C494   C     0.36021   0.95113   0.04075   0.00000  Uiso   1.00
C495   C     0.42070   0.83853   0.95970   0.00000  Uiso   1.00
C496   C     0.08001   0.83001   0.74999   0.00000  Uiso   1.00
C497   C     0.07368   0.65674   0.04092   0.00000  Uiso   1.00
C498   C     0.33000   0.91999   0.25000   0.00000  Uiso   1.00
C499   C     0.16999   0.58001   0.75000   0.00000  Uiso   1.00
C500   C     0.08001   0.83001   0.25000   0.00000  Uiso   1.00
C501   C     0.41999   0.66999   0.75000   0.00000  Uiso   1.00
C502   C     0.16999   0.91999   0.75000   0.00000  Uiso   1.00
C503   C     0.33001   0.58000   0.25000   0.00000  Uiso   1.00
C504   C     0.41999   0.83000   0.75000   0.00000  Uiso   1.00
C505   C     0.25000   0.50000   0.64399   0.00000  Uiso   1.00
C506   C     0.08001   0.67000   0.25000   0.00000  Uiso   1.00
C507   C     0.33001   0.58001   0.74999   0.00000  Uiso   1.00
C508   C     0.16999   0.91999   0.25000   0.00000  Uiso   1.00
C509   C     0.08001   0.66999   0.75000   0.00000  Uiso   1.00
C510   C     0.41999   0.83001   0.24999   0.00000  Uiso   1.00
C511   C     0.13833   0.88834   0.25001   0.00000  Uiso   1.00
C512   C     0.36167   0.61166   0.74999   0.00000  Uiso   1.00
C513   C     0.11167   0.63834   0.24999   0.00000  Uiso   1.00
C514   C     0.38833   0.86166   0.75001   0.00000  Uiso   1.00
C515   C     0.36167   0.61166   0.25001   0.00000  Uiso   1.00
C516   C    -0.00000   0.75000   0.35595   0.00000  Uiso   1.00
C517   C     0.13833   0.88834   0.74999   0.00000  Uiso   1.00
C518   C     0.38833   0.86166   0.24999   0.00000  Uiso   1.00
C519   C     0.11166   0.63834   0.75001   0.00000  Uiso   1.00
C520   C     0.13834   0.61167   0.75000   0.00000  Uiso   1.00
C521   C     0.36166   0.88833   0.24999   0.00000  Uiso   1.00
C522   C     0.11166   0.86167   0.74999   0.00000  Uiso   1.00
C523   C     0.38834   0.63833   0.25001   0.00000  Uiso   1.00
C524   C     0.36166   0.88833   0.75001   0.00000  Uiso   1.00
C525   C     0.13834   0.61166   0.24999   0.00000  Uiso   1.00
C526   C     0.38834   0.63833   0.74999   0.00000  Uiso   1.00
C527   C     0.00000   0.75000   0.64405   0.00000  Uiso   1.00
C528   C     0.11166   0.86167   0.25000   0.00000  Uiso   1.00
C529   C     0.02719   0.77664   0.41817   0.00000  Uiso   1.00
C530   C     0.47281   0.72336   0.58183   0.00000  Uiso   1.00
C531   C     0.23344   0.96567   0.41847   0.00000  Uiso   1.00
C532   C     0.26656   0.53432   0.58153   0.00000  Uiso   1.00
C533   C     0.47281   0.72336   0.41819   0.00000  Uiso   1.00
C534   C     0.02719   0.77664   0.58181   0.00000  Uiso   1.00
C535   C     0.26659   0.53430   0.41844   0.00000  Uiso   1.00
C536   C     0.23341   0.96570   0.58156   0.00000  Uiso   1.00
C537   C     0.21220   0.50423   0.91914   0.00000  Uiso   1.00
C538   C     0.00001   0.74998   0.85598   0.00000  Uiso   1.00
C539   C     0.28654   0.98515   0.08149   0.00000  Uiso   1.00
C540   C     0.47688   0.78025   0.91837   0.00000  Uiso   1.00
C541   C     0.02323   0.71970   0.08178   0.00000  Uiso   1.00
C542   C     0.28704   0.98924   0.91890   0.00000  Uiso   1.00
C543   C     0.21257   0.50431   0.08105   0.00000  Uiso   1.00
C544   C     0.02183   0.71875   0.91823   0.00000  Uiso   1.00
C545   C     0.47744   0.78059   0.08174   0.00000  Uiso   1.00
C546   C    -0.00000   0.75000   0.39828   0.00000  Uiso   1.00
C547   C     0.00000   0.75000   0.60172   0.00000  Uiso   1.00
C548   C     0.25001   0.99999   0.39841   0.00000  Uiso   1.00
C549   C     0.00003   0.75002   0.14403   0.00000  Uiso   1.00
C550   C     0.24999   0.50001   0.60159   0.00000  Uiso   1.00
C551   C     0.24983   0.99819   0.89873   0.00000  Uiso   1.00
C552   C     0.24985   0.99674   0.10141   0.00000  Uiso   1.00
C553   C     0.49955   0.74972   0.89835   0.00000  Uiso   1.00
C554   C     0.00034   0.75016   0.10168   0.00000  Uiso   1.00
C555   C     0.47172   0.72328   0.45902   0.00000  Uiso   1.00
C556   C     0.02828   0.77672   0.54098   0.00000  Uiso   1.00
C557   C     0.26867   0.53412   0.45914   0.00000  Uiso   1.00
C558   C     0.23133   0.96588   0.54086   0.00000  Uiso   1.00
C559   C     0.02827   0.77673   0.45900   0.00000  Uiso   1.00
C560   C     0.24998   0.99984   0.85614   0.00000  Uiso   1.00
C561   C     0.47173   0.72328   0.54100   0.00000  Uiso   1.00
C562   C     0.23135   0.96587   0.45916   0.00000  Uiso   1.00
C563   C     0.26865   0.53413   0.54084   0.00000  Uiso   1.00
C564   C     0.28637   0.98282   0.95918   0.00000  Uiso   1.00
C565   C     0.21113   0.99962   0.04078   0.00000  Uiso   1.00
C566   C     0.02211   0.71779   0.95905   0.00000  Uiso   1.00
C567   C     0.47692   0.78126   0.04093   0.00000  Uiso   1.00
C568   C     0.21205   0.50498   0.95974   0.00000  Uiso   1.00
C569   C     0.28654   0.98145   0.04082   0.00000  Uiso   1.00
C570   C     0.47464   0.77948   0.95910   0.00000  Uiso   1.00
C571   C     0.25001   0.99982   0.14389   0.00000  Uiso   1.00
C572   C     0.02405   0.71922   0.04097   0.00000  Uiso   1.00
C573   C    -0.00000   0.75000   0.47954   0.00000  Uiso   1.00
C574   C     0.00000   0.75000   0.52046   0.00000  Uiso   1.00
C575   C     0.25000   0.50000   0.47961   0.00000  Uiso   1.00
C576   C     0.25000   0.50000   0.52039   0.00000  Uiso   1.00
C577   C     0.24904   0.99249   0.97978   0.00000  Uiso   1.00
C578   C     0.24898   0.99121   0.02045   0.00000  Uiso   1.00
C579   C     0.49881   0.74895   0.97959   0.00000  Uiso   1.00
C580   C     0.49993   0.74980   0.02045   0.00000  Uiso   1.00
C581   C     0.44351   0.69689   0.47965   0.00000  Uiso   1.00
C582   C     0.16999   0.58001   0.25000   0.00000  Uiso   1.00
C583   C     0.05648   0.80311   0.52035   0.00000  Uiso   1.00
C584   C     0.28875   0.56722   0.47963   0.00000  Uiso   1.00
C585   C     0.21125   0.93278   0.52037   0.00000  Uiso   1.00
C586   C     0.05648   0.80312   0.47961   0.00000  Uiso   1.00
C587   C     0.44352   0.69689   0.52038   0.00000  Uiso   1.00
C588   C     0.21125   0.93278   0.47967   0.00000  Uiso   1.00
C589   C     0.28875   0.56722   0.52033   0.00000  Uiso   1.00
C590   C     0.32221   0.96756   0.97928   0.00000  Uiso   1.00
C591   C     0.17309   0.50507   0.02014   0.00000  Uiso   1.00
C592   C     0.04607   0.68741   0.97964   0.00000  Uiso   1.00
F593   F     0.05116   0.80344   0.39686   0.00000  Uiso   1.00
F594   F     0.32248   0.97931   0.10206   0.00000  Uiso   1.00
F595   F     0.45816   0.81122   0.89743   0.00000  Uiso   1.00
F596   F     0.04438   0.69066   0.10310   0.00000  Uiso   1.00
F597   F     0.32402   0.98775   0.89920   0.00000  Uiso   1.00
F598   F     0.17934   0.52151   0.10011   0.00000  Uiso   1.00
F599   F     0.04522   0.69148   0.89692   0.00000  Uiso   1.00
F600   F     0.45358   0.80752   0.10299   0.00000  Uiso   1.00
F601   F     0.44884   0.69656   0.60314   0.00000  Uiso   1.00
F602   F     0.21926   0.93229   0.39766   0.00000  Uiso   1.00
F603   F     0.28074   0.56771   0.60234   0.00000  Uiso   1.00
F604   F     0.44884   0.69656   0.39690   0.00000  Uiso   1.00
F605   F     0.05117   0.80343   0.60310   0.00000  Uiso   1.00
F606   F     0.28078   0.56769   0.39761   0.00000  Uiso   1.00
F607   F     0.21922   0.93232   0.60239   0.00000  Uiso   1.00
F608   F     0.17533   0.50631   0.89934   0.00000  Uiso   1.00
H609   H     0.38759   0.68621   0.44178   0.00000  Uiso   1.00
H610   H     0.12905   0.98477   0.06796   0.00000  Uiso   1.00
H611   H     0.05454   0.63239   0.94001   0.00000  Uiso   1.00
H612   H     0.44695   0.86704   0.05960   0.00000  Uiso   1.00
H613   H     0.14703   0.55861   0.93542   0.00000  Uiso   1.00
H614   H     0.35627   0.92633   0.06201   0.00000  Uiso   1.00
H615   H     0.42329   0.87222   0.96431   0.00000  Uiso   1.00
H616   H     0.09883   0.66697   0.05994   0.00000  Uiso   1.00
H617   H     0.11241   0.81380   0.55821   0.00000  Uiso   1.00
H618   H     0.33953   0.59033   0.44039   0.00000  Uiso   1.00
H619   H     0.16046   0.90967   0.55961   0.00000  Uiso   1.00
H620   H     0.11242   0.81381   0.44175   0.00000  Uiso   1.00
H621   H     0.38758   0.68619   0.55825   0.00000  Uiso   1.00
H622   H     0.16049   0.90967   0.44043   0.00000  Uiso   1.00
H623   H     0.33951   0.59033   0.55957   0.00000  Uiso   1.00
H624   H     0.38976   0.95432   0.96439   0.00000  Uiso   1.00
O625   O     0.25000   0.50000   0.25000   0.00000  Uiso   1.00
O626   O     0.25000   0.96538   0.66251   0.00000  Uiso   1.00
O627   O     0.46538   0.75000   0.33749   0.00000  Uiso   1.00
O628   O     0.03461   0.75000   0.66251   0.00000  Uiso   1.00
O629   O    -0.00000   0.71538   0.83749   0.00000  Uiso   1.00
O630   O     0.00000   0.78461   0.16251   0.00000  Uiso   1.00
O631   O     0.28461   0.50000   0.83749   0.00000  Uiso   1.00
O632   O     0.21538   0.50000   0.16251   0.00000  Uiso   1.00
O633   O    -0.00000   0.78461   0.83749   0.00000  Uiso   1.00
O634   O     0.00000   0.71538   0.16251   0.00000  Uiso   1.00
O635   O     0.21538   0.50000   0.83749   0.00000  Uiso   1.00
O636   O     0.25000   0.50000   0.75000   0.00000  Uiso   1.00
O637   O     0.28461   0.50000   0.16251   0.00000  Uiso   1.00
O638   O     0.20126   0.58332   0.27298   0.00000  Uiso   1.00
O639   O     0.29873   0.91668   0.72702   0.00000  Uiso   1.00
O640   O     0.41668   0.70126   0.27298   0.00000  Uiso   1.00
O641   O     0.08332   0.79873   0.72702   0.00000  Uiso   1.00
O642   O     0.29873   0.91668   0.27298   0.00000  Uiso   1.00
O643   O     0.20126   0.58332   0.72702   0.00000  Uiso   1.00
O644   O     0.08332   0.79873   0.27298   0.00000  Uiso   1.00
O645   O     0.41668   0.70126   0.72702   0.00000  Uiso   1.00
O646   O     0.20126   0.91668   0.72702   0.00000  Uiso   1.00
O647   O     0.00000   0.75000   0.25000   0.00000  Uiso   1.00
O648   O     0.29873   0.58332   0.27298   0.00000  Uiso   1.00
O649   O     0.41668   0.79873   0.72702   0.00000  Uiso   1.00
O650   O     0.08332   0.70126   0.27298   0.00000  Uiso   1.00
O651   O     0.29873   0.58332   0.72702   0.00000  Uiso   1.00
O652   O     0.20126   0.91668   0.27298   0.00000  Uiso   1.00
O653   O     0.08332   0.70126   0.72702   0.00000  Uiso   1.00
O654   O     0.41668   0.79873   0.27298   0.00000  Uiso   1.00
O655   O     0.45126   0.83332   0.77298   0.00000  Uiso   1.00
O656   O     0.04873   0.66668   0.22702   0.00000  Uiso   1.00
O657   O     0.16668   0.95126   0.77298   0.00000  Uiso   1.00
O658   O     0.00000   0.75000   0.75000   0.00000  Uiso   1.00
O659   O     0.33332   0.54873   0.22702   0.00000  Uiso   1.00
O660   O     0.04873   0.66668   0.77298   0.00000  Uiso   1.00
O661   O     0.45126   0.83332   0.22702   0.00000  Uiso   1.00
O662   O     0.33332   0.54873   0.77298   0.00000  Uiso   1.00
O663   O     0.16668   0.95126   0.22702   0.00000  Uiso   1.00
O664   O     0.45126   0.66668   0.22702   0.00000  Uiso   1.00
O665   O     0.04873   0.83332   0.77298   0.00000  Uiso   1.00
O666   O     0.16668   0.54873   0.22702   0.00000  Uiso   1.00
O667   O     0.33332   0.95126   0.77298   0.00000  Uiso   1.00
O668   O     0.04873   0.83332   0.22702   0.00000  Uiso   1.00
O669   O     0.25000   0.96538   0.33749   0.00000  Uiso   1.00
O670   O     0.45126   0.66668   0.77298   0.00000  Uiso   1.00
O671   O     0.33332   0.95126   0.22702   0.00000  Uiso   1.00
O672   O     0.16668   0.54873   0.77298   0.00000  Uiso   1.00
O673   O     0.41333   0.63263   0.46024   0.00000  Uiso   1.00
O674   O     0.08665   0.86738   0.53977   0.00000  Uiso   1.00
O675   O     0.30410   0.63698   0.46092   0.00000  Uiso   1.00
O676   O     0.19590   0.86303   0.53908   0.00000  Uiso   1.00
O677   O     0.08661   0.86739   0.46013   0.00000  Uiso   1.00
O678   O     0.41339   0.63261   0.53988   0.00000  Uiso   1.00
O679   O     0.19588   0.86302   0.46103   0.00000  Uiso   1.00
O680   O     0.25000   0.53461   0.66251   0.00000  Uiso   1.00
O681   O     0.30411   0.63698   0.53897   0.00000  Uiso   1.00
O682   O     0.34983   0.91887   0.93463   0.00000  Uiso   1.00
O683   O     0.10101   0.98574   0.01743   0.00000  Uiso   1.00
O684   O     0.10862   0.65191   0.96299   0.00000  Uiso   1.00
O685   O     0.39184   0.84990   0.03718   0.00000  Uiso   1.00
O686   O     0.11359   0.55829   0.98307   0.00000  Uiso   1.00
O687   O     0.39531   0.96544   0.03493   0.00000  Uiso   1.00
O688   O     0.39209   0.82488   0.93974   0.00000  Uiso   1.00
O689   O     0.06708   0.61913   0.03685   0.00000  Uiso   1.00
O690   O     0.03461   0.75000   0.33749   0.00000  Uiso   1.00
O691   O     0.46538   0.75000   0.66251   0.00000  Uiso   1.00
O692   O     0.25000   0.53461   0.33749   0.00000  Uiso   1.00
Zn693  Zn    0.20052   0.50000   0.21730   0.00000  Uiso   1.00
Zn694  Zn    0.04947   0.75000   0.28270   0.00000  Uiso   1.00
Zn695  Zn    0.25000   0.95052   0.71730   0.00000  Uiso   1.00
Zn696  Zn    0.25000   0.54947   0.28270   0.00000  Uiso   1.00
Zn697  Zn    0.04947   0.75000   0.71730   0.00000  Uiso   1.00
Zn698  Zn    0.45052   0.75000   0.28270   0.00000  Uiso   1.00
Zn699  Zn    0.25000   0.54947   0.71730   0.00000  Uiso   1.00
Zn700  Zn    0.25000   0.95052   0.28270   0.00000  Uiso   1.00
Zn701  Zn    0.29947   0.50000   0.78270   0.00000  Uiso   1.00
Zn702  Zn    0.00000   0.70052   0.21730   0.00000  Uiso   1.00
Zn703  Zn    0.00000   0.79947   0.78270   0.00000  Uiso   1.00
Zn704  Zn    0.29947   0.50000   0.21730   0.00000  Uiso   1.00
Zn705  Zn    0.20052   0.50000   0.78270   0.00000  Uiso   1.00
Zn706  Zn    0.00000   0.79947   0.21730   0.00000  Uiso   1.00
Zn707  Zn    0.00000   0.70052   0.78270   0.00000  Uiso   1.00
Zn708  Zn    0.45052   0.75000   0.71730   0.00000  Uiso   1.00
C709   C     0.75000   0.99999   0.35601   0.00000  Uiso   1.00
C710   C     0.83000   0.91999   0.75000   0.00000  Uiso   1.00
C711   C     0.95264   0.81138   0.02032   0.00000  Uiso   1.00
C712   C     0.67530   0.51593   0.98073   0.00000  Uiso   1.00
C713   C     0.82286   0.96817   0.02009   0.00000  Uiso   1.00
C714   C     0.95002   0.80926   0.97974   0.00000  Uiso   1.00
C715   C     0.54740   0.68840   0.02035   0.00000  Uiso   1.00
C716   C     0.91175   0.67100   0.45901   0.00000  Uiso   1.00
C717   C     0.58824   0.82901   0.54099   0.00000  Uiso   1.00
C718   C     0.81355   0.59980   0.45880   0.00000  Uiso   1.00
C719   C     0.68644   0.90020   0.54120   0.00000  Uiso   1.00
C720   C     0.58823   0.82902   0.45895   0.00000  Uiso   1.00
C721   C     0.91999   0.66999   0.25000   0.00000  Uiso   1.00
C722   C     0.91177   0.67098   0.54105   0.00000  Uiso   1.00
C723   C     0.68645   0.90020   0.45887   0.00000  Uiso   1.00
C724   C     0.81355   0.59980   0.54113   0.00000  Uiso   1.00
C725   C     0.85725   0.94643   0.95826   0.00000  Uiso   1.00
C726   C     0.63191   0.99214   0.03758   0.00000  Uiso   1.00
C727   C     0.57049   0.65437   0.95903   0.00000  Uiso   1.00
C728   C     0.92985   0.84573   0.04079   0.00000  Uiso   1.00
C729   C     0.64319   0.54535   0.96398   0.00000  Uiso   1.00
C730   C     0.86021   0.95113   0.04075   0.00000  Uiso   1.00
C731   C     0.92070   0.83853   0.95970   0.00000  Uiso   1.00
C732   C     0.58001   0.83001   0.74999   0.00000  Uiso   1.00
C733   C     0.57368   0.65674   0.04092   0.00000  Uiso   1.00
C734   C     0.83000   0.91999   0.25000   0.00000  Uiso   1.00
C735   C     0.66999   0.58001   0.75000   0.00000  Uiso   1.00
C736   C     0.58001   0.83001   0.25000   0.00000  Uiso   1.00
C737   C     0.91999   0.66999   0.75000   0.00000  Uiso   1.00
C738   C     0.66999   0.91999   0.75000   0.00000  Uiso   1.00
C739   C     0.83001   0.58000   0.25000   0.00000  Uiso   1.00
C740   C     0.91999   0.83000   0.75000   0.00000  Uiso   1.00
C741   C     0.75000   0.50000   0.64399   0.00000  Uiso   1.00
C742   C     0.58001   0.67000   0.25000   0.00000  Uiso   1.00
C743   C     0.83001   0.58001   0.74999   0.00000  Uiso   1.00
C744   C     0.66999   0.91999   0.25000   0.00000  Uiso   1.00
C745   C     0.58001   0.66999   0.75000   0.00000  Uiso   1.00
C746   C     0.91999   0.83001   0.24999   0.00000  Uiso   1.00
C747   C     0.63833   0.88834   0.25001   0.00000  Uiso   1.00
C748   C     0.86167   0.61166   0.74999   0.00000  Uiso   1.00
C749   C     0.61167   0.63834   0.24999   0.00000  Uiso   1.00
C750   C     0.88833   0.86166   0.75001   0.00000  Uiso   1.00
C751   C     0.86167   0.61166   0.25001   0.00000  Uiso   1.00
C752   C     0.50000   0.75000   0.35595   0.00000  Uiso   1.00
C753   C     0.63833   0.88834   0.74999   0.00000  Uiso   1.00
C754   C     0.88833   0.86166   0.24999   0.00000  Uiso   1.00
C755   C     0.61166   0.63834   0.75001   0.00000  Uiso   1.00
C756   C     0.63834   0.61167   0.75000   0.00000  Uiso   1.00
C757   C     0.86166   0.88833   0.24999   0.00000  Uiso   1.00
C758   C     0.61166   0.86167   0.74999   0.00000  Uiso   1.00
C759   C     0.88834   0.63833   0.25001   0.00000  Uiso   1.00
C760   C     0.86166   0.88833   0.75001   0.00000  Uiso   1.00
C761   C     0.63834   0.61166   0.24999   0.00000  Uiso   1.00
C762   C     0.88834   0.63833   0.74999   0.00000  Uiso   1.00
C763   C     0.50000   0.75000   0.64405   0.00000  Uiso   1.00
C764   C     0.61166   0.86167   0.25000   0.00000  Uiso   1.00
C765   C     0.52719   0.77664   0.41817   0.00000  Uiso   1.00
C766   C     0.97281   0.72336   0.58183   0.00000  Uiso   1.00
C767   C     0.73344   0.96567   0.41847   0.00000  Uiso   1.00
C768   C     0.76656   0.53432   0.58153   0.00000  Uiso   1.00
C769   C     0.97281   0.72336   0.41819   0.00000  Uiso   1.00
C770   C     0.52719   0.77664   0.58181   0.00000  Uiso   1.00
C771   C     0.76659   0.53430   0.41844   0.00000  Uiso   1.00
C772   C     0.73341   0.96570   0.58156   0.00000  Uiso   1.00
C773   C     0.71220   0.50423   0.91914   0.00000  Uiso   1.00
C774   C     0.50001   0.74998   0.85598   0.00000  Uiso   1.00
C775   C     0.78654   0.98515   0.08149   0.00000  Uiso   1.00
C776   C     0.97688   0.78025   0.91837   0.00000  Uiso   1.00
C777   C     0.52323   0.71970   0.08178   0.00000  Uiso   1.00
C778   C     0.78704   0.98924   0.91890   0.00000  Uiso   1.00
C779   C     0.71257   0.50431   0.08105   0.00000  Uiso   1.00
C780   C     0.52183   0.71875   0.91823   0.00000  Uiso   1.00
C781   C     0.97744   0.78059   0.08174   0.00000  Uiso   1.00
C782   C     0.50000   0.75000   0.39828   0.00000  Uiso   1.00
C783   C     0.50000   0.75000   0.60172   0.00000  Uiso   1.00
C784   C     0.75001   0.99999   0.39841   0.00000  Uiso   1.00
C785   C     0.50003   0.75002   0.14403   0.00000  Uiso   1.00
C786   C     0.74999   0.50001   0.60159   0.00000  Uiso   1.00
C787   C     0.74983   0.99819   0.89873   0.00000  Uiso   1.00
C788   C     0.74985   0.99674   0.10141   0.00000  Uiso   1.00
C789   C     0.99955   0.74972   0.89835   0.00000  Uiso   1.00
C790   C     0.50034   0.75016   0.10168   0.00000  Uiso   1.00
C791   C     0.97172   0.72328   0.45902   0.00000  Uiso   1.00
C792   C     0.52828   0.77672   0.54098   0.00000  Uiso   1.00
C793   C     0.76867   0.53412   0.45914   0.00000  Uiso   1.00
C794   C     0.73133   0.96588   0.54086   0.00000  Uiso   1.00
C795   C     0.52827   0.77673   0.45900   0.00000  Uiso   1.00
C796   C     0.74998   0.99984   0.85614   0.00000  Uiso   1.00
C797   C     0.97173   0.72328   0.54100   0.00000  Uiso   1.00
C798   C     0.73135   0.96587   0.45916   0.00000  Uiso   1.00
C799   C     0.76865   0.53413   0.54084   0.00000  Uiso   1.00
C800   C     0.78637   0.98282   0.95918   0.00000  Uiso   1.00
C801   C     0.71113   0.99962   0.04078   0.00000  Uiso   1.00
C802   C     0.52211   0.71779   0.95905   0.00000  Uiso   1.00
C803   C     0.97692   0.78126   0.04093   0.00000  Uiso   1.00
C804   C     0.71205   0.50498   0.95974   0.00000  Uiso   1.00
C805   C     0.78654   0.98145   0.04082   0.00000  Uiso   1.00
C806   C     0.97464   0.77948   0.95910   0.00000  Uiso   1.00
C807   C     0.75001   0.99982   0.14389   0.00000  Uiso   1.00
C808   C     0.52405   0.71922   0.04097   0.00000  Uiso   1.00
C809   C     0.50000   0.75000   0.47954   0.00000  Uiso   1.00
C810   C     0.50000   0.75000   0.52046   0.00000  Uiso   1.00
C811   C     0.75000   0.50000   0.47961   0.00000  Uiso   1.00
C812   C     0.75000   0.50000   0.52039   0.00000  Uiso   1.00
C813   C     0.74904   0.99249   0.97978   0.00000  Uiso   1.00
C814   C     0.74898   0.99121   0.02045   0.00000  Uiso   1.00
C815   C     0.99881   0.74895   0.97959   0.00000  Uiso   1.00
C816   C     0.99993   0.74980   0.02045   0.00000  Uiso   1.00
C817   C     0.94351   0.69689   0.47965   0.00000  Uiso   1.00
C818   C     0.66999   0.58001   0.25000   0.00000  Uiso   1.00
C819   C     0.55648   0.80311   0.52035   0.00000  Uiso   1.00
C820   C     0.78875   0.56722   0.47963   0.00000  Uiso   1.00
C821   C     0.71125   0.93278   0.52037   0.00000  Uiso   1.00
C822   C     0.55648   0.80312   0.47961   0.00000  Uiso   1.00
C823   C     0.94352   0.69689   0.52038   0.00000  Uiso   1.00
C824   C     0.71125   0.93278   0.47967   0.00000  Uiso   1.00
C825   C     0.78875   0.56722   0.52033   0.00000  Uiso   1.00
C826   C     0.82221   0.96756   0.97928   0.00000  Uiso   1.00
C827   C     0.67309   0.50507   0.02014   0.00000  Uiso   1.00
C828   C     0.54607   0.68741   0.97964   0.00000  Uiso   1.00
F829   F     0.55116   0.80344   0.39686   0.00000  Uiso   1.00
F830   F     0.82248   0.97931   0.10206   0.00000  Uiso   1.00
F831   F     0.95816   0.81122   0.89743   0.00000  Uiso   1.00
F832   F     0.54438   0.69066   0.10310   0.00000  Uiso   1.00
F833   F     0.82402   0.98775   0.89920   0.00000  Uiso   1.00
F834   F     0.67934   0.52151   0.10011   0.00000  Uiso   1.00
F835   F     0.54522   0.69148   0.89692   0.00000  Uiso   1.00
F836   F     0.95358   0.80752   0.10299   0.00000  Uiso   1.00
F837   F     0.94884   0.69656   0.60314   0.00000  Uiso   1.00
F838   F     0.71926   0.93229   0.39766   0.00000  Uiso   1.00
F839   F     0.78074   0.56771   0.60234   0.00000  Uiso   1.00
F840   F     0.94884   0.69656   0.39690   0.00000  Uiso   1.00
F841   F     0.55117   0.80343   0.60310   0.00000  Uiso   1.00
F842   F     0.78078   0.56769   0.39761   0.00000  Uiso   1.00
F843   F     0.71922   0.93232   0.60239   0.00000  Uiso   1.00
F844   F     0.67533   0.50631   0.89934   0.00000  Uiso   1.00
H845   H     0.88759   0.68621   0.44178   0.00000  Uiso   1.00
H846   H     0.62905   0.98477   0.06796   0.00000  Uiso   1.00
H847   H     0.55454   0.63239   0.94001   0.00000  Uiso   1.00
H848   H     0.94695   0.86704   0.05960   0.00000  Uiso   1.00
H849   H     0.64703   0.55861   0.93542   0.00000  Uiso   1.00
H850   H     0.85627   0.92633   0.06201   0.00000  Uiso   1.00
H851   H     0.92329   0.87222   0.96431   0.00000  Uiso   1.00
H852   H     0.59883   0.66697   0.05994   0.00000  Uiso   1.00
H853   H     0.61241   0.81380   0.55821   0.00000  Uiso   1.00
H854   H     0.83953   0.59033   0.44039   0.00000  Uiso   1.00
H855   H     0.66046   0.90967   0.55961   0.00000  Uiso   1.00
H856   H     0.61242   0.81381   0.44175   0.00000  Uiso   1.00
H857   H     0.88758   0.68619   0.55825   0.00000  Uiso   1.00
H858   H     0.66049   0.90967   0.44043   0.00000  Uiso   1.00
H859   H     0.83951   0.59033   0.55957   0.00000  Uiso   1.00
H860   H     0.88976   0.95432   0.96439   0.00000  Uiso   1.00
O861   O     0.75000   0.50000   0.25000   0.00000  Uiso   1.00
O862   O     0.75000   0.96538   0.66251   0.00000  Uiso   1.00
O863   O     0.96538   0.75000   0.33749   0.00000  Uiso   1.00
O864   O     0.53461   0.75000   0.66251   0.00000  Uiso   1.00
O865   O     0.50000   0.71538   0.83749   0.00000  Uiso   1.00
O866   O     0.50000   0.78461   0.16251   0.00000  Uiso   1.00
O867   O     0.78461   0.50000   0.83749   0.00000  Uiso   1.00
O868   O     0.71538   0.50000   0.16251   0.00000  Uiso   1.00
O869   O     0.50000   0.78461   0.83749   0.00000  Uiso   1.00
O870   O     0.50000   0.71538   0.16251   0.00000  Uiso   1.00
O871   O     0.71538   0.50000   0.83749   0.00000  Uiso   1.00
O872   O     0.75000   0.50000   0.75000   0.00000  Uiso   1.00
O873   O     0.78461   0.50000   0.16251   0.00000  Uiso   1.00
O874   O     0.70126   0.58332   0.27298   0.00000  Uiso   1.00
O875   O     0.79873   0.91668   0.72702   0.00000  Uiso   1.00
O876   O     0.91668   0.70126   0.27298   0.00000  Uiso   1.00
O877   O     0.58332   0.79873   0.72702   0.00000  Uiso   1.00
O878   O     0.79873   0.91668   0.27298   0.00000  Uiso   1.00
O879   O     0.70126   0.58332   0.72702   0.00000  Uiso   1.00
O880   O     0.58332   0.79873   0.27298   0.00000  Uiso   1.00
O881   O     0.91668   0.70126   0.72702   0.00000  Uiso   1.00
O882   O     0.70126   0.91668   0.72702   0.00000  Uiso   1.00
O883   O     0.50000   0.75000   0.25000   0.00000  Uiso   1.00
O884   O     0.79873   0.58332   0.27298   0.00000  Uiso   1.00
O885   O     0.91668   0.79873   0.72702   0.00000  Uiso   1.00
O886   O     0.58332   0.70126   0.27298   0.00000  Uiso   1.00
O887   O     0.79873   0.58332   0.72702   0.00000  Uiso   1.00
O888   O     0.70126   0.91668   0.27298   0.00000  Uiso   1.00
O889   O     0.58332   0.70126   0.72702   0.00000  Uiso   1.00
O890   O     0.91668   0.79873   0.27298   0.00000  Uiso   1.00
O891   O     0.95126   0.83332   0.77298   0.00000  Uiso   1.00
O892   O     0.54873   0.66668   0.22702   0.00000  Uiso   1.00
O893   O     0.66668   0.95126   0.77298   0.00000  Uiso   1.00
O894   O     0.50000   0.75000   0.75000   0.00000  Uiso   1.00
O895   O     0.83332   0.54873   0.22702   0.00000  Uiso   1.00
O896   O     0.54873   0.66668   0.77298   0.00000  Uiso   1.00
O897   O     0.95126   0.83332   0.22702   0.00000  Uiso   1.00
O898   O     0.83332   0.54873   0.77298   0.00000  Uiso   1.00
O899   O     0.66668   0.95126   0.22702   0.00000  Uiso   1.00
O900   O     0.95126   0.66668   0.22702   0.00000  Uiso   1.00
O901   O     0.54873   0.83332   0.77298   0.00000  Uiso   1.00
O902   O     0.66668   0.54873   0.22702   0.00000  Uiso   1.00
O903   O     0.83332   0.95126   0.77298   0.00000  Uiso   1.00
O904   O     0.54873   0.83332   0.22702   0.00000  Uiso   1.00
O905   O     0.75000   0.96538   0.33749   0.00000  Uiso   1.00
O906   O     0.95126   0.66668   0.77298   0.00000  Uiso   1.00
O907   O     0.83332   0.95126   0.22702   0.00000  Uiso   1.00
O908   O     0.66668   0.54873   0.77298   0.00000  Uiso   1.00
O909   O     0.91333   0.63263   0.46024   0.00000  Uiso   1.00
O910   O     0.58665   0.86738   0.53977   0.00000  Uiso   1.00
O911   O     0.80410   0.63698   0.46092   0.00000  Uiso   1.00
O912   O     0.69590   0.86303   0.53908   0.00000  Uiso   1.00
O913   O     0.58661   0.86739   0.46013   0.00000  Uiso   1.00
O914   O     0.91339   0.63261   0.53988   0.00000  Uiso   1.00
O915   O     0.69588   0.86302   0.46103   0.00000  Uiso   1.00
O916   O     0.75000   0.53461   0.66251   0.00000  Uiso   1.00
O917   O     0.80411   0.63698   0.53897   0.00000  Uiso   1.00
O918   O     0.84983   0.91887   0.93463   0.00000  Uiso   1.00
O919   O     0.60101   0.98574   0.01743   0.00000  Uiso   1.00
O920   O     0.60862   0.65191   0.96299   0.00000  Uiso   1.00
O921   O     0.89184   0.84990   0.03718   0.00000  Uiso   1.00
O922   O     0.61359   0.55829   0.98307   0.00000  Uiso   1.00
O923   O     0.89531   0.96544   0.03493   0.00000  Uiso   1.00
O924   O     0.89209   0.82488   0.93974   0.00000  Uiso   1.00
O925   O     0.56708   0.61913   0.03685   0.00000  Uiso   1.00
O926   O     0.53461   0.75000   0.33749   0.00000  Uiso   1.00
O927   O     0.96538   0.75000   0.66251   0.00000  Uiso   1.00
O928   O     0.75000   0.53461   0.33749   0.00000  Uiso   1.00
Zn929  Zn    0.70052   0.50000   0.21730   0.00000  Uiso   1.00
Zn930  Zn    0.54947   0.75000   0.28270   0.00000  Uiso   1.00
Zn931  Zn    0.75000   0.95052   0.71730   0.00000  Uiso   1.00
Zn932  Zn    0.75000   0.54947   0.28270   0.00000  Uiso   1.00
Zn933  Zn    0.54947   0.75000   0.71730   0.00000  Uiso   1.00
Zn934  Zn    0.95052   0.75000   0.28270   0.00000  Uiso   1.00
Zn935  Zn    0.75000   0.54947   0.71730   0.00000  Uiso   1.00
Zn936  Zn    0.75000   0.95052   0.28270   0.00000  Uiso   1.00
Zn937  Zn    0.79947   0.50000   0.78270   0.00000  Uiso   1.00
Zn938  Zn    0.50000   0.70052   0.21730   0.00000  Uiso   1.00
Zn939  Zn    0.50000   0.79947   0.78270   0.00000  Uiso   1.00
Zn940  Zn    0.79947   0.50000   0.21730   0.00000  Uiso   1.00
Zn941  Zn    0.70052   0.50000   0.78270   0.00000  Uiso   1.00
Zn942  Zn    0.50000   0.79947   0.21730   0.00000  Uiso   1.00
Zn943  Zn    0.50000   0.70052   0.78270   0.00000  Uiso   1.00
Zn944  Zn    0.95052   0.75000   0.71730   0.00000  Uiso   1.00
loop_
_geom_bond_atom_site_label_1
_geom_bond_atom_site_label_2
_geom_bond_distance
_geom_bond_site_symmetry_2
_ccdc_geom_bond_type
C1     O197    1.273   .     A
C1     C76     1.468   .     S
C1     O692    1.273   .     S
C2     O195    1.277   .     A
C2     C52     1.422   .     S
C2     O167    1.277   .     A
C3     C20     1.489   .     S
C3     C95     1.421   .     A
C3     C6      1.409   1_554 S
C4     C96     1.418   .     A
C4     C21     1.499   .     S
C4     C119    1.409   1_556 S
C5     C22     1.487   .     S
C5     C97     1.422   .     A
C5     C118    1.413   1_554 S
C6     C98     1.420   .     A
C6     C23     1.487   .     S
C6     C3      1.409   1_556 S
C7     C100    1.421   .     A
C7     C25     1.488   .     S
C7     C120    1.410   1_554 S
C8     H137    1.085   .     S
C8     O201    1.220   .     D
C8     C109    1.485   .     S
C9     C111    1.485   .     S
C9     O202    1.220   .     D
C9     H145    1.085   .     S
C10    O203    1.221   .     D
C10    C112    1.487   .     S
C10    H146    1.085   .     S
C11    C113    1.487   .     S
C11    O204    1.221   .     D
C11    H147    1.085   .     S
C12    C114    1.485   .     S
C12    H148    1.085   .     S
C12    O205    1.220   .     D
C13    O192    1.277   .     A
C13    C51     1.422   .     S
C13    O168    1.277   .     A
C14    C115    1.485   .     S
C14    O206    1.220   .     D
C14    H149    1.085   .     S
C15    O207    1.221   .     D
C15    C116    1.487   .     S
C15    H150    1.085   .     S
C16    O209    1.221   .     D
C16    H151    1.085   .     S
C16    C117    1.487   .     S
C17    O210    1.221   .     D
C17    C118    1.489   .     S
C17    H152    1.084   .     S
C18    H138    1.081   .     S
C18    O211    1.221   .     D
C18    C591    1.498   .     S
C19    O212    1.221   .     D
C19    C120    1.487   .     S
C19    H139    1.085   .     S
C20    O213    1.221   .     D
C20    H140    1.085   .     S
C21    H141    1.081   .     S
C21    O214    1.220   .     D
C22    O215    1.221   .     D
C22    H142    1.085   .     S
C23    O216    1.221   .     D
C23    H143    1.085   .     S
C24    C50     1.422   .     S
C24    O169    1.277   .     A
C24    O193    1.277   .     A
C25    O217    1.221   .     D
C25    H144    1.085   .     S
C26    C49     1.422   .     S
C26    O199    1.277   .     A
C26    O170    1.277   .     A
C27    O200    1.277   .     A
C27    C48     1.422   .     S
C27    O171    1.277   .     A
C28    C56     1.422   .     S
C28    O172    1.277   .     A
C28    O196    1.277   .     A
C29    C54     1.422   .     S
C29    O198    1.277   .     A
C29    O173    1.277   .     A
C30    C45     1.422   .     S
C30    O185    1.277   .     A
C30    O174    1.277   .     A
C31    C43     1.422   .     S
C31    O176    1.277   .     A
C31    O187    1.277   .     A
C32    O183    1.277   .     A
C32    O177    1.277   .     A
C32    C42     1.422   .     S
C33    O208    1.273   .     A
C33    C78     1.468   .     S
C33    O626    1.273   1_545 S
C34    O184    1.277   .     A
C34    C41     1.422   .     S
C34    O178    1.277   .     A
C35    O179    1.277   .     A
C35    O190    1.277   .     A
C35    C40     1.422   .     S
C36    O191    1.277   .     A
C36    O180    1.277   .     A
C36    C39     1.422   .     S
C37    O188    1.277   .     A
C37    O181    1.277   .     A
C37    C47     1.422   .     S
C38    O189    1.277   .     A
C38    O182    1.277   .     A
C38    C46     1.422   .     S
C39    C56     1.198   .     T
C40    C54     1.198   .     T
C41    C53     1.198   .     T
C42    C52     1.198   .     T
C43    C51     1.198   .     T
C44    O391    1.272   1_455 A
C44    C74     1.465   .     S
C44    O218    1.272   .     S
C45    C50     1.198   .     T
C46    C49     1.198   .     T
C47    C48     1.198   .     T
C53    C110    1.422   .     S
C55    O156    1.272   .     A
C55    C75     1.465   .     S
C55    O455    1.272   1_455 S
C57    F121    1.359   .     S
C57    C87     1.414   .     A
C57    C74     1.392   .     S
C58    F129    1.359   .     S
C58    C89     1.414   .     A
C58    C311    1.392   .     S
C59    F130    1.359   .     S
C59    C76     1.395   .     A
C59    C90     1.410   .     A
C60    C78     1.395   .     A
C60    F131    1.359   .     S
C60    C91     1.410   .     A
C61    F132    1.359   .     S
C61    C83     1.414   .     A
C61    C310    1.392   .     A
C62    F133    1.359   .     S
C62    C84     1.414   .     A
C62    C75     1.392   .     A
C63    C85     1.410   .     A
C63    F134    1.359   .     S
C63    C548    1.395   1_545 S
C64    F135    1.359   .     S
C64    C86     1.410   .     A
C64    C550    1.395   .     S
C65    C96     1.406   .     A
C65    F136    1.359   .     S
C65    C551    1.402   1_545 S
C66    C317    1.467   1_455 S
C66    O157    1.272   .     S
C66    O161    1.272   .     S
C67    C97     1.413   .     A
C67    C80     1.403   .     A
C67    F122    1.358   .     S
C68    C81     1.393   .     A
C68    F123    1.359   .     S
C68    C98     1.412   .     A
C69    C82     1.392   .     A
C69    F124    1.359   .     S
C69    C100    1.413   .     A
C70    F125    1.359   .     S
C70    C79     1.402   .     A
C70    C92     1.409   .     A
C71    F126    1.359   .     S
C71    C552    1.399   1_545 S
C71    C565    1.403   1_545 S
C72    C94     1.413   .     A
C72    F127    1.359   .     S
C72    C317    1.393   1_455 S
C73    C95     1.413   .     A
C73    F128    1.359   .     S
C73    C318    1.392   .     S
C74    C297    1.392   1_455 A
C75    C294    1.392   1_455 S
C76    C535    1.395   .     S
C77    O158    1.272   .     A
C77    O162    1.272   .     A
C77    C82     1.466   .     S
C78    C536    1.395   1_545 S
C79    C88     1.475   .     S
C79    C537    1.402   .     S
C80    C99     1.474   .     S
C80    C543    1.399   .     S
C81    C308    1.393   .     S
C81    C302    1.467   .     S
C82    C309    1.392   1_455 S
C83    C337    1.426   .     A
C83    C109    1.419   .     A
C84    C102    1.426   .     A
C84    C111    1.419   .     A
C85    C112    1.420   .     A
C85    C103    1.424   .     S
C86    C113    1.420   .     A
C86    C576    1.424   .     S
C87    C114    1.419   .     A
C87    C101    1.426   .     S
C88    O631    1.275   .     S
C88    O635    1.274   .     S
C89    C115    1.419   .     A
C89    C338    1.426   .     S
C90    C116    1.420   .     A
C90    C575    1.424   .     A
C91    C104    1.424   .     A
C91    C117    1.420   .     A
C92    C118    1.419   .     A
C92    C105    1.417   .     A
C93    C106    1.418   .     A
C93    C543    1.403   .     S
C93    C591    1.414   .     S
C94    C120    1.420   .     A
C94    C343    1.426   1_455 S
C95    C108    1.426   .     A
C96    C577    1.421   1_545 S
C97    C106    1.420   .     A
C98    C107    1.425   .     A
C99    O632    1.275   .     S
C99    O637    1.274   .     S
C100   C344    1.426   1_455 S
C101   C319    1.426   1_455 A
C101   C102    1.416   .     S
C102   C325    1.426   1_455 S
C103   C562    1.424   1_545 A
C103   C104    1.411   .     S
C104   C558    1.424   1_545 S
C105   C568    1.421   .     S
C105   C106    1.408   1_556 S
C106   C105    1.408   1_554 S
C107   C330    1.426   .     S
C107   C108    1.415   1_556 S
C108   C336    1.426   .     S
C108   C107    1.415   1_554 S
C109   C115    1.410   .     A
C110   O194    1.277   .     A
C110   O166    1.277   .     A
C111   C114    1.410   .     A
C112   C117    1.409   .     A
C113   C116    1.409   .     A
C118   C5      1.413   1_556 S
C119   C490    1.498   1_545 S
C119   C565    1.414   1_545 S
C119   C4      1.409   1_554 S
C120   C7      1.410   1_556 S
O153   Zn224   1.937   .     S
O153   Zn221   1.937   .     S
O153   Zn232   1.937   .     S
O153   Zn700   1.936   1_545 S
O154   Zn223   1.954   .     S
O154   C505    1.273   .     S
O155   Zn226   1.954   .     S
O155   C280    1.272   .     A
O156   Zn225   1.954   .     S
O157   Zn235   1.955   .     S
O158   Zn234   1.955   .     S
O159   Zn229   1.954   .     S
O159   C560    1.275   1_545 S
O160   Zn221   1.954   .     S
O160   C571    1.275   1_545 S
O161   Zn231   1.954   .     S
O162   Zn230   1.954   .     S
O163   Zn233   1.954   .     S
O163   C560    1.274   1_545 S
O164   Zn695   1.937   1_545 S
O164   Zn227   1.936   .     S
O164   Zn229   1.937   .     S
O164   Zn233   1.937   .     S
O165   Zn232   1.954   .     S
O165   C571    1.274   1_545 S
O166   Zn224   1.914   .     S
O167   Zn223   1.914   .     S
O168   Zn226   1.915   .     S
O169   Zn225   1.915   .     S
O170   Zn228   1.914   .     S
O171   Zn227   1.914   .     S
O172   Zn222   1.914   .     S
O173   Zn236   1.914   .     S
O174   Zn223   1.914   .     S
O175   Zn230   1.937   .     S
O175   Zn234   1.936   .     S
O175   Zn222   1.937   .     S
O175   Zn462   1.937   1_455 S
O176   Zn224   1.914   .     S
O177   Zn236   1.914   .     S
O178   Zn222   1.914   .     S
O179   Zn227   1.915   .     S
O180   Zn228   1.915   .     S
O181   Zn225   1.914   .     S
O182   Zn226   1.914   .     S
O183   Zn467   1.914   .     S
O184   Zn230   1.914   .     S
O185   Zn705   1.915   .     S
O186   Zn231   1.937   .     S
O186   Zn235   1.936   .     S
O186   Zn225   1.937   .     S
O186   Zn472   1.937   1_455 S
O187   Zn232   1.915   .     S
O188   Zn235   1.914   .     S
O189   Zn470   1.914   .     S
O190   Zn229   1.914   .     S
O191   Zn693   1.914   .     S
O192   Zn466   1.914   .     S
O193   Zn231   1.914   .     S
O194   Zn221   1.914   .     S
O195   Zn701   1.914   .     S
O196   Zn234   1.915   .     S
O197   Zn228   1.955   .     S
O198   Zn471   1.915   .     S
O199   Zn704   1.914   .     S
O200   Zn233   1.914   .     S
O208   Zn227   1.955   .     S
O218   Zn222   1.954   .     S
O219   Zn236   1.954   .     S
O219   C291    1.272   .     S
O220   Zn224   1.954   .     S
O220   C473    1.273   1_545 S
Zn221  O663    1.914   1_545 S
Zn223  O636    1.937   .     S
Zn226  O411    1.937   .     S
Zn228  O625    1.936   .     S
Zn229  O667    1.914   1_545 S
Zn230  O428    1.914   1_455 S
Zn231  O419    1.914   1_455 S
Zn232  O671    1.914   1_545 S
Zn233  O657    1.915   1_545 S
Zn234  O425    1.914   1_455 S
Zn235  O434    1.915   1_455 S
Zn236  O422    1.937   .     S
C237   O433    1.273   .     A
C237   C312    1.468   .     S
C237   O928    1.273   .     S
C238   O431    1.277   .     A
C238   C288    1.422   .     S
C238   O403    1.277   .     A
C239   C256    1.489   .     S
C239   C331    1.421   .     A
C239   C242    1.409   1_554 S
C240   C332    1.418   .     A
C240   C257    1.499   .     S
C240   C355    1.409   1_556 S
C241   C258    1.487   .     S
C241   C333    1.422   .     A
C241   C354    1.413   1_554 S
C242   C334    1.420   .     A
C242   C259    1.487   .     S
C242   C239    1.409   1_556 S
C243   C336    1.421   .     A
C243   C261    1.488   .     S
C243   C356    1.410   1_554 S
C244   H373    1.085   .     S
C244   O437    1.220   .     D
C244   C345    1.485   .     S
C245   C347    1.485   .     S
C245   O438    1.220   .     D
C245   H381    1.085   .     S
C246   O439    1.221   .     D
C246   C348    1.487   .     S
C246   H382    1.085   .     S
C247   C349    1.487   .     S
C247   O440    1.221   .     D
C247   H383    1.085   .     S
C248   C350    1.485   .     S
C248   H384    1.085   .     S
C248   O441    1.220   .     D
C249   O428    1.277   .     A
C249   C287    1.422   .     S
C249   O404    1.277   .     A
C250   C351    1.485   .     S
C250   O442    1.220   .     D
C250   H385    1.085   .     S
C251   O443    1.221   .     D
C251   C352    1.487   .     S
C251   H386    1.085   .     S
C252   O445    1.221   .     D
C252   H387    1.085   .     S
C252   C353    1.487   .     S
C253   O446    1.221   .     D
C253   C354    1.489   .     S
C253   H388    1.084   .     S
C254   H374    1.081   .     S
C254   O447    1.221   .     D
C254   C827    1.498   .     S
C255   O448    1.221   .     D
C255   C356    1.487   .     S
C255   H375    1.085   .     S
C256   O449    1.221   .     D
C256   H376    1.085   .     S
C257   H377    1.081   .     S
C257   O450    1.220   .     D
C258   O451    1.221   .     D
C258   H378    1.085   .     S
C259   O452    1.221   .     D
C259   H379    1.085   .     S
C260   C286    1.422   .     S
C260   O405    1.277   .     A
C260   O429    1.277   .     A
C261   O453    1.221   .     D
C261   H380    1.085   .     S
C262   C285    1.422   .     S
C262   O435    1.277   .     A
C262   O406    1.277   .     A
C263   O436    1.277   .     A
C263   C284    1.422   .     S
C263   O407    1.277   .     A
C264   C292    1.422   .     S
C264   O408    1.277   .     A
C264   O432    1.277   .     A
C265   C290    1.422   .     S
C265   O434    1.277   .     A
C265   O409    1.277   .     A
C266   C281    1.422   .     S
C266   O421    1.277   .     A
C266   O410    1.277   .     A
C267   C279    1.422   .     S
C267   O412    1.277   .     A
C267   O423    1.277   .     A
C268   O419    1.277   .     A
C268   O413    1.277   .     A
C268   C278    1.422   .     S
C269   O444    1.273   .     A
C269   C314    1.468   .     S
C269   O862    1.273   1_545 S
C270   O420    1.277   .     A
C270   C277    1.422   .     S
C270   O414    1.277   .     A
C271   O415    1.277   .     A
C271   O426    1.277   .     A
C271   C276    1.422   .     S
C272   O427    1.277   .     A
C272   O416    1.277   .     A
C272   C275    1.422   .     S
C273   O424    1.277   .     A
C273   O417    1.277   .     A
C273   C283    1.422   .     S
C274   O425    1.277   .     A
C274   O418    1.277   .     A
C274   C282    1.422   .     S
C275   C292    1.198   .     T
C276   C290    1.198   .     T
C277   C289    1.198   .     T
C278   C288    1.198   .     T
C279   C287    1.198   .     T
C280   C310    1.465   .     S
C280   O454    1.272   .     S
C281   C286    1.198   .     T
C282   C285    1.198   .     T
C283   C284    1.198   .     T
C289   C346    1.422   .     S
C291   O392    1.272   .     A
C291   C311    1.465   .     S
C293   F357    1.359   .     S
C293   C323    1.414   .     A
C293   C310    1.392   .     S
C294   F365    1.359   .     S
C294   C325    1.414   .     A
C294   C75     1.392   1_655 S
C295   F366    1.359   .     S
C295   C312    1.395   .     A
C295   C326    1.410   .     A
C296   C314    1.395   .     A
C296   F367    1.359   .     S
C296   C327    1.410   .     A
C297   F368    1.359   .     S
C297   C319    1.414   .     A
C297   C74     1.392   1_655 A
C298   F369    1.359   .     S
C298   C320    1.414   .     A
C298   C311    1.392   .     A
C299   C321    1.410   .     A
C299   F370    1.359   .     S
C299   C784    1.395   1_545 S
C300   F371    1.359   .     S
C300   C322    1.410   .     A
C300   C786    1.395   .     S
C301   C332    1.406   .     A
C301   F372    1.359   .     S
C301   C787    1.402   1_545 S
C302   O393    1.272   .     S
C302   O397    1.272   .     S
C303   C333    1.413   .     A
C303   C316    1.403   .     A
C303   F358    1.358   .     S
C304   C317    1.393   .     A
C304   F359    1.359   .     S
C304   C334    1.412   .     A
C305   C318    1.392   .     A
C305   F360    1.359   .     S
C305   C336    1.413   .     A
C306   F361    1.359   .     S
C306   C315    1.402   .     A
C306   C328    1.409   .     A
C307   F362    1.359   .     S
C307   C788    1.399   1_545 S
C307   C801    1.403   1_545 S
C308   C330    1.413   .     A
C308   F363    1.359   .     S
C309   C331    1.413   .     A
C309   F364    1.359   .     S
C309   C82     1.392   1_655 S
C312   C771    1.395   .     S
C313   O394    1.272   .     A
C313   O398    1.272   .     A
C313   C318    1.466   .     S
C314   C772    1.395   1_545 S
C315   C324    1.475   .     S
C315   C773    1.402   .     S
C316   C335    1.474   .     S
C316   C779    1.399   .     S
C317   C72     1.393   1_655 S
C317   C66     1.467   1_655 S
C319   C101    1.426   1_655 A
C319   C345    1.419   .     A
C320   C338    1.426   .     A
C320   C347    1.419   .     A
C321   C348    1.420   .     A
C321   C339    1.424   .     S
C322   C349    1.420   .     A
C322   C812    1.424   .     S
C323   C350    1.419   .     A
C323   C337    1.426   .     S
C324   O867    1.275   .     S
C324   O871    1.274   .     S
C325   C351    1.419   .     A
C325   C102    1.426   1_655 S
C326   C352    1.420   .     A
C326   C811    1.424   .     A
C327   C340    1.424   .     A
C327   C353    1.420   .     A
C328   C354    1.419   .     A
C328   C341    1.417   .     A
C329   C342    1.418   .     A
C329   C779    1.403   .     S
C329   C827    1.414   .     S
C330   C356    1.420   .     A
C331   C344    1.426   .     A
C332   C813    1.421   1_545 S
C333   C342    1.420   .     A
C334   C343    1.425   .     A
C335   O868    1.275   .     S
C335   O873    1.274   .     S
C337   C338    1.416   .     S
C339   C798    1.424   1_545 A
C339   C340    1.411   .     S
C340   C794    1.424   1_545 S
C341   C804    1.421   .     S
C341   C342    1.408   1_556 S
C342   C341    1.408   1_554 S
C343   C94     1.426   1_655 S
C343   C344    1.415   1_556 S
C344   C100    1.426   1_655 S
C344   C343    1.415   1_554 S
C345   C351    1.410   .     A
C346   O430    1.277   .     A
C346   O402    1.277   .     A
C347   C350    1.410   .     A
C348   C353    1.409   .     A
C349   C352    1.409   .     A
C354   C241    1.413   1_556 S
C355   C726    1.498   1_545 S
C355   C801    1.414   1_545 S
C355   C240    1.409   1_554 S
C356   C243    1.410   1_556 S
O389   Zn460   1.937   .     S
O389   Zn457   1.937   .     S
O389   Zn468   1.937   .     S
O389   Zn936   1.936   1_545 S
O390   Zn459   1.954   .     S
O390   C741    1.273   .     S
O391   Zn462   1.954   .     S
O391   C44     1.272   1_655 A
O392   Zn461   1.954   .     S
O393   Zn471   1.955   .     S
O394   Zn470   1.955   .     S
O395   Zn465   1.954   .     S
O395   C796    1.275   1_545 S
O396   Zn457   1.954   .     S
O396   C807    1.275   1_545 S
O397   Zn467   1.954   .     S
O398   Zn466   1.954   .     S
O399   Zn469   1.954   .     S
O399   C796    1.274   1_545 S
O400   Zn931   1.937   1_545 S
O400   Zn463   1.936   .     S
O400   Zn465   1.937   .     S
O400   Zn469   1.937   .     S
O401   Zn468   1.954   .     S
O401   C807    1.274   1_545 S
O402   Zn460   1.914   .     S
O403   Zn459   1.914   .     S
O404   Zn462   1.915   .     S
O405   Zn461   1.915   .     S
O406   Zn464   1.914   .     S
O407   Zn463   1.914   .     S
O408   Zn458   1.914   .     S
O409   Zn472   1.914   .     S
O410   Zn459   1.914   .     S
O411   Zn466   1.937   .     S
O411   Zn470   1.936   .     S
O411   Zn458   1.937   .     S
O412   Zn460   1.914   .     S
O413   Zn472   1.914   .     S
O414   Zn458   1.914   .     S
O415   Zn463   1.915   .     S
O416   Zn464   1.915   .     S
O417   Zn461   1.914   .     S
O418   Zn462   1.914   .     S
O419   Zn231   1.914   1_655 S
O420   Zn466   1.914   .     S
O421   Zn941   1.915   .     S
O422   Zn467   1.937   .     S
O422   Zn471   1.936   .     S
O422   Zn461   1.937   .     S
O423   Zn468   1.915   .     S
O424   Zn471   1.914   .     S
O425   Zn234   1.914   1_655 S
O426   Zn465   1.914   .     S
O427   Zn929   1.914   .     S
O428   Zn230   1.914   1_655 S
O429   Zn467   1.914   .     S
O430   Zn457   1.914   .     S
O431   Zn937   1.914   .     S
O432   Zn470   1.915   .     S
O433   Zn464   1.955   .     S
O434   Zn235   1.915   1_655 S
O435   Zn940   1.914   .     S
O436   Zn469   1.914   .     S
O444   Zn463   1.955   .     S
O454   Zn458   1.954   .     S
O455   Zn472   1.954   .     S
O455   C55     1.272   1_655 S
O456   Zn460   1.954   .     S
O456   C709    1.273   1_545 S
Zn457  O899    1.914   1_545 S
Zn459  O872    1.937   .     S
Zn462  O175    1.937   1_655 S
Zn464  O861    1.936   .     S
Zn465  O903    1.914   1_545 S
Zn468  O907    1.914   1_545 S
Zn469  O893    1.915   1_545 S
Zn472  O186    1.937   1_655 S
C473   O669    1.273   .     A
C473   C548    1.468   .     S
C473   O220    1.273   1_565 S
C474   O667    1.277   .     A
C474   C524    1.422   .     S
C474   O639    1.277   .     A
C475   C492    1.489   .     S
C475   C567    1.421   .     A
C475   C478    1.409   1_554 S
C476   C568    1.418   .     A
C476   C493    1.499   .     S
C476   C591    1.409   1_556 S
C477   C494    1.487   .     S
C477   C569    1.422   .     A
C477   C590    1.413   1_554 S
C478   C570    1.420   .     A
C478   C495    1.487   .     S
C478   C475    1.409   1_556 S
C479   C572    1.421   .     A
C479   C497    1.488   .     S
C479   C592    1.410   1_554 S
C480   H609    1.085   .     S
C480   O673    1.220   .     D
C480   C581    1.485   .     S
C481   C583    1.485   .     S
C481   O674    1.220   .     D
C481   H617    1.085   .     S
C482   O675    1.221   .     D
C482   C584    1.487   .     S
C482   H618    1.085   .     S
C483   C585    1.487   .     S
C483   O676    1.221   .     D
C483   H619    1.085   .     S
C484   C586    1.485   .     S
C484   H620    1.085   .     S
C484   O677    1.220   .     D
C485   O664    1.277   .     A
C485   C523    1.422   .     S
C485   O640    1.277   .     A
C486   C587    1.485   .     S
C486   O678    1.220   .     D
C486   H621    1.085   .     S
C487   O679    1.221   .     D
C487   C588    1.487   .     S
C487   H622    1.085   .     S
C488   O681    1.221   .     D
C488   H623    1.085   .     S
C488   C589    1.487   .     S
C489   O682    1.221   .     D
C489   C590    1.489   .     S
C489   H624    1.084   .     S
C490   H610    1.081   .     S
C490   O683    1.221   .     D
C490   C119    1.498   1_565 S
C491   O684    1.221   .     D
C491   C592    1.487   .     S
C491   H611    1.085   .     S
C492   O685    1.221   .     D
C492   H612    1.085   .     S
C493   H613    1.081   .     S
C493   O686    1.220   .     D
C494   O687    1.221   .     D
C494   H614    1.085   .     S
C495   O688    1.221   .     D
C495   H615    1.085   .     S
C496   C522    1.422   .     S
C496   O641    1.277   .     A
C496   O665    1.277   .     A
C497   O689    1.221   .     D
C497   H616    1.085   .     S
C498   C521    1.422   .     S
C498   O671    1.277   .     A
C498   O642    1.277   .     A
C499   O672    1.277   .     A
C499   C520    1.422   .     S
C499   O643    1.277   .     A
C500   C528    1.422   .     S
C500   O644    1.277   .     A
C500   O668    1.277   .     A
C501   C526    1.422   .     S
C501   O670    1.277   .     A
C501   O645    1.277   .     A
C502   C517    1.422   .     S
C502   O657    1.277   .     A
C502   O646    1.277   .     A
C503   C515    1.422   .     S
C503   O648    1.277   .     A
C503   O659    1.277   .     A
C504   O655    1.277   .     A
C504   O649    1.277   .     A
C504   C514    1.422   .     S
C505   O680    1.273   .     A
C505   C550    1.468   .     S
C506   O656    1.277   .     A
C506   C513    1.422   .     S
C506   O650    1.277   .     A
C507   O651    1.277   .     A
C507   O662    1.277   .     A
C507   C512    1.422   .     S
C508   O663    1.277   .     A
C508   O652    1.277   .     A
C508   C511    1.422   .     S
C509   O660    1.277   .     A
C509   O653    1.277   .     A
C509   C519    1.422   .     S
C510   O661    1.277   .     A
C510   O654    1.277   .     A
C510   C518    1.422   .     S
C511   C528    1.198   .     T
C512   C526    1.198   .     T
C513   C525    1.198   .     T
C514   C524    1.198   .     T
C515   C523    1.198   .     T
C516   O863    1.272   1_455 A
C516   C546    1.465   .     S
C516   O690    1.272   .     S
C517   C522    1.198   .     T
C518   C521    1.198   .     T
C519   C520    1.198   .     T
C525   C582    1.422   .     S
C527   O628    1.272   .     A
C527   C547    1.465   .     S
C527   O927    1.272   1_455 S
C529   F593    1.359   .     S
C529   C559    1.414   .     A
C529   C546    1.392   .     S
C530   F601    1.359   .     S
C530   C561    1.414   .     A
C530   C783    1.392   .     S
C531   F602    1.359   .     S
C531   C548    1.395   .     A
C531   C562    1.410   .     A
C532   C550    1.395   .     A
C532   F603    1.359   .     S
C532   C563    1.410   .     A
C533   F604    1.359   .     S
C533   C555    1.414   .     A
C533   C782    1.392   .     A
C534   F605    1.359   .     S
C534   C556    1.414   .     A
C534   C547    1.392   .     A
C535   C557    1.410   .     A
C535   F606    1.359   .     S
C536   F607    1.359   .     S
C536   C558    1.410   .     A
C536   C78     1.395   1_565 S
C537   C568    1.406   .     A
C537   F608    1.359   .     S
C538   C789    1.467   1_455 S
C538   O629    1.272   .     S
C538   O633    1.272   .     S
C539   C569    1.413   .     A
C539   C552    1.403   .     A
C539   F594    1.358   .     S
C540   C553    1.393   .     A
C540   F595    1.359   .     S
C540   C570    1.412   .     A
C541   C554    1.392   .     A
C541   F596    1.359   .     S
C541   C572    1.413   .     A
C542   F597    1.359   .     S
C542   C551    1.402   .     A
C542   C564    1.409   .     A
C543   F598    1.359   .     S
C544   C566    1.413   .     A
C544   F599    1.359   .     S
C544   C789    1.393   1_455 S
C545   C567    1.413   .     A
C545   F600    1.359   .     S
C545   C790    1.392   .     S
C546   C769    1.392   1_455 A
C547   C766    1.392   1_455 S
C548   C63     1.395   1_565 S
C549   O630    1.272   .     A
C549   O634    1.272   .     A
C549   C554    1.466   .     S
C551   C560    1.475   .     S
C551   C65     1.402   1_565 S
C552   C571    1.474   .     S
C552   C71     1.399   1_565 S
C553   C780    1.393   .     S
C553   C774    1.467   .     S
C554   C781    1.392   1_455 S
C555   C809    1.426   .     A
C555   C581    1.419   .     A
C556   C574    1.426   .     A
C556   C583    1.419   .     A
C557   C584    1.420   .     A
C557   C575    1.424   .     S
C558   C585    1.420   .     A
C558   C104    1.424   1_565 S
C559   C586    1.419   .     A
C559   C573    1.426   .     S
C560   O159    1.275   1_565 S
C560   O163    1.274   1_565 S
C561   C587    1.419   .     A
C561   C810    1.426   .     S
C562   C588    1.420   .     A
C562   C103    1.424   1_565 A
C563   C576    1.424   .     A
C563   C589    1.420   .     A
C564   C590    1.419   .     A
C564   C577    1.417   .     A
C565   C578    1.418   .     A
C565   C71     1.403   1_565 S
C565   C119    1.414   1_565 S
C566   C592    1.420   .     A
C566   C815    1.426   1_455 S
C567   C580    1.426   .     A
C569   C578    1.420   .     A
C570   C579    1.425   .     A
C571   O160    1.275   1_565 S
C571   O165    1.274   1_565 S
C572   C816    1.426   1_455 S
C573   C791    1.426   1_455 A
C573   C574    1.416   .     S
C574   C797    1.426   1_455 S
C575   C576    1.411   .     S
C577   C96     1.421   1_565 S
C577   C578    1.408   1_556 S
C578   C577    1.408   1_554 S
C579   C802    1.426   .     S
C579   C580    1.415   1_556 S
C580   C808    1.426   .     S
C580   C579    1.415   1_554 S
C581   C587    1.410   .     A
C582   O666    1.277   .     A
C582   O638    1.277   .     A
C583   C586    1.410   .     A
C584   C589    1.409   .     A
C585   C588    1.409   .     A
C590   C477    1.413   1_556 S
C591   C476    1.409   1_554 S
C592   C479    1.410   1_556 S
O625   Zn696   1.937   .     S
O625   Zn693   1.937   .     S
O625   Zn704   1.937   .     S
O626   Zn695   1.954   .     S
O626   C33     1.273   1_565 S
O627   Zn698   1.954   .     S
O627   C752    1.272   .     A
O628   Zn697   1.954   .     S
O629   Zn707   1.955   .     S
O630   Zn706   1.955   .     S
O631   Zn701   1.954   .     S
O632   Zn693   1.954   .     S
O633   Zn703   1.954   .     S
O634   Zn702   1.954   .     S
O635   Zn705   1.954   .     S
O636   Zn699   1.936   .     S
O636   Zn701   1.937   .     S
O636   Zn705   1.937   .     S
O637   Zn704   1.954   .     S
O638   Zn696   1.914   .     S
O639   Zn695   1.914   .     S
O640   Zn698   1.915   .     S
O641   Zn697   1.915   .     S
O642   Zn700   1.914   .     S
O643   Zn699   1.914   .     S
O644   Zn694   1.914   .     S
O645   Zn708   1.914   .     S
O646   Zn695   1.914   .     S
O647   Zn702   1.937   .     S
O647   Zn706   1.936   .     S
O647   Zn694   1.937   .     S
O647   Zn934   1.937   1_455 S
O648   Zn696   1.914   .     S
O649   Zn708   1.914   .     S
O650   Zn694   1.914   .     S
O651   Zn699   1.915   .     S
O652   Zn700   1.915   .     S
O653   Zn697   1.914   .     S
O654   Zn698   1.914   .     S
O655   Zn939   1.914   .     S
O656   Zn702   1.914   .     S
O657   Zn233   1.915   1_565 S
O658   Zn703   1.937   .     S
O658   Zn707   1.936   .     S
O658   Zn697   1.937   .     S
O658   Zn944   1.937   1_455 S
O659   Zn704   1.915   .     S
O660   Zn707   1.914   .     S
O661   Zn942   1.914   .     S
O662   Zn701   1.914   .     S
O663   Zn221   1.914   1_565 S
O664   Zn938   1.914   .     S
O665   Zn703   1.914   .     S
O666   Zn693   1.914   .     S
O667   Zn229   1.914   1_565 S
O668   Zn706   1.915   .     S
O669   Zn700   1.955   .     S
O670   Zn943   1.915   .     S
O671   Zn232   1.914   1_565 S
O672   Zn705   1.914   .     S
O680   Zn699   1.955   .     S
O690   Zn694   1.954   .     S
O691   Zn708   1.954   .     S
O691   C763    1.272   .     S
O692   Zn696   1.954   .     S
Zn695  O164    1.937   1_565 S
Zn698  O883    1.937   .     S
Zn700  O153    1.936   1_565 S
Zn702  O900    1.914   1_455 S
Zn703  O891    1.914   1_455 S
Zn706  O897    1.914   1_455 S
Zn707  O906    1.915   1_455 S
Zn708  O894    1.937   .     S
C709   O905    1.273   .     A
C709   C784    1.468   .     S
C709   O456    1.273   1_565 S
C710   O903    1.277   .     A
C710   C760    1.422   .     S
C710   O875    1.277   .     A
C711   C728    1.489   .     S
C711   C803    1.421   .     A
C711   C714    1.409   1_554 S
C712   C804    1.418   .     A
C712   C729    1.499   .     S
C712   C827    1.409   1_556 S
C713   C730    1.487   .     S
C713   C805    1.422   .     A
C713   C826    1.413   1_554 S
C714   C806    1.420   .     A
C714   C731    1.487   .     S
C714   C711    1.409   1_556 S
C715   C808    1.421   .     A
C715   C733    1.488   .     S
C715   C828    1.410   1_554 S
C716   H845    1.085   .     S
C716   O909    1.220   .     D
C716   C817    1.485   .     S
C717   C819    1.485   .     S
C717   O910    1.220   .     D
C717   H853    1.085   .     S
C718   O911    1.221   .     D
C718   C820    1.487   .     S
C718   H854    1.085   .     S
C719   C821    1.487   .     S
C719   O912    1.221   .     D
C719   H855    1.085   .     S
C720   C822    1.485   .     S
C720   H856    1.085   .     S
C720   O913    1.220   .     D
C721   O900    1.277   .     A
C721   C759    1.422   .     S
C721   O876    1.277   .     A
C722   C823    1.485   .     S
C722   O914    1.220   .     D
C722   H857    1.085   .     S
C723   O915    1.221   .     D
C723   C824    1.487   .     S
C723   H858    1.085   .     S
C724   O917    1.221   .     D
C724   H859    1.085   .     S
C724   C825    1.487   .     S
C725   O918    1.221   .     D
C725   C826    1.489   .     S
C725   H860    1.084   .     S
C726   H846    1.081   .     S
C726   O919    1.221   .     D
C726   C355    1.498   1_565 S
C727   O920    1.221   .     D
C727   C828    1.487   .     S
C727   H847    1.085   .     S
C728   O921    1.221   .     D
C728   H848    1.085   .     S
C729   H849    1.081   .     S
C729   O922    1.220   .     D
C730   O923    1.221   .     D
C730   H850    1.085   .     S
C731   O924    1.221   .     D
C731   H851    1.085   .     S
C732   C758    1.422   .     S
C732   O877    1.277   .     A
C732   O901    1.277   .     A
C733   O925    1.221   .     D
C733   H852    1.085   .     S
C734   C757    1.422   .     S
C734   O907    1.277   .     A
C734   O878    1.277   .     A
C735   O908    1.277   .     A
C735   C756    1.422   .     S
C735   O879    1.277   .     A
C736   C764    1.422   .     S
C736   O880    1.277   .     A
C736   O904    1.277   .     A
C737   C762    1.422   .     S
C737   O906    1.277   .     A
C737   O881    1.277   .     A
C738   C753    1.422   .     S
C738   O893    1.277   .     A
C738   O882    1.277   .     A
C739   C751    1.422   .     S
C739   O884    1.277   .     A
C739   O895    1.277   .     A
C740   O891    1.277   .     A
C740   O885    1.277   .     A
C740   C750    1.422   .     S
C741   O916    1.273   .     A
C741   C786    1.468   .     S
C742   O892    1.277   .     A
C742   C749    1.422   .     S
C742   O886    1.277   .     A
C743   O887    1.277   .     A
C743   O898    1.277   .     A
C743   C748    1.422   .     S
C744   O899    1.277   .     A
C744   O888    1.277   .     A
C744   C747    1.422   .     S
C745   O896    1.277   .     A
C745   O889    1.277   .     A
C745   C755    1.422   .     S
C746   O897    1.277   .     A
C746   O890    1.277   .     A
C746   C754    1.422   .     S
C747   C764    1.198   .     T
C748   C762    1.198   .     T
C749   C761    1.198   .     T
C750   C760    1.198   .     T
C751   C759    1.198   .     T
C752   C782    1.465   .     S
C752   O926    1.272   .     S
C753   C758    1.198   .     T
C754   C757    1.198   .     T
C755   C756    1.198   .     T
C761   C818    1.422   .     S
C763   O864    1.272   .     A
C763   C783    1.465   .     S
C765   F829    1.359   .     S
C765   C795    1.414   .     A
C765   C782    1.392   .     S
C766   F837    1.359   .     S
C766   C797    1.414   .     A
C766   C547    1.392   1_655 S
C767   F838    1.359   .     S
C767   C784    1.395   .     A
C767   C798    1.410   .     A
C768   C786    1.395   .     A
C768   F839    1.359   .     S
C768   C799    1.410   .     A
C769   F840    1.359   .     S
C769   C791    1.414   .     A
C769   C546    1.392   1_655 A
C770   F841    1.359   .     S
C770   C792    1.414   .     A
C770   C783    1.392   .     A
C771   C793    1.410   .     A
C771   F842    1.359   .     S
C772   F843    1.359   .     S
C772   C794    1.410   .     A
C772   C314    1.395   1_565 S
C773   C804    1.406   .     A
C773   F844    1.359   .     S
C774   O865    1.272   .     S
C774   O869    1.272   .     S
C775   C805    1.413   .     A
C775   C788    1.403   .     A
C775   F830    1.358   .     S
C776   C789    1.393   .     A
C776   F831    1.359   .     S
C776   C806    1.412   .     A
C777   C790    1.392   .     A
C777   F832    1.359   .     S
C777   C808    1.413   .     A
C778   F833    1.359   .     S
C778   C787    1.402   .     A
C778   C800    1.409   .     A
C779   F834    1.359   .     S
C780   C802    1.413   .     A
C780   F835    1.359   .     S
C781   C803    1.413   .     A
C781   F836    1.359   .     S
C781   C554    1.392   1_655 S
C784   C299    1.395   1_565 S
C785   O866    1.272   .     A
C785   O870    1.272   .     A
C785   C790    1.466   .     S
C787   C796    1.475   .     S
C787   C301    1.402   1_565 S
C788   C807    1.474   .     S
C788   C307    1.399   1_565 S
C789   C544    1.393   1_655 S
C789   C538    1.467   1_655 S
C791   C573    1.426   1_655 A
C791   C817    1.419   .     A
C792   C810    1.426   .     A
C792   C819    1.419   .     A
C793   C820    1.420   .     A
C793   C811    1.424   .     S
C794   C821    1.420   .     A
C794   C340    1.424   1_565 S
C795   C822    1.419   .     A
C795   C809    1.426   .     S
C796   O395    1.275   1_565 S
C796   O399    1.274   1_565 S
C797   C823    1.419   .     A
C797   C574    1.426   1_655 S
C798   C824    1.420   .     A
C798   C339    1.424   1_565 A
C799   C812    1.424   .     A
C799   C825    1.420   .     A
C800   C826    1.419   .     A
C800   C813    1.417   .     A
C801   C814    1.418   .     A
C801   C307    1.403   1_565 S
C801   C355    1.414   1_565 S
C802   C828    1.420   .     A
C803   C816    1.426   .     A
C805   C814    1.420   .     A
C806   C815    1.425   .     A
C807   O396    1.275   1_565 S
C807   O401    1.274   1_565 S
C809   C810    1.416   .     S
C811   C812    1.411   .     S
C813   C332    1.421   1_565 S
C813   C814    1.408   1_556 S
C814   C813    1.408   1_554 S
C815   C566    1.426   1_655 S
C815   C816    1.415   1_556 S
C816   C572    1.426   1_655 S
C816   C815    1.415   1_554 S
C817   C823    1.410   .     A
C818   O902    1.277   .     A
C818   O874    1.277   .     A
C819   C822    1.410   .     A
C820   C825    1.409   .     A
C821   C824    1.409   .     A
C826   C713    1.413   1_556 S
C827   C712    1.409   1_554 S
C828   C715    1.410   1_556 S
O861   Zn932   1.937   .     S
O861   Zn929   1.937   .     S
O861   Zn940   1.937   .     S
O862   Zn931   1.954   .     S
O862   C269    1.273   1_565 S
O863   Zn934   1.954   .     S
O863   C516    1.272   1_655 A
O864   Zn933   1.954   .     S
O865   Zn943   1.955   .     S
O866   Zn942   1.955   .     S
O867   Zn937   1.954   .     S
O868   Zn929   1.954   .     S
O869   Zn939   1.954   .     S
O870   Zn938   1.954   .     S
O871   Zn941   1.954   .     S
O872   Zn935   1.936   .     S
O872   Zn937   1.937   .     S
O872   Zn941   1.937   .     S
O873   Zn940   1.954   .     S
O874   Zn932   1.914   .     S
O875   Zn931   1.914   .     S
O876   Zn934   1.915   .     S
O877   Zn933   1.915   .     S
O878   Zn936   1.914   .     S
O879   Zn935   1.914   .     S
O880   Zn930   1.914   .     S
O881   Zn944   1.914   .     S
O882   Zn931   1.914   .     S
O883   Zn938   1.937   .     S
O883   Zn942   1.936   .     S
O883   Zn930   1.937   .     S
O884   Zn932   1.914   .     S
O885   Zn944   1.914   .     S
O886   Zn930   1.914   .     S
O887   Zn935   1.915   .     S
O888   Zn936   1.915   .     S
O889   Zn933   1.914   .     S
O890   Zn934   1.914   .     S
O891   Zn703   1.914   1_655 S
O892   Zn938   1.914   .     S
O893   Zn469   1.915   1_565 S
O894   Zn939   1.937   .     S
O894   Zn943   1.936   .     S
O894   Zn933   1.937   .     S
O895   Zn940   1.915   .     S
O896   Zn943   1.914   .     S
O897   Zn706   1.914   1_655 S
O898   Zn937   1.914   .     S
O899   Zn457   1.914   1_565 S
O900   Zn702   1.914   1_655 S
O901   Zn939   1.914   .     S
O902   Zn929   1.914   .     S
O903   Zn465   1.914   1_565 S
O904   Zn942   1.915   .     S
O905   Zn936   1.955   .     S
O906   Zn707   1.915   1_655 S
O907   Zn468   1.914   1_565 S
O908   Zn941   1.914   .     S
O916   Zn935   1.955   .     S
O926   Zn930   1.954   .     S
O927   Zn944   1.954   .     S
O927   C527    1.272   1_655 S
O928   Zn932   1.954   .     S
Zn931  O400    1.937   1_565 S
Zn934  O647    1.937   1_655 S
Zn936  O389    1.936   1_565 S
Zn944  O658    1.937   1_655 S
