data_str_m2_o2_o10_pcu_sym.92
_audit_creation_date              2020-01-03
_audit_creation_method            'Materials Studio'
_symmetry_space_group_name_H-M    'P1'
_symmetry_Int_Tables_number       1
_symmetry_cell_setting            triclinic
loop_
_symmetry_equiv_pos_as_xyz
  x,y,z
_cell_length_a                    26.1934
_cell_length_b                    30.2764
_cell_length_c                    27.8129
_cell_angle_alpha                 90.7915
_cell_angle_beta                  98.3433
_cell_angle_gamma                 91.6089
loop_
_atom_site_label
_atom_site_type_symbol
_atom_site_fract_x
_atom_site_fract_y
_atom_site_fract_z
_atom_site_U_iso_or_equiv
_atom_site_adp_type
_atom_site_occupancy
C1     C     0.16677   0.16511   0.24964   0.00000  Uiso   1.00
C2     C     0.18355   0.28743   0.44951   0.00000  Uiso   1.00
C3     C     0.16756   0.24947   0.02735   0.00000  Uiso   1.00
C4     C     0.16798   0.24949   0.47292   0.00000  Uiso   1.00
C5     C     0.06788   0.25003   0.23749   0.00000  Uiso   1.00
C6     C     0.26546   0.25024   0.26253   0.00000  Uiso   1.00
C7     C     0.01251   0.25012   0.23070   0.00000  Uiso   1.00
C8     C     0.32085   0.25053   0.26938   0.00000  Uiso   1.00
C9     C     0.12999   0.04869   0.27531   0.00000  Uiso   1.00
C10    C     0.16694   0.45174   0.20677   0.00000  Uiso   1.00
C11    C     0.13282   0.09455   0.27624   0.00000  Uiso   1.00
C12    C     0.16524   0.33504   0.25013   0.00000  Uiso   1.00
C13    C     0.16862   0.40603   0.20780   0.00000  Uiso   1.00
C14    C     0.16529   0.11707   0.24848   0.00000  Uiso   1.00
C15    C     0.16147   0.38331   0.25006   0.00000  Uiso   1.00
C16    C     0.19516   0.09342   0.21933   0.00000  Uiso   1.00
C17    C     0.15012   0.40727   0.29111   0.00000  Uiso   1.00
C18    C     0.19433   0.04739   0.22078   0.00000  Uiso   1.00
C19    C     0.15164   0.45331   0.29061   0.00000  Uiso   1.00
C20    C     0.16122   0.02463   0.24810   0.00000  Uiso   1.00
C21    C     0.15977   0.47592   0.24849   0.00000  Uiso   1.00
C22    C     0.20495   0.12096   0.14461   0.00000  Uiso   1.00
C23    C     0.20877   0.26838   0.06014   0.00000  Uiso   1.00
C24    C     0.22766   0.08994   0.10994   0.00000  Uiso   1.00
C25    C     0.20677   0.09935   0.05704   0.00000  Uiso   1.00
C26    C     0.08886   0.36952   0.32707   0.00000  Uiso   1.00
C27    C     0.05325   0.40257   0.34641   0.00000  Uiso   1.00
C28    C     0.33179   0.38313   0.34389   0.00000  Uiso   1.00
C29    C     0.04952   0.24330   0.49843   0.00000  Uiso   1.00
C30    C     0.01044   0.22177   0.45823   0.00000  Uiso   1.00
C31    C     0.31109   0.25620   0.42985   0.00000  Uiso   1.00
C32    C     0.15884   0.35388   0.47503   0.00000  Uiso   1.00
C33    C     0.17676   0.39507   0.00589   0.00000  Uiso   1.00
C34    C     0.15089   0.21225   0.44329   0.00000  Uiso   1.00
C35    C     0.13321   0.42748   0.00610   0.00000  Uiso   1.00
C36    C     0.20707   0.26916   0.11056   0.00000  Uiso   1.00
C37    C     0.14884   0.21371   0.39245   0.00000  Uiso   1.00
C38    C     0.12672   0.22990   0.09807   0.00000  Uiso   1.00
C39    C     0.18628   0.28589   0.39926   0.00000  Uiso   1.00
C40    C     0.12527   0.23132   0.04731   0.00000  Uiso   1.00
Cu41   Cu    0.16667   0.24999   0.29821   0.00000  Uiso   1.00
Cu42   Cu    0.16667   0.25000   0.20178   0.00000  Uiso   1.00
H43    H     0.32558   0.24973   0.19369   0.00000  Uiso   1.00
H44    H     0.13887   0.18197   0.45919   0.00000  Uiso   1.00
H45    H     0.23879   0.28468   0.13467   0.00000  Uiso   1.00
H46    H     0.13387   0.18510   0.37071   0.00000  Uiso   1.00
H47    H     0.21337   0.15559   0.13472   0.00000  Uiso   1.00
H48    H     0.16194   0.11660   0.13925   0.00000  Uiso   1.00
H49    H     0.27040   0.09433   0.11547   0.00000  Uiso   1.00
H50    H     0.21770   0.05512   0.11771   0.00000  Uiso   1.00
H51    H     0.16411   0.09456   0.05050   0.00000  Uiso   1.00
H52    H     0.22378   0.07634   0.03274   0.00000  Uiso   1.00
H53    H     0.21710   0.13381   0.04803   0.00000  Uiso   1.00
H54    H     0.00777   0.25099   0.30640   0.00000  Uiso   1.00
H55    H     0.08852   0.33892   0.34866   0.00000  Uiso   1.00
H56    H     0.07334   0.35964   0.28877   0.00000  Uiso   1.00
H57    H     0.06851   0.41157   0.38478   0.00000  Uiso   1.00
H58    H     0.05209   0.43304   0.32452   0.00000  Uiso   1.00
H59    H     0.31550   0.37428   0.30573   0.00000  Uiso   1.00
H60    H     0.30679   0.40785   0.35785   0.00000  Uiso   1.00
H61    H     0.33174   0.35315   0.36646   0.00000  Uiso   1.00
H62    H     0.10112   0.19175   0.14397   0.00000  Uiso   1.00
H63    H     0.23263   0.30810   0.35772   0.00000  Uiso   1.00
H64    H     0.06987   0.27105   0.48245   0.00000  Uiso   1.00
H65    H     0.10313   0.03221   0.29575   0.00000  Uiso   1.00
H66    H     0.02866   0.25680   0.02729   0.00000  Uiso   1.00
H67    H     0.03113   0.20316   0.43263   0.00000  Uiso   1.00
H68    H     0.31820   0.19813   0.47452   0.00000  Uiso   1.00
H69    H     0.29155   0.27644   0.45489   0.00000  Uiso   1.00
H70    H     0.28155   0.23927   0.40263   0.00000  Uiso   1.00
H71    H     0.00230   0.27816   0.41044   0.00000  Uiso   1.00
H72    H     0.12628   0.33756   0.49041   0.00000  Uiso   1.00
H73    H     0.14514   0.36413   0.43712   0.00000  Uiso   1.00
H74    H     0.19047   0.38522   0.04384   0.00000  Uiso   1.00
H75    H     0.20944   0.41169   0.49120   0.00000  Uiso   1.00
H76    H     0.17157   0.46807   0.17323   0.00000  Uiso   1.00
H77    H     0.11975   0.43858   0.46862   0.00000  Uiso   1.00
H78    H     0.14741   0.45684   0.02907   0.00000  Uiso   1.00
H79    H     0.10031   0.41170   0.02118   0.00000  Uiso   1.00
H80    H     0.10882   0.11254   0.29790   0.00000  Uiso   1.00
H81    H     0.17586   0.38853   0.17535   0.00000  Uiso   1.00
H82    H     0.22024   0.02966   0.20104   0.00000  Uiso   1.00
H83    H     0.14655   0.47116   0.32348   0.00000  Uiso   1.00
H84    H     0.24256   0.28231   0.04703   0.00000  Uiso   1.00
N85    N     0.16667   0.25001   0.12934   0.00000  Uiso   1.00
N86    N     0.16667   0.24999   0.37065   0.00000  Uiso   1.00
O87    O     0.16667   0.18572   0.29071   0.00000  Uiso   1.00
O88    O     0.14041   0.38660   0.33310   0.00000  Uiso   1.00
O89    O     0.08660   0.20754   0.11469   0.00000  Uiso   1.00
O90    O     0.21141   0.32071   0.38076   0.00000  Uiso   1.00
O91    O     0.08395   0.21091   0.01797   0.00000  Uiso   1.00
O92    O     0.20059   0.32528   0.47606   0.00000  Uiso   1.00
O93    O     0.16666   0.31427   0.20928   0.00000  Uiso   1.00
O94    O     0.16667   0.18573   0.20928   0.00000  Uiso   1.00
O95    O     0.16666   0.31427   0.29072   0.00000  Uiso   1.00
O96    O     0.09161   0.25000   0.28132   0.00000  Uiso   1.00
O97    O     0.24172   0.25000   0.21868   0.00000  Uiso   1.00
O98    O     0.09161   0.25000   0.19988   0.00000  Uiso   1.00
O99    O     0.24172   0.25000   0.30011   0.00000  Uiso   1.00
O100   O     0.22897   0.11509   0.19308   0.00000  Uiso   1.00
C101   C     0.50010   0.16511   0.24964   0.00000  Uiso   1.00
C102   C     0.51689   0.28743   0.44951   0.00000  Uiso   1.00
C103   C     0.50089   0.24947   0.02735   0.00000  Uiso   1.00
C104   C     0.50132   0.24949   0.47292   0.00000  Uiso   1.00
C105   C     0.40122   0.25003   0.23749   0.00000  Uiso   1.00
C106   C     0.59879   0.25024   0.26253   0.00000  Uiso   1.00
C107   C     0.34585   0.25012   0.23070   0.00000  Uiso   1.00
C108   C     0.65419   0.25053   0.26938   0.00000  Uiso   1.00
C109   C     0.46332   0.04869   0.27531   0.00000  Uiso   1.00
C110   C     0.50027   0.45174   0.20677   0.00000  Uiso   1.00
C111   C     0.46616   0.09455   0.27624   0.00000  Uiso   1.00
C112   C     0.49857   0.33504   0.25013   0.00000  Uiso   1.00
C113   C     0.50195   0.40603   0.20780   0.00000  Uiso   1.00
C114   C     0.49862   0.11707   0.24848   0.00000  Uiso   1.00
C115   C     0.49480   0.38331   0.25006   0.00000  Uiso   1.00
C116   C     0.52850   0.09342   0.21933   0.00000  Uiso   1.00
C117   C     0.48345   0.40727   0.29111   0.00000  Uiso   1.00
C118   C     0.52766   0.04739   0.22078   0.00000  Uiso   1.00
C119   C     0.48497   0.45331   0.29061   0.00000  Uiso   1.00
C120   C     0.49455   0.02463   0.24810   0.00000  Uiso   1.00
C121   C     0.49310   0.47592   0.24849   0.00000  Uiso   1.00
C122   C     0.53829   0.12096   0.14461   0.00000  Uiso   1.00
C123   C     0.54210   0.26838   0.06014   0.00000  Uiso   1.00
C124   C     0.56100   0.08994   0.10994   0.00000  Uiso   1.00
C125   C     0.54011   0.09935   0.05704   0.00000  Uiso   1.00
C126   C     0.42219   0.36952   0.32707   0.00000  Uiso   1.00
C127   C     0.38658   0.40257   0.34641   0.00000  Uiso   1.00
C128   C     0.66512   0.38313   0.34389   0.00000  Uiso   1.00
C129   C     0.38285   0.24330   0.49843   0.00000  Uiso   1.00
C130   C     0.34377   0.22177   0.45823   0.00000  Uiso   1.00
C131   C     0.64442   0.25620   0.42985   0.00000  Uiso   1.00
C132   C     0.49217   0.35388   0.47503   0.00000  Uiso   1.00
C133   C     0.51010   0.39507   0.00589   0.00000  Uiso   1.00
C134   C     0.48422   0.21225   0.44329   0.00000  Uiso   1.00
C135   C     0.46655   0.42748   0.00610   0.00000  Uiso   1.00
C136   C     0.54040   0.26916   0.11056   0.00000  Uiso   1.00
C137   C     0.48217   0.21371   0.39245   0.00000  Uiso   1.00
C138   C     0.46005   0.22990   0.09807   0.00000  Uiso   1.00
C139   C     0.51961   0.28589   0.39926   0.00000  Uiso   1.00
C140   C     0.45860   0.23132   0.04731   0.00000  Uiso   1.00
Cu141  Cu    0.50000   0.24999   0.29821   0.00000  Uiso   1.00
Cu142  Cu    0.50000   0.25000   0.20178   0.00000  Uiso   1.00
H143   H     0.65892   0.24973   0.19369   0.00000  Uiso   1.00
H144   H     0.47221   0.18197   0.45919   0.00000  Uiso   1.00
H145   H     0.57212   0.28468   0.13467   0.00000  Uiso   1.00
H146   H     0.46721   0.18510   0.37071   0.00000  Uiso   1.00
H147   H     0.54671   0.15559   0.13472   0.00000  Uiso   1.00
H148   H     0.49527   0.11660   0.13925   0.00000  Uiso   1.00
H149   H     0.60374   0.09433   0.11547   0.00000  Uiso   1.00
H150   H     0.55104   0.05512   0.11771   0.00000  Uiso   1.00
H151   H     0.49744   0.09456   0.05050   0.00000  Uiso   1.00
H152   H     0.55711   0.07634   0.03274   0.00000  Uiso   1.00
H153   H     0.55044   0.13381   0.04803   0.00000  Uiso   1.00
H154   H     0.34111   0.25099   0.30640   0.00000  Uiso   1.00
H155   H     0.42185   0.33892   0.34866   0.00000  Uiso   1.00
H156   H     0.40668   0.35964   0.28877   0.00000  Uiso   1.00
H157   H     0.40185   0.41157   0.38478   0.00000  Uiso   1.00
H158   H     0.38543   0.43304   0.32452   0.00000  Uiso   1.00
H159   H     0.64884   0.37428   0.30573   0.00000  Uiso   1.00
H160   H     0.64012   0.40785   0.35785   0.00000  Uiso   1.00
H161   H     0.66507   0.35315   0.36646   0.00000  Uiso   1.00
H162   H     0.43445   0.19175   0.14397   0.00000  Uiso   1.00
H163   H     0.56596   0.30810   0.35772   0.00000  Uiso   1.00
H164   H     0.40320   0.27105   0.48245   0.00000  Uiso   1.00
H165   H     0.43646   0.03221   0.29575   0.00000  Uiso   1.00
H166   H     0.36200   0.25680   0.02729   0.00000  Uiso   1.00
H167   H     0.36447   0.20316   0.43263   0.00000  Uiso   1.00
H168   H     0.65154   0.19813   0.47452   0.00000  Uiso   1.00
H169   H     0.62489   0.27644   0.45489   0.00000  Uiso   1.00
H170   H     0.61488   0.23927   0.40263   0.00000  Uiso   1.00
H171   H     0.33564   0.27816   0.41044   0.00000  Uiso   1.00
H172   H     0.45961   0.33756   0.49041   0.00000  Uiso   1.00
H173   H     0.47848   0.36413   0.43712   0.00000  Uiso   1.00
H174   H     0.52380   0.38522   0.04384   0.00000  Uiso   1.00
H175   H     0.54278   0.41169   0.49120   0.00000  Uiso   1.00
H176   H     0.50490   0.46807   0.17323   0.00000  Uiso   1.00
H177   H     0.45308   0.43858   0.46862   0.00000  Uiso   1.00
H178   H     0.48075   0.45684   0.02907   0.00000  Uiso   1.00
H179   H     0.43365   0.41170   0.02118   0.00000  Uiso   1.00
H180   H     0.44216   0.11254   0.29790   0.00000  Uiso   1.00
H181   H     0.50919   0.38853   0.17535   0.00000  Uiso   1.00
H182   H     0.55358   0.02966   0.20104   0.00000  Uiso   1.00
H183   H     0.47988   0.47116   0.32348   0.00000  Uiso   1.00
H184   H     0.57589   0.28231   0.04703   0.00000  Uiso   1.00
N185   N     0.50000   0.25001   0.12934   0.00000  Uiso   1.00
N186   N     0.50000   0.24999   0.37065   0.00000  Uiso   1.00
O187   O     0.50000   0.18572   0.29071   0.00000  Uiso   1.00
O188   O     0.47375   0.38660   0.33310   0.00000  Uiso   1.00
O189   O     0.41993   0.20754   0.11469   0.00000  Uiso   1.00
O190   O     0.54474   0.32071   0.38076   0.00000  Uiso   1.00
O191   O     0.41728   0.21091   0.01797   0.00000  Uiso   1.00
O192   O     0.53392   0.32528   0.47606   0.00000  Uiso   1.00
O193   O     0.50000   0.31427   0.20928   0.00000  Uiso   1.00
O194   O     0.50000   0.18573   0.20928   0.00000  Uiso   1.00
O195   O     0.50000   0.31427   0.29072   0.00000  Uiso   1.00
O196   O     0.42495   0.25000   0.28132   0.00000  Uiso   1.00
O197   O     0.57505   0.25000   0.21868   0.00000  Uiso   1.00
O198   O     0.42495   0.25000   0.19988   0.00000  Uiso   1.00
O199   O     0.57505   0.25000   0.30011   0.00000  Uiso   1.00
O200   O     0.56231   0.11509   0.19308   0.00000  Uiso   1.00
C201   C     0.83343   0.16511   0.24964   0.00000  Uiso   1.00
C202   C     0.85022   0.28743   0.44951   0.00000  Uiso   1.00
C203   C     0.83422   0.24947   0.02735   0.00000  Uiso   1.00
C204   C     0.83465   0.24949   0.47292   0.00000  Uiso   1.00
C205   C     0.73455   0.25003   0.23749   0.00000  Uiso   1.00
C206   C     0.93213   0.25024   0.26253   0.00000  Uiso   1.00
C207   C     0.67918   0.25012   0.23070   0.00000  Uiso   1.00
C208   C     0.98752   0.25053   0.26938   0.00000  Uiso   1.00
C209   C     0.79665   0.04869   0.27531   0.00000  Uiso   1.00
C210   C     0.83360   0.45174   0.20677   0.00000  Uiso   1.00
C211   C     0.79949   0.09455   0.27624   0.00000  Uiso   1.00
C212   C     0.83191   0.33504   0.25013   0.00000  Uiso   1.00
C213   C     0.83529   0.40603   0.20780   0.00000  Uiso   1.00
C214   C     0.83196   0.11707   0.24848   0.00000  Uiso   1.00
C215   C     0.82813   0.38331   0.25006   0.00000  Uiso   1.00
C216   C     0.86183   0.09342   0.21933   0.00000  Uiso   1.00
C217   C     0.81679   0.40727   0.29111   0.00000  Uiso   1.00
C218   C     0.86099   0.04739   0.22078   0.00000  Uiso   1.00
C219   C     0.81831   0.45331   0.29061   0.00000  Uiso   1.00
C220   C     0.82788   0.02463   0.24810   0.00000  Uiso   1.00
C221   C     0.82643   0.47592   0.24849   0.00000  Uiso   1.00
C222   C     0.87162   0.12096   0.14461   0.00000  Uiso   1.00
C223   C     0.87544   0.26838   0.06014   0.00000  Uiso   1.00
C224   C     0.89433   0.08994   0.10994   0.00000  Uiso   1.00
C225   C     0.87344   0.09935   0.05704   0.00000  Uiso   1.00
C226   C     0.75552   0.36952   0.32707   0.00000  Uiso   1.00
C227   C     0.71992   0.40257   0.34641   0.00000  Uiso   1.00
C228   C     0.99846   0.38313   0.34389   0.00000  Uiso   1.00
C229   C     0.71618   0.24330   0.49843   0.00000  Uiso   1.00
C230   C     0.67711   0.22177   0.45823   0.00000  Uiso   1.00
C231   C     0.97775   0.25620   0.42985   0.00000  Uiso   1.00
C232   C     0.82551   0.35388   0.47503   0.00000  Uiso   1.00
C233   C     0.84343   0.39507   0.00589   0.00000  Uiso   1.00
C234   C     0.81755   0.21225   0.44329   0.00000  Uiso   1.00
C235   C     0.79988   0.42748   0.00610   0.00000  Uiso   1.00
C236   C     0.87374   0.26916   0.11056   0.00000  Uiso   1.00
C237   C     0.81551   0.21371   0.39245   0.00000  Uiso   1.00
C238   C     0.79338   0.22990   0.09807   0.00000  Uiso   1.00
C239   C     0.85294   0.28589   0.39926   0.00000  Uiso   1.00
C240   C     0.79194   0.23132   0.04731   0.00000  Uiso   1.00
Cu241  Cu    0.83333   0.24999   0.29821   0.00000  Uiso   1.00
Cu242  Cu    0.83333   0.25000   0.20178   0.00000  Uiso   1.00
H243   H     0.99225   0.24973   0.19369   0.00000  Uiso   1.00
H244   H     0.80554   0.18197   0.45919   0.00000  Uiso   1.00
H245   H     0.90546   0.28468   0.13467   0.00000  Uiso   1.00
H246   H     0.80054   0.18510   0.37071   0.00000  Uiso   1.00
H247   H     0.88004   0.15559   0.13472   0.00000  Uiso   1.00
H248   H     0.82861   0.11660   0.13925   0.00000  Uiso   1.00
H249   H     0.93707   0.09433   0.11547   0.00000  Uiso   1.00
H250   H     0.88437   0.05512   0.11771   0.00000  Uiso   1.00
H251   H     0.83077   0.09456   0.05050   0.00000  Uiso   1.00
H252   H     0.89045   0.07634   0.03274   0.00000  Uiso   1.00
H253   H     0.88377   0.13381   0.04803   0.00000  Uiso   1.00
H254   H     0.67444   0.25099   0.30640   0.00000  Uiso   1.00
H255   H     0.75519   0.33892   0.34866   0.00000  Uiso   1.00
H256   H     0.74001   0.35964   0.28877   0.00000  Uiso   1.00
H257   H     0.73518   0.41157   0.38478   0.00000  Uiso   1.00
H258   H     0.71876   0.43304   0.32452   0.00000  Uiso   1.00
H259   H     0.98217   0.37428   0.30573   0.00000  Uiso   1.00
H260   H     0.97345   0.40785   0.35785   0.00000  Uiso   1.00
H261   H     0.99841   0.35315   0.36646   0.00000  Uiso   1.00
H262   H     0.76779   0.19175   0.14397   0.00000  Uiso   1.00
H263   H     0.89930   0.30810   0.35772   0.00000  Uiso   1.00
H264   H     0.73653   0.27105   0.48245   0.00000  Uiso   1.00
H265   H     0.76980   0.03221   0.29575   0.00000  Uiso   1.00
H266   H     0.69533   0.25680   0.02729   0.00000  Uiso   1.00
H267   H     0.69780   0.20316   0.43263   0.00000  Uiso   1.00
H268   H     0.98487   0.19813   0.47452   0.00000  Uiso   1.00
H269   H     0.95822   0.27644   0.45489   0.00000  Uiso   1.00
H270   H     0.94822   0.23927   0.40263   0.00000  Uiso   1.00
H271   H     0.66897   0.27816   0.41044   0.00000  Uiso   1.00
H272   H     0.79294   0.33756   0.49041   0.00000  Uiso   1.00
H273   H     0.81181   0.36413   0.43712   0.00000  Uiso   1.00
H274   H     0.85713   0.38522   0.04384   0.00000  Uiso   1.00
H275   H     0.87611   0.41169   0.49120   0.00000  Uiso   1.00
H276   H     0.83823   0.46807   0.17323   0.00000  Uiso   1.00
H277   H     0.78642   0.43858   0.46862   0.00000  Uiso   1.00
H278   H     0.81408   0.45684   0.02907   0.00000  Uiso   1.00
H279   H     0.76698   0.41170   0.02118   0.00000  Uiso   1.00
H280   H     0.77549   0.11254   0.29790   0.00000  Uiso   1.00
H281   H     0.84252   0.38853   0.17535   0.00000  Uiso   1.00
H282   H     0.88691   0.02966   0.20104   0.00000  Uiso   1.00
H283   H     0.81321   0.47116   0.32348   0.00000  Uiso   1.00
H284   H     0.90923   0.28231   0.04703   0.00000  Uiso   1.00
N285   N     0.83333   0.25001   0.12934   0.00000  Uiso   1.00
N286   N     0.83333   0.24999   0.37065   0.00000  Uiso   1.00
O287   O     0.83334   0.18572   0.29071   0.00000  Uiso   1.00
O288   O     0.80708   0.38660   0.33310   0.00000  Uiso   1.00
O289   O     0.75327   0.20754   0.11469   0.00000  Uiso   1.00
O290   O     0.87808   0.32071   0.38076   0.00000  Uiso   1.00
O291   O     0.75062   0.21091   0.01797   0.00000  Uiso   1.00
O292   O     0.86726   0.32528   0.47606   0.00000  Uiso   1.00
O293   O     0.83333   0.31427   0.20928   0.00000  Uiso   1.00
O294   O     0.83334   0.18573   0.20928   0.00000  Uiso   1.00
O295   O     0.83333   0.31427   0.29072   0.00000  Uiso   1.00
O296   O     0.75828   0.25000   0.28132   0.00000  Uiso   1.00
O297   O     0.90839   0.25000   0.21868   0.00000  Uiso   1.00
O298   O     0.75828   0.25000   0.19988   0.00000  Uiso   1.00
O299   O     0.90839   0.25000   0.30011   0.00000  Uiso   1.00
O300   O     0.89564   0.11509   0.19308   0.00000  Uiso   1.00
C301   C     0.16677   0.66511   0.24964   0.00000  Uiso   1.00
C302   C     0.18355   0.78743   0.44951   0.00000  Uiso   1.00
C303   C     0.16756   0.74947   0.02735   0.00000  Uiso   1.00
C304   C     0.16798   0.74949   0.47292   0.00000  Uiso   1.00
C305   C     0.06788   0.75003   0.23749   0.00000  Uiso   1.00
C306   C     0.26546   0.75024   0.26253   0.00000  Uiso   1.00
C307   C     0.01251   0.75012   0.23070   0.00000  Uiso   1.00
C308   C     0.32085   0.75053   0.26938   0.00000  Uiso   1.00
C309   C     0.12999   0.54869   0.27531   0.00000  Uiso   1.00
C310   C     0.16694   0.95174   0.20677   0.00000  Uiso   1.00
C311   C     0.13282   0.59455   0.27624   0.00000  Uiso   1.00
C312   C     0.16524   0.83504   0.25013   0.00000  Uiso   1.00
C313   C     0.16862   0.90603   0.20780   0.00000  Uiso   1.00
C314   C     0.16529   0.61707   0.24848   0.00000  Uiso   1.00
C315   C     0.16147   0.88331   0.25006   0.00000  Uiso   1.00
C316   C     0.19516   0.59342   0.21933   0.00000  Uiso   1.00
C317   C     0.15012   0.90727   0.29111   0.00000  Uiso   1.00
C318   C     0.19433   0.54739   0.22078   0.00000  Uiso   1.00
C319   C     0.15164   0.95331   0.29061   0.00000  Uiso   1.00
C320   C     0.16122   0.52463   0.24810   0.00000  Uiso   1.00
C321   C     0.15977   0.97592   0.24849   0.00000  Uiso   1.00
C322   C     0.20495   0.62096   0.14461   0.00000  Uiso   1.00
C323   C     0.20877   0.76838   0.06014   0.00000  Uiso   1.00
C324   C     0.22766   0.58994   0.10994   0.00000  Uiso   1.00
C325   C     0.20677   0.59935   0.05704   0.00000  Uiso   1.00
C326   C     0.08886   0.86952   0.32707   0.00000  Uiso   1.00
C327   C     0.05325   0.90257   0.34641   0.00000  Uiso   1.00
C328   C     0.33179   0.88313   0.34389   0.00000  Uiso   1.00
C329   C     0.04952   0.74330   0.49843   0.00000  Uiso   1.00
C330   C     0.01044   0.72177   0.45823   0.00000  Uiso   1.00
C331   C     0.31109   0.75620   0.42985   0.00000  Uiso   1.00
C332   C     0.15884   0.85388   0.47503   0.00000  Uiso   1.00
C333   C     0.17676   0.89507   0.00589   0.00000  Uiso   1.00
C334   C     0.15089   0.71225   0.44329   0.00000  Uiso   1.00
C335   C     0.13321   0.92748   0.00610   0.00000  Uiso   1.00
C336   C     0.20707   0.76916   0.11056   0.00000  Uiso   1.00
C337   C     0.14884   0.71371   0.39245   0.00000  Uiso   1.00
C338   C     0.12672   0.72990   0.09807   0.00000  Uiso   1.00
C339   C     0.18628   0.78589   0.39926   0.00000  Uiso   1.00
C340   C     0.12527   0.73132   0.04731   0.00000  Uiso   1.00
Cu341  Cu    0.16667   0.74999   0.29821   0.00000  Uiso   1.00
Cu342  Cu    0.16667   0.75000   0.20178   0.00000  Uiso   1.00
H343   H     0.32558   0.74973   0.19369   0.00000  Uiso   1.00
H344   H     0.13887   0.68197   0.45919   0.00000  Uiso   1.00
H345   H     0.23879   0.78468   0.13467   0.00000  Uiso   1.00
H346   H     0.13387   0.68510   0.37071   0.00000  Uiso   1.00
H347   H     0.21337   0.65559   0.13472   0.00000  Uiso   1.00
H348   H     0.16194   0.61660   0.13925   0.00000  Uiso   1.00
H349   H     0.27040   0.59433   0.11547   0.00000  Uiso   1.00
H350   H     0.21770   0.55512   0.11771   0.00000  Uiso   1.00
H351   H     0.16411   0.59456   0.05050   0.00000  Uiso   1.00
H352   H     0.22378   0.57634   0.03274   0.00000  Uiso   1.00
H353   H     0.21710   0.63381   0.04803   0.00000  Uiso   1.00
H354   H     0.00777   0.75099   0.30640   0.00000  Uiso   1.00
H355   H     0.08852   0.83892   0.34866   0.00000  Uiso   1.00
H356   H     0.07334   0.85964   0.28877   0.00000  Uiso   1.00
H357   H     0.06851   0.91157   0.38478   0.00000  Uiso   1.00
H358   H     0.05209   0.93304   0.32452   0.00000  Uiso   1.00
H359   H     0.31550   0.87428   0.30573   0.00000  Uiso   1.00
H360   H     0.30679   0.90785   0.35785   0.00000  Uiso   1.00
H361   H     0.33174   0.85315   0.36646   0.00000  Uiso   1.00
H362   H     0.10112   0.69175   0.14397   0.00000  Uiso   1.00
H363   H     0.23263   0.80810   0.35772   0.00000  Uiso   1.00
H364   H     0.06987   0.77105   0.48245   0.00000  Uiso   1.00
H365   H     0.10313   0.53221   0.29575   0.00000  Uiso   1.00
H366   H     0.02866   0.75680   0.02729   0.00000  Uiso   1.00
H367   H     0.03113   0.70316   0.43263   0.00000  Uiso   1.00
H368   H     0.31820   0.69813   0.47452   0.00000  Uiso   1.00
H369   H     0.29155   0.77644   0.45489   0.00000  Uiso   1.00
H370   H     0.28155   0.73927   0.40263   0.00000  Uiso   1.00
H371   H     0.00230   0.77816   0.41044   0.00000  Uiso   1.00
H372   H     0.12628   0.83756   0.49041   0.00000  Uiso   1.00
H373   H     0.14514   0.86413   0.43712   0.00000  Uiso   1.00
H374   H     0.19047   0.88522   0.04384   0.00000  Uiso   1.00
H375   H     0.20944   0.91169   0.49120   0.00000  Uiso   1.00
H376   H     0.17157   0.96807   0.17323   0.00000  Uiso   1.00
H377   H     0.11975   0.93858   0.46862   0.00000  Uiso   1.00
H378   H     0.14741   0.95684   0.02907   0.00000  Uiso   1.00
H379   H     0.10031   0.91170   0.02118   0.00000  Uiso   1.00
H380   H     0.10882   0.61254   0.29790   0.00000  Uiso   1.00
H381   H     0.17586   0.88853   0.17535   0.00000  Uiso   1.00
H382   H     0.22024   0.52966   0.20104   0.00000  Uiso   1.00
H383   H     0.14655   0.97116   0.32348   0.00000  Uiso   1.00
H384   H     0.24256   0.78231   0.04703   0.00000  Uiso   1.00
N385   N     0.16667   0.75001   0.12934   0.00000  Uiso   1.00
N386   N     0.16667   0.74999   0.37065   0.00000  Uiso   1.00
O387   O     0.16667   0.68572   0.29071   0.00000  Uiso   1.00
O388   O     0.14041   0.88660   0.33310   0.00000  Uiso   1.00
O389   O     0.08660   0.70754   0.11469   0.00000  Uiso   1.00
O390   O     0.21141   0.82071   0.38076   0.00000  Uiso   1.00
O391   O     0.08395   0.71091   0.01797   0.00000  Uiso   1.00
O392   O     0.20059   0.82528   0.47606   0.00000  Uiso   1.00
O393   O     0.16666   0.81427   0.20928   0.00000  Uiso   1.00
O394   O     0.16667   0.68573   0.20928   0.00000  Uiso   1.00
O395   O     0.16666   0.81427   0.29072   0.00000  Uiso   1.00
O396   O     0.09161   0.75000   0.28132   0.00000  Uiso   1.00
O397   O     0.24172   0.75000   0.21868   0.00000  Uiso   1.00
O398   O     0.09161   0.75000   0.19988   0.00000  Uiso   1.00
O399   O     0.24172   0.75000   0.30011   0.00000  Uiso   1.00
O400   O     0.22897   0.61509   0.19308   0.00000  Uiso   1.00
C401   C     0.50010   0.66511   0.24964   0.00000  Uiso   1.00
C402   C     0.51689   0.78743   0.44951   0.00000  Uiso   1.00
C403   C     0.50089   0.74947   0.02735   0.00000  Uiso   1.00
C404   C     0.50132   0.74949   0.47292   0.00000  Uiso   1.00
C405   C     0.40122   0.75003   0.23749   0.00000  Uiso   1.00
C406   C     0.59879   0.75024   0.26253   0.00000  Uiso   1.00
C407   C     0.34585   0.75012   0.23070   0.00000  Uiso   1.00
C408   C     0.65419   0.75053   0.26938   0.00000  Uiso   1.00
C409   C     0.46332   0.54869   0.27531   0.00000  Uiso   1.00
C410   C     0.50027   0.95174   0.20677   0.00000  Uiso   1.00
C411   C     0.46616   0.59455   0.27624   0.00000  Uiso   1.00
C412   C     0.49857   0.83504   0.25013   0.00000  Uiso   1.00
C413   C     0.50195   0.90603   0.20780   0.00000  Uiso   1.00
C414   C     0.49862   0.61707   0.24848   0.00000  Uiso   1.00
C415   C     0.49480   0.88331   0.25006   0.00000  Uiso   1.00
C416   C     0.52850   0.59342   0.21933   0.00000  Uiso   1.00
C417   C     0.48345   0.90727   0.29111   0.00000  Uiso   1.00
C418   C     0.52766   0.54739   0.22078   0.00000  Uiso   1.00
C419   C     0.48497   0.95331   0.29061   0.00000  Uiso   1.00
C420   C     0.49455   0.52463   0.24810   0.00000  Uiso   1.00
C421   C     0.49310   0.97592   0.24849   0.00000  Uiso   1.00
C422   C     0.53829   0.62096   0.14461   0.00000  Uiso   1.00
C423   C     0.54210   0.76838   0.06014   0.00000  Uiso   1.00
C424   C     0.56100   0.58994   0.10994   0.00000  Uiso   1.00
C425   C     0.54011   0.59935   0.05704   0.00000  Uiso   1.00
C426   C     0.42219   0.86952   0.32707   0.00000  Uiso   1.00
C427   C     0.38658   0.90257   0.34641   0.00000  Uiso   1.00
C428   C     0.66512   0.88313   0.34389   0.00000  Uiso   1.00
C429   C     0.38285   0.74330   0.49843   0.00000  Uiso   1.00
C430   C     0.34377   0.72177   0.45823   0.00000  Uiso   1.00
C431   C     0.64442   0.75620   0.42985   0.00000  Uiso   1.00
C432   C     0.49217   0.85388   0.47503   0.00000  Uiso   1.00
C433   C     0.51010   0.89507   0.00589   0.00000  Uiso   1.00
C434   C     0.48422   0.71225   0.44329   0.00000  Uiso   1.00
C435   C     0.46655   0.92748   0.00610   0.00000  Uiso   1.00
C436   C     0.54040   0.76916   0.11056   0.00000  Uiso   1.00
C437   C     0.48217   0.71371   0.39245   0.00000  Uiso   1.00
C438   C     0.46005   0.72990   0.09807   0.00000  Uiso   1.00
C439   C     0.51961   0.78589   0.39926   0.00000  Uiso   1.00
C440   C     0.45860   0.73132   0.04731   0.00000  Uiso   1.00
Cu441  Cu    0.50000   0.74999   0.29821   0.00000  Uiso   1.00
Cu442  Cu    0.50000   0.75000   0.20178   0.00000  Uiso   1.00
H443   H     0.65892   0.74973   0.19369   0.00000  Uiso   1.00
H444   H     0.47221   0.68197   0.45919   0.00000  Uiso   1.00
H445   H     0.57212   0.78468   0.13467   0.00000  Uiso   1.00
H446   H     0.46721   0.68510   0.37071   0.00000  Uiso   1.00
H447   H     0.54671   0.65559   0.13472   0.00000  Uiso   1.00
H448   H     0.49527   0.61660   0.13925   0.00000  Uiso   1.00
H449   H     0.60374   0.59433   0.11547   0.00000  Uiso   1.00
H450   H     0.55104   0.55512   0.11771   0.00000  Uiso   1.00
H451   H     0.49744   0.59456   0.05050   0.00000  Uiso   1.00
H452   H     0.55711   0.57634   0.03274   0.00000  Uiso   1.00
H453   H     0.55044   0.63381   0.04803   0.00000  Uiso   1.00
H454   H     0.34111   0.75099   0.30640   0.00000  Uiso   1.00
H455   H     0.42185   0.83892   0.34866   0.00000  Uiso   1.00
H456   H     0.40668   0.85964   0.28877   0.00000  Uiso   1.00
H457   H     0.40185   0.91157   0.38478   0.00000  Uiso   1.00
H458   H     0.38543   0.93304   0.32452   0.00000  Uiso   1.00
H459   H     0.64884   0.87428   0.30573   0.00000  Uiso   1.00
H460   H     0.64012   0.90785   0.35785   0.00000  Uiso   1.00
H461   H     0.66507   0.85315   0.36646   0.00000  Uiso   1.00
H462   H     0.43445   0.69175   0.14397   0.00000  Uiso   1.00
H463   H     0.56596   0.80810   0.35772   0.00000  Uiso   1.00
H464   H     0.40320   0.77105   0.48245   0.00000  Uiso   1.00
H465   H     0.43646   0.53221   0.29575   0.00000  Uiso   1.00
H466   H     0.36200   0.75680   0.02729   0.00000  Uiso   1.00
H467   H     0.36447   0.70316   0.43263   0.00000  Uiso   1.00
H468   H     0.65154   0.69813   0.47452   0.00000  Uiso   1.00
H469   H     0.62489   0.77644   0.45489   0.00000  Uiso   1.00
H470   H     0.61488   0.73927   0.40263   0.00000  Uiso   1.00
H471   H     0.33564   0.77816   0.41044   0.00000  Uiso   1.00
H472   H     0.45961   0.83756   0.49041   0.00000  Uiso   1.00
H473   H     0.47848   0.86413   0.43712   0.00000  Uiso   1.00
H474   H     0.52380   0.88522   0.04384   0.00000  Uiso   1.00
H475   H     0.54278   0.91169   0.49120   0.00000  Uiso   1.00
H476   H     0.50490   0.96807   0.17323   0.00000  Uiso   1.00
H477   H     0.45308   0.93858   0.46862   0.00000  Uiso   1.00
H478   H     0.48075   0.95684   0.02907   0.00000  Uiso   1.00
H479   H     0.43365   0.91170   0.02118   0.00000  Uiso   1.00
H480   H     0.44216   0.61254   0.29790   0.00000  Uiso   1.00
H481   H     0.50919   0.88853   0.17535   0.00000  Uiso   1.00
H482   H     0.55358   0.52966   0.20104   0.00000  Uiso   1.00
H483   H     0.47988   0.97116   0.32348   0.00000  Uiso   1.00
H484   H     0.57589   0.78231   0.04703   0.00000  Uiso   1.00
N485   N     0.50000   0.75001   0.12934   0.00000  Uiso   1.00
N486   N     0.50000   0.74999   0.37065   0.00000  Uiso   1.00
O487   O     0.50000   0.68572   0.29071   0.00000  Uiso   1.00
O488   O     0.47375   0.88660   0.33310   0.00000  Uiso   1.00
O489   O     0.41993   0.70754   0.11469   0.00000  Uiso   1.00
O490   O     0.54474   0.82071   0.38076   0.00000  Uiso   1.00
O491   O     0.41728   0.71091   0.01797   0.00000  Uiso   1.00
O492   O     0.53392   0.82528   0.47606   0.00000  Uiso   1.00
O493   O     0.50000   0.81427   0.20928   0.00000  Uiso   1.00
O494   O     0.50000   0.68573   0.20928   0.00000  Uiso   1.00
O495   O     0.50000   0.81427   0.29072   0.00000  Uiso   1.00
O496   O     0.42495   0.75000   0.28132   0.00000  Uiso   1.00
O497   O     0.57505   0.75000   0.21868   0.00000  Uiso   1.00
O498   O     0.42495   0.75000   0.19988   0.00000  Uiso   1.00
O499   O     0.57505   0.75000   0.30011   0.00000  Uiso   1.00
O500   O     0.56231   0.61509   0.19308   0.00000  Uiso   1.00
C501   C     0.83343   0.66511   0.24964   0.00000  Uiso   1.00
C502   C     0.85022   0.78743   0.44951   0.00000  Uiso   1.00
C503   C     0.83422   0.74947   0.02735   0.00000  Uiso   1.00
C504   C     0.83465   0.74949   0.47292   0.00000  Uiso   1.00
C505   C     0.73455   0.75003   0.23749   0.00000  Uiso   1.00
C506   C     0.93213   0.75024   0.26253   0.00000  Uiso   1.00
C507   C     0.67918   0.75012   0.23070   0.00000  Uiso   1.00
C508   C     0.98752   0.75053   0.26938   0.00000  Uiso   1.00
C509   C     0.79665   0.54869   0.27531   0.00000  Uiso   1.00
C510   C     0.83360   0.95174   0.20677   0.00000  Uiso   1.00
C511   C     0.79949   0.59455   0.27624   0.00000  Uiso   1.00
C512   C     0.83191   0.83504   0.25013   0.00000  Uiso   1.00
C513   C     0.83529   0.90603   0.20780   0.00000  Uiso   1.00
C514   C     0.83196   0.61707   0.24848   0.00000  Uiso   1.00
C515   C     0.82813   0.88331   0.25006   0.00000  Uiso   1.00
C516   C     0.86183   0.59342   0.21933   0.00000  Uiso   1.00
C517   C     0.81679   0.90727   0.29111   0.00000  Uiso   1.00
C518   C     0.86099   0.54739   0.22078   0.00000  Uiso   1.00
C519   C     0.81831   0.95331   0.29061   0.00000  Uiso   1.00
C520   C     0.82788   0.52463   0.24810   0.00000  Uiso   1.00
C521   C     0.82643   0.97592   0.24849   0.00000  Uiso   1.00
C522   C     0.87162   0.62096   0.14461   0.00000  Uiso   1.00
C523   C     0.87544   0.76838   0.06014   0.00000  Uiso   1.00
C524   C     0.89433   0.58994   0.10994   0.00000  Uiso   1.00
C525   C     0.87344   0.59935   0.05704   0.00000  Uiso   1.00
C526   C     0.75552   0.86952   0.32707   0.00000  Uiso   1.00
C527   C     0.71992   0.90257   0.34641   0.00000  Uiso   1.00
C528   C     0.99846   0.88313   0.34389   0.00000  Uiso   1.00
C529   C     0.71618   0.74330   0.49843   0.00000  Uiso   1.00
C530   C     0.67711   0.72177   0.45823   0.00000  Uiso   1.00
C531   C     0.97775   0.75620   0.42985   0.00000  Uiso   1.00
C532   C     0.82551   0.85388   0.47503   0.00000  Uiso   1.00
C533   C     0.84343   0.89507   0.00589   0.00000  Uiso   1.00
C534   C     0.81755   0.71225   0.44329   0.00000  Uiso   1.00
C535   C     0.79988   0.92748   0.00610   0.00000  Uiso   1.00
C536   C     0.87374   0.76916   0.11056   0.00000  Uiso   1.00
C537   C     0.81551   0.71371   0.39245   0.00000  Uiso   1.00
C538   C     0.79338   0.72990   0.09807   0.00000  Uiso   1.00
C539   C     0.85294   0.78589   0.39926   0.00000  Uiso   1.00
C540   C     0.79194   0.73132   0.04731   0.00000  Uiso   1.00
Cu541  Cu    0.83333   0.74999   0.29821   0.00000  Uiso   1.00
Cu542  Cu    0.83333   0.75000   0.20178   0.00000  Uiso   1.00
H543   H     0.99225   0.74973   0.19369   0.00000  Uiso   1.00
H544   H     0.80554   0.68197   0.45919   0.00000  Uiso   1.00
H545   H     0.90546   0.78468   0.13467   0.00000  Uiso   1.00
H546   H     0.80054   0.68510   0.37071   0.00000  Uiso   1.00
H547   H     0.88004   0.65559   0.13472   0.00000  Uiso   1.00
H548   H     0.82861   0.61660   0.13925   0.00000  Uiso   1.00
H549   H     0.93707   0.59433   0.11547   0.00000  Uiso   1.00
H550   H     0.88437   0.55512   0.11771   0.00000  Uiso   1.00
H551   H     0.83077   0.59456   0.05050   0.00000  Uiso   1.00
H552   H     0.89045   0.57634   0.03274   0.00000  Uiso   1.00
H553   H     0.88377   0.63381   0.04803   0.00000  Uiso   1.00
H554   H     0.67444   0.75099   0.30640   0.00000  Uiso   1.00
H555   H     0.75519   0.83892   0.34866   0.00000  Uiso   1.00
H556   H     0.74001   0.85964   0.28877   0.00000  Uiso   1.00
H557   H     0.73518   0.91157   0.38478   0.00000  Uiso   1.00
H558   H     0.71876   0.93304   0.32452   0.00000  Uiso   1.00
H559   H     0.98217   0.87428   0.30573   0.00000  Uiso   1.00
H560   H     0.97345   0.90785   0.35785   0.00000  Uiso   1.00
H561   H     0.99841   0.85315   0.36646   0.00000  Uiso   1.00
H562   H     0.76779   0.69175   0.14397   0.00000  Uiso   1.00
H563   H     0.89930   0.80810   0.35772   0.00000  Uiso   1.00
H564   H     0.73653   0.77105   0.48245   0.00000  Uiso   1.00
H565   H     0.76980   0.53221   0.29575   0.00000  Uiso   1.00
H566   H     0.69533   0.75680   0.02729   0.00000  Uiso   1.00
H567   H     0.69780   0.70316   0.43263   0.00000  Uiso   1.00
H568   H     0.98487   0.69813   0.47452   0.00000  Uiso   1.00
H569   H     0.95822   0.77644   0.45489   0.00000  Uiso   1.00
H570   H     0.94822   0.73927   0.40263   0.00000  Uiso   1.00
H571   H     0.66897   0.77816   0.41044   0.00000  Uiso   1.00
H572   H     0.79294   0.83756   0.49041   0.00000  Uiso   1.00
H573   H     0.81181   0.86413   0.43712   0.00000  Uiso   1.00
H574   H     0.85713   0.88522   0.04384   0.00000  Uiso   1.00
H575   H     0.87611   0.91169   0.49120   0.00000  Uiso   1.00
H576   H     0.83823   0.96807   0.17323   0.00000  Uiso   1.00
H577   H     0.78642   0.93858   0.46862   0.00000  Uiso   1.00
H578   H     0.81408   0.95684   0.02907   0.00000  Uiso   1.00
H579   H     0.76698   0.91170   0.02118   0.00000  Uiso   1.00
H580   H     0.77549   0.61254   0.29790   0.00000  Uiso   1.00
H581   H     0.84252   0.88853   0.17535   0.00000  Uiso   1.00
H582   H     0.88691   0.52966   0.20104   0.00000  Uiso   1.00
H583   H     0.81321   0.97116   0.32348   0.00000  Uiso   1.00
H584   H     0.90923   0.78231   0.04703   0.00000  Uiso   1.00
N585   N     0.83333   0.75001   0.12934   0.00000  Uiso   1.00
N586   N     0.83333   0.74999   0.37065   0.00000  Uiso   1.00
O587   O     0.83334   0.68572   0.29071   0.00000  Uiso   1.00
O588   O     0.80708   0.88660   0.33310   0.00000  Uiso   1.00
O589   O     0.75327   0.70754   0.11469   0.00000  Uiso   1.00
O590   O     0.87808   0.82071   0.38076   0.00000  Uiso   1.00
O591   O     0.75062   0.71091   0.01797   0.00000  Uiso   1.00
O592   O     0.86726   0.82528   0.47606   0.00000  Uiso   1.00
O593   O     0.83333   0.81427   0.20928   0.00000  Uiso   1.00
O594   O     0.83334   0.68573   0.20928   0.00000  Uiso   1.00
O595   O     0.83333   0.81427   0.29072   0.00000  Uiso   1.00
O596   O     0.75828   0.75000   0.28132   0.00000  Uiso   1.00
O597   O     0.90839   0.75000   0.21868   0.00000  Uiso   1.00
O598   O     0.75828   0.75000   0.19988   0.00000  Uiso   1.00
O599   O     0.90839   0.75000   0.30011   0.00000  Uiso   1.00
O600   O     0.89564   0.61509   0.19308   0.00000  Uiso   1.00
C601   C     0.16677   0.16511   0.74964   0.00000  Uiso   1.00
C602   C     0.18355   0.28743   0.94951   0.00000  Uiso   1.00
C603   C     0.16756   0.24947   0.52735   0.00000  Uiso   1.00
C604   C     0.16798   0.24949   0.97292   0.00000  Uiso   1.00
C605   C     0.06788   0.25003   0.73749   0.00000  Uiso   1.00
C606   C     0.26546   0.25024   0.76253   0.00000  Uiso   1.00
C607   C     0.01251   0.25012   0.73070   0.00000  Uiso   1.00
C608   C     0.32085   0.25053   0.76938   0.00000  Uiso   1.00
C609   C     0.12999   0.04869   0.77531   0.00000  Uiso   1.00
C610   C     0.16694   0.45174   0.70677   0.00000  Uiso   1.00
C611   C     0.13282   0.09455   0.77624   0.00000  Uiso   1.00
C612   C     0.16524   0.33504   0.75013   0.00000  Uiso   1.00
C613   C     0.16862   0.40603   0.70780   0.00000  Uiso   1.00
C614   C     0.16529   0.11707   0.74848   0.00000  Uiso   1.00
C615   C     0.16147   0.38331   0.75006   0.00000  Uiso   1.00
C616   C     0.19516   0.09342   0.71933   0.00000  Uiso   1.00
C617   C     0.15012   0.40727   0.79111   0.00000  Uiso   1.00
C618   C     0.19433   0.04739   0.72078   0.00000  Uiso   1.00
C619   C     0.15164   0.45331   0.79061   0.00000  Uiso   1.00
C620   C     0.16122   0.02463   0.74810   0.00000  Uiso   1.00
C621   C     0.15977   0.47592   0.74849   0.00000  Uiso   1.00
C622   C     0.20495   0.12096   0.64461   0.00000  Uiso   1.00
C623   C     0.20877   0.26838   0.56014   0.00000  Uiso   1.00
C624   C     0.22766   0.08994   0.60994   0.00000  Uiso   1.00
C625   C     0.20677   0.09935   0.55704   0.00000  Uiso   1.00
C626   C     0.08886   0.36952   0.82707   0.00000  Uiso   1.00
C627   C     0.05325   0.40257   0.84641   0.00000  Uiso   1.00
C628   C     0.33179   0.38313   0.84389   0.00000  Uiso   1.00
C629   C     0.04952   0.24330   0.99843   0.00000  Uiso   1.00
C630   C     0.01044   0.22177   0.95823   0.00000  Uiso   1.00
C631   C     0.31109   0.25620   0.92985   0.00000  Uiso   1.00
C632   C     0.15884   0.35388   0.97503   0.00000  Uiso   1.00
C633   C     0.17676   0.39507   0.50589   0.00000  Uiso   1.00
C634   C     0.15089   0.21225   0.94329   0.00000  Uiso   1.00
C635   C     0.13321   0.42748   0.50610   0.00000  Uiso   1.00
C636   C     0.20707   0.26916   0.61056   0.00000  Uiso   1.00
C637   C     0.14884   0.21371   0.89245   0.00000  Uiso   1.00
C638   C     0.12672   0.22990   0.59807   0.00000  Uiso   1.00
C639   C     0.18628   0.28589   0.89926   0.00000  Uiso   1.00
C640   C     0.12527   0.23132   0.54731   0.00000  Uiso   1.00
Cu641  Cu    0.16667   0.24999   0.79821   0.00000  Uiso   1.00
Cu642  Cu    0.16667   0.25000   0.70178   0.00000  Uiso   1.00
H643   H     0.32558   0.24973   0.69369   0.00000  Uiso   1.00
H644   H     0.13887   0.18197   0.95919   0.00000  Uiso   1.00
H645   H     0.23879   0.28468   0.63467   0.00000  Uiso   1.00
H646   H     0.13387   0.18510   0.87071   0.00000  Uiso   1.00
H647   H     0.21337   0.15559   0.63472   0.00000  Uiso   1.00
H648   H     0.16194   0.11660   0.63925   0.00000  Uiso   1.00
H649   H     0.27040   0.09433   0.61547   0.00000  Uiso   1.00
H650   H     0.21770   0.05512   0.61771   0.00000  Uiso   1.00
H651   H     0.16411   0.09456   0.55050   0.00000  Uiso   1.00
H652   H     0.22378   0.07634   0.53274   0.00000  Uiso   1.00
H653   H     0.21710   0.13381   0.54803   0.00000  Uiso   1.00
H654   H     0.00777   0.25099   0.80640   0.00000  Uiso   1.00
H655   H     0.08852   0.33892   0.84866   0.00000  Uiso   1.00
H656   H     0.07334   0.35964   0.78877   0.00000  Uiso   1.00
H657   H     0.06851   0.41157   0.88478   0.00000  Uiso   1.00
H658   H     0.05209   0.43304   0.82452   0.00000  Uiso   1.00
H659   H     0.31550   0.37428   0.80573   0.00000  Uiso   1.00
H660   H     0.30679   0.40785   0.85785   0.00000  Uiso   1.00
H661   H     0.33174   0.35315   0.86646   0.00000  Uiso   1.00
H662   H     0.10112   0.19175   0.64397   0.00000  Uiso   1.00
H663   H     0.23263   0.30810   0.85772   0.00000  Uiso   1.00
H664   H     0.06987   0.27105   0.98245   0.00000  Uiso   1.00
H665   H     0.10313   0.03221   0.79575   0.00000  Uiso   1.00
H666   H     0.02866   0.25680   0.52729   0.00000  Uiso   1.00
H667   H     0.03113   0.20316   0.93263   0.00000  Uiso   1.00
H668   H     0.31820   0.19813   0.97452   0.00000  Uiso   1.00
H669   H     0.29155   0.27644   0.95489   0.00000  Uiso   1.00
H670   H     0.28155   0.23927   0.90263   0.00000  Uiso   1.00
H671   H     0.00230   0.27816   0.91044   0.00000  Uiso   1.00
H672   H     0.12628   0.33756   0.99041   0.00000  Uiso   1.00
H673   H     0.14514   0.36413   0.93712   0.00000  Uiso   1.00
H674   H     0.19047   0.38522   0.54384   0.00000  Uiso   1.00
H675   H     0.20944   0.41169   0.99120   0.00000  Uiso   1.00
H676   H     0.17157   0.46807   0.67323   0.00000  Uiso   1.00
H677   H     0.11975   0.43858   0.96862   0.00000  Uiso   1.00
H678   H     0.14741   0.45684   0.52907   0.00000  Uiso   1.00
H679   H     0.10031   0.41170   0.52118   0.00000  Uiso   1.00
H680   H     0.10882   0.11254   0.79790   0.00000  Uiso   1.00
H681   H     0.17586   0.38853   0.67535   0.00000  Uiso   1.00
H682   H     0.22024   0.02966   0.70104   0.00000  Uiso   1.00
H683   H     0.14655   0.47116   0.82348   0.00000  Uiso   1.00
H684   H     0.24256   0.28231   0.54703   0.00000  Uiso   1.00
N685   N     0.16667   0.25001   0.62934   0.00000  Uiso   1.00
N686   N     0.16667   0.24999   0.87065   0.00000  Uiso   1.00
O687   O     0.16667   0.18572   0.79071   0.00000  Uiso   1.00
O688   O     0.14041   0.38660   0.83310   0.00000  Uiso   1.00
O689   O     0.08660   0.20754   0.61469   0.00000  Uiso   1.00
O690   O     0.21141   0.32071   0.88076   0.00000  Uiso   1.00
O691   O     0.08395   0.21091   0.51797   0.00000  Uiso   1.00
O692   O     0.20059   0.32528   0.97606   0.00000  Uiso   1.00
O693   O     0.16666   0.31427   0.70928   0.00000  Uiso   1.00
O694   O     0.16667   0.18573   0.70928   0.00000  Uiso   1.00
O695   O     0.16666   0.31427   0.79072   0.00000  Uiso   1.00
O696   O     0.09161   0.25000   0.78132   0.00000  Uiso   1.00
O697   O     0.24172   0.25000   0.71868   0.00000  Uiso   1.00
O698   O     0.09161   0.25000   0.69988   0.00000  Uiso   1.00
O699   O     0.24172   0.25000   0.80011   0.00000  Uiso   1.00
O700   O     0.22897   0.11509   0.69308   0.00000  Uiso   1.00
C701   C     0.50010   0.16511   0.74964   0.00000  Uiso   1.00
C702   C     0.51689   0.28743   0.94951   0.00000  Uiso   1.00
C703   C     0.50089   0.24947   0.52735   0.00000  Uiso   1.00
C704   C     0.50132   0.24949   0.97292   0.00000  Uiso   1.00
C705   C     0.40122   0.25003   0.73749   0.00000  Uiso   1.00
C706   C     0.59879   0.25024   0.76253   0.00000  Uiso   1.00
C707   C     0.34585   0.25012   0.73070   0.00000  Uiso   1.00
C708   C     0.65419   0.25053   0.76938   0.00000  Uiso   1.00
C709   C     0.46332   0.04869   0.77531   0.00000  Uiso   1.00
C710   C     0.50027   0.45174   0.70677   0.00000  Uiso   1.00
C711   C     0.46616   0.09455   0.77624   0.00000  Uiso   1.00
C712   C     0.49857   0.33504   0.75013   0.00000  Uiso   1.00
C713   C     0.50195   0.40603   0.70780   0.00000  Uiso   1.00
C714   C     0.49862   0.11707   0.74848   0.00000  Uiso   1.00
C715   C     0.49480   0.38331   0.75006   0.00000  Uiso   1.00
C716   C     0.52850   0.09342   0.71933   0.00000  Uiso   1.00
C717   C     0.48345   0.40727   0.79111   0.00000  Uiso   1.00
C718   C     0.52766   0.04739   0.72078   0.00000  Uiso   1.00
C719   C     0.48497   0.45331   0.79061   0.00000  Uiso   1.00
C720   C     0.49455   0.02463   0.74810   0.00000  Uiso   1.00
C721   C     0.49310   0.47592   0.74849   0.00000  Uiso   1.00
C722   C     0.53829   0.12096   0.64461   0.00000  Uiso   1.00
C723   C     0.54210   0.26838   0.56014   0.00000  Uiso   1.00
C724   C     0.56100   0.08994   0.60994   0.00000  Uiso   1.00
C725   C     0.54011   0.09935   0.55704   0.00000  Uiso   1.00
C726   C     0.42219   0.36952   0.82707   0.00000  Uiso   1.00
C727   C     0.38658   0.40257   0.84641   0.00000  Uiso   1.00
C728   C     0.66512   0.38313   0.84389   0.00000  Uiso   1.00
C729   C     0.38285   0.24330   0.99843   0.00000  Uiso   1.00
C730   C     0.34377   0.22177   0.95823   0.00000  Uiso   1.00
C731   C     0.64442   0.25620   0.92985   0.00000  Uiso   1.00
C732   C     0.49217   0.35388   0.97503   0.00000  Uiso   1.00
C733   C     0.51010   0.39507   0.50589   0.00000  Uiso   1.00
C734   C     0.48422   0.21225   0.94329   0.00000  Uiso   1.00
C735   C     0.46655   0.42748   0.50610   0.00000  Uiso   1.00
C736   C     0.54040   0.26916   0.61056   0.00000  Uiso   1.00
C737   C     0.48217   0.21371   0.89245   0.00000  Uiso   1.00
C738   C     0.46005   0.22990   0.59807   0.00000  Uiso   1.00
C739   C     0.51961   0.28589   0.89926   0.00000  Uiso   1.00
C740   C     0.45860   0.23132   0.54731   0.00000  Uiso   1.00
Cu741  Cu    0.50000   0.24999   0.79821   0.00000  Uiso   1.00
Cu742  Cu    0.50000   0.25000   0.70178   0.00000  Uiso   1.00
H743   H     0.65892   0.24973   0.69369   0.00000  Uiso   1.00
H744   H     0.47221   0.18197   0.95919   0.00000  Uiso   1.00
H745   H     0.57212   0.28468   0.63467   0.00000  Uiso   1.00
H746   H     0.46721   0.18510   0.87071   0.00000  Uiso   1.00
H747   H     0.54671   0.15559   0.63472   0.00000  Uiso   1.00
H748   H     0.49527   0.11660   0.63925   0.00000  Uiso   1.00
H749   H     0.60374   0.09433   0.61547   0.00000  Uiso   1.00
H750   H     0.55104   0.05512   0.61771   0.00000  Uiso   1.00
H751   H     0.49744   0.09456   0.55050   0.00000  Uiso   1.00
H752   H     0.55711   0.07634   0.53274   0.00000  Uiso   1.00
H753   H     0.55044   0.13381   0.54803   0.00000  Uiso   1.00
H754   H     0.34111   0.25099   0.80640   0.00000  Uiso   1.00
H755   H     0.42185   0.33892   0.84866   0.00000  Uiso   1.00
H756   H     0.40668   0.35964   0.78877   0.00000  Uiso   1.00
H757   H     0.40185   0.41157   0.88478   0.00000  Uiso   1.00
H758   H     0.38543   0.43304   0.82452   0.00000  Uiso   1.00
H759   H     0.64884   0.37428   0.80573   0.00000  Uiso   1.00
H760   H     0.64012   0.40785   0.85785   0.00000  Uiso   1.00
H761   H     0.66507   0.35315   0.86646   0.00000  Uiso   1.00
H762   H     0.43445   0.19175   0.64397   0.00000  Uiso   1.00
H763   H     0.56596   0.30810   0.85772   0.00000  Uiso   1.00
H764   H     0.40320   0.27105   0.98245   0.00000  Uiso   1.00
H765   H     0.43646   0.03221   0.79575   0.00000  Uiso   1.00
H766   H     0.36200   0.25680   0.52729   0.00000  Uiso   1.00
H767   H     0.36447   0.20316   0.93263   0.00000  Uiso   1.00
H768   H     0.65154   0.19813   0.97452   0.00000  Uiso   1.00
H769   H     0.62489   0.27644   0.95489   0.00000  Uiso   1.00
H770   H     0.61488   0.23927   0.90263   0.00000  Uiso   1.00
H771   H     0.33564   0.27816   0.91044   0.00000  Uiso   1.00
H772   H     0.45961   0.33756   0.99041   0.00000  Uiso   1.00
H773   H     0.47848   0.36413   0.93712   0.00000  Uiso   1.00
H774   H     0.52380   0.38522   0.54384   0.00000  Uiso   1.00
H775   H     0.54278   0.41169   0.99120   0.00000  Uiso   1.00
H776   H     0.50490   0.46807   0.67323   0.00000  Uiso   1.00
H777   H     0.45308   0.43858   0.96862   0.00000  Uiso   1.00
H778   H     0.48075   0.45684   0.52907   0.00000  Uiso   1.00
H779   H     0.43365   0.41170   0.52118   0.00000  Uiso   1.00
H780   H     0.44216   0.11254   0.79790   0.00000  Uiso   1.00
H781   H     0.50919   0.38853   0.67535   0.00000  Uiso   1.00
H782   H     0.55358   0.02966   0.70104   0.00000  Uiso   1.00
H783   H     0.47988   0.47116   0.82348   0.00000  Uiso   1.00
H784   H     0.57589   0.28231   0.54703   0.00000  Uiso   1.00
N785   N     0.50000   0.25001   0.62934   0.00000  Uiso   1.00
N786   N     0.50000   0.24999   0.87065   0.00000  Uiso   1.00
O787   O     0.50000   0.18572   0.79071   0.00000  Uiso   1.00
O788   O     0.47375   0.38660   0.83310   0.00000  Uiso   1.00
O789   O     0.41993   0.20754   0.61469   0.00000  Uiso   1.00
O790   O     0.54474   0.32071   0.88076   0.00000  Uiso   1.00
O791   O     0.41728   0.21091   0.51797   0.00000  Uiso   1.00
O792   O     0.53392   0.32528   0.97606   0.00000  Uiso   1.00
O793   O     0.50000   0.31427   0.70928   0.00000  Uiso   1.00
O794   O     0.50000   0.18573   0.70928   0.00000  Uiso   1.00
O795   O     0.50000   0.31427   0.79072   0.00000  Uiso   1.00
O796   O     0.42495   0.25000   0.78132   0.00000  Uiso   1.00
O797   O     0.57505   0.25000   0.71868   0.00000  Uiso   1.00
O798   O     0.42495   0.25000   0.69988   0.00000  Uiso   1.00
O799   O     0.57505   0.25000   0.80011   0.00000  Uiso   1.00
O800   O     0.56231   0.11509   0.69308   0.00000  Uiso   1.00
C801   C     0.83343   0.16511   0.74964   0.00000  Uiso   1.00
C802   C     0.85022   0.28743   0.94951   0.00000  Uiso   1.00
C803   C     0.83422   0.24947   0.52735   0.00000  Uiso   1.00
C804   C     0.83465   0.24949   0.97292   0.00000  Uiso   1.00
C805   C     0.73455   0.25003   0.73749   0.00000  Uiso   1.00
C806   C     0.93213   0.25024   0.76253   0.00000  Uiso   1.00
C807   C     0.67918   0.25012   0.73070   0.00000  Uiso   1.00
C808   C     0.98752   0.25053   0.76938   0.00000  Uiso   1.00
C809   C     0.79665   0.04869   0.77531   0.00000  Uiso   1.00
C810   C     0.83360   0.45174   0.70677   0.00000  Uiso   1.00
C811   C     0.79949   0.09455   0.77624   0.00000  Uiso   1.00
C812   C     0.83191   0.33504   0.75013   0.00000  Uiso   1.00
C813   C     0.83529   0.40603   0.70780   0.00000  Uiso   1.00
C814   C     0.83196   0.11707   0.74848   0.00000  Uiso   1.00
C815   C     0.82813   0.38331   0.75006   0.00000  Uiso   1.00
C816   C     0.86183   0.09342   0.71933   0.00000  Uiso   1.00
C817   C     0.81679   0.40727   0.79111   0.00000  Uiso   1.00
C818   C     0.86099   0.04739   0.72078   0.00000  Uiso   1.00
C819   C     0.81831   0.45331   0.79061   0.00000  Uiso   1.00
C820   C     0.82788   0.02463   0.74810   0.00000  Uiso   1.00
C821   C     0.82643   0.47592   0.74849   0.00000  Uiso   1.00
C822   C     0.87162   0.12096   0.64461   0.00000  Uiso   1.00
C823   C     0.87544   0.26838   0.56014   0.00000  Uiso   1.00
C824   C     0.89433   0.08994   0.60994   0.00000  Uiso   1.00
C825   C     0.87344   0.09935   0.55704   0.00000  Uiso   1.00
C826   C     0.75552   0.36952   0.82707   0.00000  Uiso   1.00
C827   C     0.71992   0.40257   0.84641   0.00000  Uiso   1.00
C828   C     0.99846   0.38313   0.84389   0.00000  Uiso   1.00
C829   C     0.71618   0.24330   0.99843   0.00000  Uiso   1.00
C830   C     0.67711   0.22177   0.95823   0.00000  Uiso   1.00
C831   C     0.97775   0.25620   0.92985   0.00000  Uiso   1.00
C832   C     0.82551   0.35388   0.97503   0.00000  Uiso   1.00
C833   C     0.84343   0.39507   0.50589   0.00000  Uiso   1.00
C834   C     0.81755   0.21225   0.94329   0.00000  Uiso   1.00
C835   C     0.79988   0.42748   0.50610   0.00000  Uiso   1.00
C836   C     0.87374   0.26916   0.61056   0.00000  Uiso   1.00
C837   C     0.81551   0.21371   0.89245   0.00000  Uiso   1.00
C838   C     0.79338   0.22990   0.59807   0.00000  Uiso   1.00
C839   C     0.85294   0.28589   0.89926   0.00000  Uiso   1.00
C840   C     0.79194   0.23132   0.54731   0.00000  Uiso   1.00
Cu841  Cu    0.83333   0.24999   0.79821   0.00000  Uiso   1.00
Cu842  Cu    0.83333   0.25000   0.70178   0.00000  Uiso   1.00
H843   H     0.99225   0.24973   0.69369   0.00000  Uiso   1.00
H844   H     0.80554   0.18197   0.95919   0.00000  Uiso   1.00
H845   H     0.90546   0.28468   0.63467   0.00000  Uiso   1.00
H846   H     0.80054   0.18510   0.87071   0.00000  Uiso   1.00
H847   H     0.88004   0.15559   0.63472   0.00000  Uiso   1.00
H848   H     0.82861   0.11660   0.63925   0.00000  Uiso   1.00
H849   H     0.93707   0.09433   0.61547   0.00000  Uiso   1.00
H850   H     0.88437   0.05512   0.61771   0.00000  Uiso   1.00
H851   H     0.83077   0.09456   0.55050   0.00000  Uiso   1.00
H852   H     0.89045   0.07634   0.53274   0.00000  Uiso   1.00
H853   H     0.88377   0.13381   0.54803   0.00000  Uiso   1.00
H854   H     0.67444   0.25099   0.80640   0.00000  Uiso   1.00
H855   H     0.75519   0.33892   0.84866   0.00000  Uiso   1.00
H856   H     0.74001   0.35964   0.78877   0.00000  Uiso   1.00
H857   H     0.73518   0.41157   0.88478   0.00000  Uiso   1.00
H858   H     0.71876   0.43304   0.82452   0.00000  Uiso   1.00
H859   H     0.98217   0.37428   0.80573   0.00000  Uiso   1.00
H860   H     0.97345   0.40785   0.85785   0.00000  Uiso   1.00
H861   H     0.99841   0.35315   0.86646   0.00000  Uiso   1.00
H862   H     0.76779   0.19175   0.64397   0.00000  Uiso   1.00
H863   H     0.89930   0.30810   0.85772   0.00000  Uiso   1.00
H864   H     0.73653   0.27105   0.98245   0.00000  Uiso   1.00
H865   H     0.76980   0.03221   0.79575   0.00000  Uiso   1.00
H866   H     0.69533   0.25680   0.52729   0.00000  Uiso   1.00
H867   H     0.69780   0.20316   0.93263   0.00000  Uiso   1.00
H868   H     0.98487   0.19813   0.97452   0.00000  Uiso   1.00
H869   H     0.95822   0.27644   0.95489   0.00000  Uiso   1.00
H870   H     0.94822   0.23927   0.90263   0.00000  Uiso   1.00
H871   H     0.66897   0.27816   0.91044   0.00000  Uiso   1.00
H872   H     0.79294   0.33756   0.99041   0.00000  Uiso   1.00
H873   H     0.81181   0.36413   0.93712   0.00000  Uiso   1.00
H874   H     0.85713   0.38522   0.54384   0.00000  Uiso   1.00
H875   H     0.87611   0.41169   0.99120   0.00000  Uiso   1.00
H876   H     0.83823   0.46807   0.67323   0.00000  Uiso   1.00
H877   H     0.78642   0.43858   0.96862   0.00000  Uiso   1.00
H878   H     0.81408   0.45684   0.52907   0.00000  Uiso   1.00
H879   H     0.76698   0.41170   0.52118   0.00000  Uiso   1.00
H880   H     0.77549   0.11254   0.79790   0.00000  Uiso   1.00
H881   H     0.84252   0.38853   0.67535   0.00000  Uiso   1.00
H882   H     0.88691   0.02966   0.70104   0.00000  Uiso   1.00
H883   H     0.81321   0.47116   0.82348   0.00000  Uiso   1.00
H884   H     0.90923   0.28231   0.54703   0.00000  Uiso   1.00
N885   N     0.83333   0.25001   0.62934   0.00000  Uiso   1.00
N886   N     0.83333   0.24999   0.87065   0.00000  Uiso   1.00
O887   O     0.83334   0.18572   0.79071   0.00000  Uiso   1.00
O888   O     0.80708   0.38660   0.83310   0.00000  Uiso   1.00
O889   O     0.75327   0.20754   0.61469   0.00000  Uiso   1.00
O890   O     0.87808   0.32071   0.88076   0.00000  Uiso   1.00
O891   O     0.75062   0.21091   0.51797   0.00000  Uiso   1.00
O892   O     0.86726   0.32528   0.97606   0.00000  Uiso   1.00
O893   O     0.83333   0.31427   0.70928   0.00000  Uiso   1.00
O894   O     0.83334   0.18573   0.70928   0.00000  Uiso   1.00
O895   O     0.83333   0.31427   0.79072   0.00000  Uiso   1.00
O896   O     0.75828   0.25000   0.78132   0.00000  Uiso   1.00
O897   O     0.90839   0.25000   0.71868   0.00000  Uiso   1.00
O898   O     0.75828   0.25000   0.69988   0.00000  Uiso   1.00
O899   O     0.90839   0.25000   0.80011   0.00000  Uiso   1.00
O900   O     0.89564   0.11509   0.69308   0.00000  Uiso   1.00
C901   C     0.16677   0.66511   0.74964   0.00000  Uiso   1.00
C902   C     0.18355   0.78743   0.94951   0.00000  Uiso   1.00
C903   C     0.16756   0.74947   0.52735   0.00000  Uiso   1.00
C904   C     0.16798   0.74949   0.97292   0.00000  Uiso   1.00
C905   C     0.06788   0.75003   0.73749   0.00000  Uiso   1.00
C906   C     0.26546   0.75024   0.76253   0.00000  Uiso   1.00
C907   C     0.01251   0.75012   0.73070   0.00000  Uiso   1.00
C908   C     0.32085   0.75053   0.76938   0.00000  Uiso   1.00
C909   C     0.12999   0.54869   0.77531   0.00000  Uiso   1.00
C910   C     0.16694   0.95174   0.70677   0.00000  Uiso   1.00
C911   C     0.13282   0.59455   0.77624   0.00000  Uiso   1.00
C912   C     0.16524   0.83504   0.75013   0.00000  Uiso   1.00
C913   C     0.16862   0.90603   0.70780   0.00000  Uiso   1.00
C914   C     0.16529   0.61707   0.74848   0.00000  Uiso   1.00
C915   C     0.16147   0.88331   0.75006   0.00000  Uiso   1.00
C916   C     0.19516   0.59342   0.71933   0.00000  Uiso   1.00
C917   C     0.15012   0.90727   0.79111   0.00000  Uiso   1.00
C918   C     0.19433   0.54739   0.72078   0.00000  Uiso   1.00
C919   C     0.15164   0.95331   0.79061   0.00000  Uiso   1.00
C920   C     0.16122   0.52463   0.74810   0.00000  Uiso   1.00
C921   C     0.15977   0.97592   0.74849   0.00000  Uiso   1.00
C922   C     0.20495   0.62096   0.64461   0.00000  Uiso   1.00
C923   C     0.20877   0.76838   0.56014   0.00000  Uiso   1.00
C924   C     0.22766   0.58994   0.60994   0.00000  Uiso   1.00
C925   C     0.20677   0.59935   0.55704   0.00000  Uiso   1.00
C926   C     0.08886   0.86952   0.82707   0.00000  Uiso   1.00
C927   C     0.05325   0.90257   0.84641   0.00000  Uiso   1.00
C928   C     0.33179   0.88313   0.84389   0.00000  Uiso   1.00
C929   C     0.04952   0.74330   0.99843   0.00000  Uiso   1.00
C930   C     0.01044   0.72177   0.95823   0.00000  Uiso   1.00
C931   C     0.31109   0.75620   0.92985   0.00000  Uiso   1.00
C932   C     0.15884   0.85388   0.97503   0.00000  Uiso   1.00
C933   C     0.17676   0.89507   0.50589   0.00000  Uiso   1.00
C934   C     0.15089   0.71225   0.94329   0.00000  Uiso   1.00
C935   C     0.13321   0.92748   0.50610   0.00000  Uiso   1.00
C936   C     0.20707   0.76916   0.61056   0.00000  Uiso   1.00
C937   C     0.14884   0.71371   0.89245   0.00000  Uiso   1.00
C938   C     0.12672   0.72990   0.59807   0.00000  Uiso   1.00
C939   C     0.18628   0.78589   0.89926   0.00000  Uiso   1.00
C940   C     0.12527   0.73132   0.54731   0.00000  Uiso   1.00
Cu941  Cu    0.16667   0.74999   0.79821   0.00000  Uiso   1.00
Cu942  Cu    0.16667   0.75000   0.70178   0.00000  Uiso   1.00
H943   H     0.32558   0.74973   0.69369   0.00000  Uiso   1.00
H944   H     0.13887   0.68197   0.95919   0.00000  Uiso   1.00
H945   H     0.23879   0.78468   0.63467   0.00000  Uiso   1.00
H946   H     0.13387   0.68510   0.87071   0.00000  Uiso   1.00
H947   H     0.21337   0.65559   0.63472   0.00000  Uiso   1.00
H948   H     0.16194   0.61660   0.63925   0.00000  Uiso   1.00
H949   H     0.27040   0.59433   0.61547   0.00000  Uiso   1.00
H950   H     0.21770   0.55512   0.61771   0.00000  Uiso   1.00
H951   H     0.16411   0.59456   0.55050   0.00000  Uiso   1.00
H952   H     0.22378   0.57634   0.53274   0.00000  Uiso   1.00
H953   H     0.21710   0.63381   0.54803   0.00000  Uiso   1.00
H954   H     0.00777   0.75099   0.80640   0.00000  Uiso   1.00
H955   H     0.08852   0.83892   0.84866   0.00000  Uiso   1.00
H956   H     0.07334   0.85964   0.78877   0.00000  Uiso   1.00
H957   H     0.06851   0.91157   0.88478   0.00000  Uiso   1.00
H958   H     0.05209   0.93304   0.82452   0.00000  Uiso   1.00
H959   H     0.31550   0.87428   0.80573   0.00000  Uiso   1.00
H960   H     0.30679   0.90785   0.85785   0.00000  Uiso   1.00
H961   H     0.33174   0.85315   0.86646   0.00000  Uiso   1.00
H962   H     0.10112   0.69175   0.64397   0.00000  Uiso   1.00
H963   H     0.23263   0.80810   0.85772   0.00000  Uiso   1.00
H964   H     0.06987   0.77105   0.98245   0.00000  Uiso   1.00
H965   H     0.10313   0.53221   0.79575   0.00000  Uiso   1.00
H966   H     0.02866   0.75680   0.52729   0.00000  Uiso   1.00
H967   H     0.03113   0.70316   0.93263   0.00000  Uiso   1.00
H968   H     0.31820   0.69813   0.97452   0.00000  Uiso   1.00
H969   H     0.29155   0.77644   0.95489   0.00000  Uiso   1.00
H970   H     0.28155   0.73927   0.90263   0.00000  Uiso   1.00
H971   H     0.00230   0.77816   0.91044   0.00000  Uiso   1.00
H972   H     0.12628   0.83756   0.99041   0.00000  Uiso   1.00
H973   H     0.14514   0.86413   0.93712   0.00000  Uiso   1.00
H974   H     0.19047   0.88522   0.54384   0.00000  Uiso   1.00
H975   H     0.20944   0.91169   0.99120   0.00000  Uiso   1.00
H976   H     0.17157   0.96807   0.67323   0.00000  Uiso   1.00
H977   H     0.11975   0.93858   0.96862   0.00000  Uiso   1.00
H978   H     0.14741   0.95684   0.52907   0.00000  Uiso   1.00
H979   H     0.10031   0.91170   0.52118   0.00000  Uiso   1.00
H980   H     0.10882   0.61254   0.79790   0.00000  Uiso   1.00
H981   H     0.17586   0.88853   0.67535   0.00000  Uiso   1.00
H982   H     0.22024   0.52966   0.70104   0.00000  Uiso   1.00
H983   H     0.14655   0.97116   0.82348   0.00000  Uiso   1.00
H984   H     0.24256   0.78231   0.54703   0.00000  Uiso   1.00
N985   N     0.16667   0.75001   0.62934   0.00000  Uiso   1.00
N986   N     0.16667   0.74999   0.87065   0.00000  Uiso   1.00
O987   O     0.16667   0.68572   0.79071   0.00000  Uiso   1.00
O988   O     0.14041   0.88660   0.83310   0.00000  Uiso   1.00
O989   O     0.08660   0.70754   0.61469   0.00000  Uiso   1.00
O990   O     0.21141   0.82071   0.88076   0.00000  Uiso   1.00
O991   O     0.08395   0.71091   0.51797   0.00000  Uiso   1.00
O992   O     0.20059   0.82528   0.97606   0.00000  Uiso   1.00
O993   O     0.16666   0.81427   0.70928   0.00000  Uiso   1.00
O994   O     0.16667   0.68573   0.70928   0.00000  Uiso   1.00
O995   O     0.16666   0.81427   0.79072   0.00000  Uiso   1.00
O996   O     0.09161   0.75000   0.78132   0.00000  Uiso   1.00
O997   O     0.24172   0.75000   0.71868   0.00000  Uiso   1.00
O998   O     0.09161   0.75000   0.69988   0.00000  Uiso   1.00
O999   O     0.24172   0.75000   0.80011   0.00000  Uiso   1.00
O1000  O     0.22897   0.61509   0.69308   0.00000  Uiso   1.00
C1001  C     0.50010   0.66511   0.74964   0.00000  Uiso   1.00
C1002  C     0.51689   0.78743   0.94951   0.00000  Uiso   1.00
C1003  C     0.50089   0.74947   0.52735   0.00000  Uiso   1.00
C1004  C     0.50132   0.74949   0.97292   0.00000  Uiso   1.00
C1005  C     0.40122   0.75003   0.73749   0.00000  Uiso   1.00
C1006  C     0.59879   0.75024   0.76253   0.00000  Uiso   1.00
C1007  C     0.34585   0.75012   0.73070   0.00000  Uiso   1.00
C1008  C     0.65419   0.75053   0.76938   0.00000  Uiso   1.00
C1009  C     0.46332   0.54869   0.77531   0.00000  Uiso   1.00
C1010  C     0.50027   0.95174   0.70677   0.00000  Uiso   1.00
C1011  C     0.46616   0.59455   0.77624   0.00000  Uiso   1.00
C1012  C     0.49857   0.83504   0.75013   0.00000  Uiso   1.00
C1013  C     0.50195   0.90603   0.70780   0.00000  Uiso   1.00
C1014  C     0.49862   0.61707   0.74848   0.00000  Uiso   1.00
C1015  C     0.49480   0.88331   0.75006   0.00000  Uiso   1.00
C1016  C     0.52850   0.59342   0.71933   0.00000  Uiso   1.00
C1017  C     0.48345   0.90727   0.79111   0.00000  Uiso   1.00
C1018  C     0.52766   0.54739   0.72078   0.00000  Uiso   1.00
C1019  C     0.48497   0.95331   0.79061   0.00000  Uiso   1.00
C1020  C     0.49455   0.52463   0.74810   0.00000  Uiso   1.00
C1021  C     0.49310   0.97592   0.74849   0.00000  Uiso   1.00
C1022  C     0.53829   0.62096   0.64461   0.00000  Uiso   1.00
C1023  C     0.54210   0.76838   0.56014   0.00000  Uiso   1.00
C1024  C     0.56100   0.58994   0.60994   0.00000  Uiso   1.00
C1025  C     0.54011   0.59935   0.55704   0.00000  Uiso   1.00
C1026  C     0.42219   0.86952   0.82707   0.00000  Uiso   1.00
C1027  C     0.38658   0.90257   0.84641   0.00000  Uiso   1.00
C1028  C     0.66512   0.88313   0.84389   0.00000  Uiso   1.00
C1029  C     0.38285   0.74330   0.99843   0.00000  Uiso   1.00
C1030  C     0.34377   0.72177   0.95823   0.00000  Uiso   1.00
C1031  C     0.64442   0.75620   0.92985   0.00000  Uiso   1.00
C1032  C     0.49217   0.85388   0.97503   0.00000  Uiso   1.00
C1033  C     0.51010   0.89507   0.50589   0.00000  Uiso   1.00
C1034  C     0.48422   0.71225   0.94329   0.00000  Uiso   1.00
C1035  C     0.46655   0.92748   0.50610   0.00000  Uiso   1.00
C1036  C     0.54040   0.76916   0.61056   0.00000  Uiso   1.00
C1037  C     0.48217   0.71371   0.89245   0.00000  Uiso   1.00
C1038  C     0.46005   0.72990   0.59807   0.00000  Uiso   1.00
C1039  C     0.51961   0.78589   0.89926   0.00000  Uiso   1.00
C1040  C     0.45860   0.73132   0.54731   0.00000  Uiso   1.00
Cu1041 Cu    0.50000   0.74999   0.79821   0.00000  Uiso   1.00
Cu1042 Cu    0.50000   0.75000   0.70178   0.00000  Uiso   1.00
H1043  H     0.65892   0.74973   0.69369   0.00000  Uiso   1.00
H1044  H     0.47221   0.68197   0.95919   0.00000  Uiso   1.00
H1045  H     0.57212   0.78468   0.63467   0.00000  Uiso   1.00
H1046  H     0.46721   0.68510   0.87071   0.00000  Uiso   1.00
H1047  H     0.54671   0.65559   0.63472   0.00000  Uiso   1.00
H1048  H     0.49527   0.61660   0.63925   0.00000  Uiso   1.00
H1049  H     0.60374   0.59433   0.61547   0.00000  Uiso   1.00
H1050  H     0.55104   0.55512   0.61771   0.00000  Uiso   1.00
H1051  H     0.49744   0.59456   0.55050   0.00000  Uiso   1.00
H1052  H     0.55711   0.57634   0.53274   0.00000  Uiso   1.00
H1053  H     0.55044   0.63381   0.54803   0.00000  Uiso   1.00
H1054  H     0.34111   0.75099   0.80640   0.00000  Uiso   1.00
H1055  H     0.42185   0.83892   0.84866   0.00000  Uiso   1.00
H1056  H     0.40668   0.85964   0.78877   0.00000  Uiso   1.00
H1057  H     0.40185   0.91157   0.88478   0.00000  Uiso   1.00
H1058  H     0.38543   0.93304   0.82452   0.00000  Uiso   1.00
H1059  H     0.64884   0.87428   0.80573   0.00000  Uiso   1.00
H1060  H     0.64012   0.90785   0.85785   0.00000  Uiso   1.00
H1061  H     0.66507   0.85315   0.86646   0.00000  Uiso   1.00
H1062  H     0.43445   0.69175   0.64397   0.00000  Uiso   1.00
H1063  H     0.56596   0.80810   0.85772   0.00000  Uiso   1.00
H1064  H     0.40320   0.77105   0.98245   0.00000  Uiso   1.00
H1065  H     0.43646   0.53221   0.79575   0.00000  Uiso   1.00
H1066  H     0.36200   0.75680   0.52729   0.00000  Uiso   1.00
H1067  H     0.36447   0.70316   0.93263   0.00000  Uiso   1.00
H1068  H     0.65154   0.69813   0.97452   0.00000  Uiso   1.00
H1069  H     0.62489   0.77644   0.95489   0.00000  Uiso   1.00
H1070  H     0.61488   0.73927   0.90263   0.00000  Uiso   1.00
H1071  H     0.33564   0.77816   0.91044   0.00000  Uiso   1.00
H1072  H     0.45961   0.83756   0.99041   0.00000  Uiso   1.00
H1073  H     0.47848   0.86413   0.93712   0.00000  Uiso   1.00
H1074  H     0.52380   0.88522   0.54384   0.00000  Uiso   1.00
H1075  H     0.54278   0.91169   0.99120   0.00000  Uiso   1.00
H1076  H     0.50490   0.96807   0.67323   0.00000  Uiso   1.00
H1077  H     0.45308   0.93858   0.96862   0.00000  Uiso   1.00
H1078  H     0.48075   0.95684   0.52907   0.00000  Uiso   1.00
H1079  H     0.43365   0.91170   0.52118   0.00000  Uiso   1.00
H1080  H     0.44216   0.61254   0.79790   0.00000  Uiso   1.00
H1081  H     0.50919   0.88853   0.67535   0.00000  Uiso   1.00
H1082  H     0.55358   0.52966   0.70104   0.00000  Uiso   1.00
H1083  H     0.47988   0.97116   0.82348   0.00000  Uiso   1.00
H1084  H     0.57589   0.78231   0.54703   0.00000  Uiso   1.00
N1085  N     0.50000   0.75001   0.62934   0.00000  Uiso   1.00
N1086  N     0.50000   0.74999   0.87065   0.00000  Uiso   1.00
O1087  O     0.50000   0.68572   0.79071   0.00000  Uiso   1.00
O1088  O     0.47375   0.88660   0.83310   0.00000  Uiso   1.00
O1089  O     0.41993   0.70754   0.61469   0.00000  Uiso   1.00
O1090  O     0.54474   0.82071   0.88076   0.00000  Uiso   1.00
O1091  O     0.41728   0.71091   0.51797   0.00000  Uiso   1.00
O1092  O     0.53392   0.82528   0.97606   0.00000  Uiso   1.00
O1093  O     0.50000   0.81427   0.70928   0.00000  Uiso   1.00
O1094  O     0.50000   0.68573   0.70928   0.00000  Uiso   1.00
O1095  O     0.50000   0.81427   0.79072   0.00000  Uiso   1.00
O1096  O     0.42495   0.75000   0.78132   0.00000  Uiso   1.00
O1097  O     0.57505   0.75000   0.71868   0.00000  Uiso   1.00
O1098  O     0.42495   0.75000   0.69988   0.00000  Uiso   1.00
O1099  O     0.57505   0.75000   0.80011   0.00000  Uiso   1.00
O1100  O     0.56231   0.61509   0.69308   0.00000  Uiso   1.00
C1101  C     0.83343   0.66511   0.74964   0.00000  Uiso   1.00
C1102  C     0.85022   0.78743   0.94951   0.00000  Uiso   1.00
C1103  C     0.83422   0.74947   0.52735   0.00000  Uiso   1.00
C1104  C     0.83465   0.74949   0.97292   0.00000  Uiso   1.00
C1105  C     0.73455   0.75003   0.73749   0.00000  Uiso   1.00
C1106  C     0.93213   0.75024   0.76253   0.00000  Uiso   1.00
C1107  C     0.67918   0.75012   0.73070   0.00000  Uiso   1.00
C1108  C     0.98752   0.75053   0.76938   0.00000  Uiso   1.00
C1109  C     0.79665   0.54869   0.77531   0.00000  Uiso   1.00
C1110  C     0.83360   0.95174   0.70677   0.00000  Uiso   1.00
C1111  C     0.79949   0.59455   0.77624   0.00000  Uiso   1.00
C1112  C     0.83191   0.83504   0.75013   0.00000  Uiso   1.00
C1113  C     0.83529   0.90603   0.70780   0.00000  Uiso   1.00
C1114  C     0.83196   0.61707   0.74848   0.00000  Uiso   1.00
C1115  C     0.82813   0.88331   0.75006   0.00000  Uiso   1.00
C1116  C     0.86183   0.59342   0.71933   0.00000  Uiso   1.00
C1117  C     0.81679   0.90727   0.79111   0.00000  Uiso   1.00
C1118  C     0.86099   0.54739   0.72078   0.00000  Uiso   1.00
C1119  C     0.81831   0.95331   0.79061   0.00000  Uiso   1.00
C1120  C     0.82788   0.52463   0.74810   0.00000  Uiso   1.00
C1121  C     0.82643   0.97592   0.74849   0.00000  Uiso   1.00
C1122  C     0.87162   0.62096   0.64461   0.00000  Uiso   1.00
C1123  C     0.87544   0.76838   0.56014   0.00000  Uiso   1.00
C1124  C     0.89433   0.58994   0.60994   0.00000  Uiso   1.00
C1125  C     0.87344   0.59935   0.55704   0.00000  Uiso   1.00
C1126  C     0.75552   0.86952   0.82707   0.00000  Uiso   1.00
C1127  C     0.71992   0.90257   0.84641   0.00000  Uiso   1.00
C1128  C     0.99846   0.88313   0.84389   0.00000  Uiso   1.00
C1129  C     0.71618   0.74330   0.99843   0.00000  Uiso   1.00
C1130  C     0.67711   0.72177   0.95823   0.00000  Uiso   1.00
C1131  C     0.97775   0.75620   0.92985   0.00000  Uiso   1.00
C1132  C     0.82551   0.85388   0.97503   0.00000  Uiso   1.00
C1133  C     0.84343   0.89507   0.50589   0.00000  Uiso   1.00
C1134  C     0.81755   0.71225   0.94329   0.00000  Uiso   1.00
C1135  C     0.79988   0.92748   0.50610   0.00000  Uiso   1.00
C1136  C     0.87374   0.76916   0.61056   0.00000  Uiso   1.00
C1137  C     0.81551   0.71371   0.89245   0.00000  Uiso   1.00
C1138  C     0.79338   0.72990   0.59807   0.00000  Uiso   1.00
C1139  C     0.85294   0.78589   0.89926   0.00000  Uiso   1.00
C1140  C     0.79194   0.73132   0.54731   0.00000  Uiso   1.00
Cu1141 Cu    0.83333   0.74999   0.79821   0.00000  Uiso   1.00
Cu1142 Cu    0.83333   0.75000   0.70178   0.00000  Uiso   1.00
H1143  H     0.99225   0.74973   0.69369   0.00000  Uiso   1.00
H1144  H     0.80554   0.68197   0.95919   0.00000  Uiso   1.00
H1145  H     0.90546   0.78468   0.63467   0.00000  Uiso   1.00
H1146  H     0.80054   0.68510   0.87071   0.00000  Uiso   1.00
H1147  H     0.88004   0.65559   0.63472   0.00000  Uiso   1.00
H1148  H     0.82861   0.61660   0.63925   0.00000  Uiso   1.00
H1149  H     0.93707   0.59433   0.61547   0.00000  Uiso   1.00
H1150  H     0.88437   0.55512   0.61771   0.00000  Uiso   1.00
H1151  H     0.83077   0.59456   0.55050   0.00000  Uiso   1.00
H1152  H     0.89045   0.57634   0.53274   0.00000  Uiso   1.00
H1153  H     0.88377   0.63381   0.54803   0.00000  Uiso   1.00
H1154  H     0.67444   0.75099   0.80640   0.00000  Uiso   1.00
H1155  H     0.75519   0.83892   0.84866   0.00000  Uiso   1.00
H1156  H     0.74001   0.85964   0.78877   0.00000  Uiso   1.00
H1157  H     0.73518   0.91157   0.88478   0.00000  Uiso   1.00
H1158  H     0.71876   0.93304   0.82452   0.00000  Uiso   1.00
H1159  H     0.98217   0.87428   0.80573   0.00000  Uiso   1.00
H1160  H     0.97345   0.90785   0.85785   0.00000  Uiso   1.00
H1161  H     0.99841   0.85315   0.86646   0.00000  Uiso   1.00
H1162  H     0.76779   0.69175   0.64397   0.00000  Uiso   1.00
H1163  H     0.89930   0.80810   0.85772   0.00000  Uiso   1.00
H1164  H     0.73653   0.77105   0.98245   0.00000  Uiso   1.00
H1165  H     0.76980   0.53221   0.79575   0.00000  Uiso   1.00
H1166  H     0.69533   0.75680   0.52729   0.00000  Uiso   1.00
H1167  H     0.69780   0.70316   0.93263   0.00000  Uiso   1.00
H1168  H     0.98487   0.69813   0.97452   0.00000  Uiso   1.00
H1169  H     0.95822   0.77644   0.95489   0.00000  Uiso   1.00
H1170  H     0.94822   0.73927   0.90263   0.00000  Uiso   1.00
H1171  H     0.66897   0.77816   0.91044   0.00000  Uiso   1.00
H1172  H     0.79294   0.83756   0.99041   0.00000  Uiso   1.00
H1173  H     0.81181   0.86413   0.93712   0.00000  Uiso   1.00
H1174  H     0.85713   0.88522   0.54384   0.00000  Uiso   1.00
H1175  H     0.87611   0.91169   0.99120   0.00000  Uiso   1.00
H1176  H     0.83823   0.96807   0.67323   0.00000  Uiso   1.00
H1177  H     0.78642   0.93858   0.96862   0.00000  Uiso   1.00
H1178  H     0.81408   0.95684   0.52907   0.00000  Uiso   1.00
H1179  H     0.76698   0.91170   0.52118   0.00000  Uiso   1.00
H1180  H     0.77549   0.61254   0.79790   0.00000  Uiso   1.00
H1181  H     0.84252   0.88853   0.67535   0.00000  Uiso   1.00
H1182  H     0.88691   0.52966   0.70104   0.00000  Uiso   1.00
H1183  H     0.81321   0.97116   0.82348   0.00000  Uiso   1.00
H1184  H     0.90923   0.78231   0.54703   0.00000  Uiso   1.00
N1185  N     0.83333   0.75001   0.62934   0.00000  Uiso   1.00
N1186  N     0.83333   0.74999   0.87065   0.00000  Uiso   1.00
O1187  O     0.83334   0.68572   0.79071   0.00000  Uiso   1.00
O1188  O     0.80708   0.88660   0.83310   0.00000  Uiso   1.00
O1189  O     0.75327   0.70754   0.61469   0.00000  Uiso   1.00
O1190  O     0.87808   0.82071   0.88076   0.00000  Uiso   1.00
O1191  O     0.75062   0.71091   0.51797   0.00000  Uiso   1.00
O1192  O     0.86726   0.82528   0.97606   0.00000  Uiso   1.00
O1193  O     0.83333   0.81427   0.70928   0.00000  Uiso   1.00
O1194  O     0.83334   0.68573   0.70928   0.00000  Uiso   1.00
O1195  O     0.83333   0.81427   0.79072   0.00000  Uiso   1.00
O1196  O     0.75828   0.75000   0.78132   0.00000  Uiso   1.00
O1197  O     0.90839   0.75000   0.71868   0.00000  Uiso   1.00
O1198  O     0.75828   0.75000   0.69988   0.00000  Uiso   1.00
O1199  O     0.90839   0.75000   0.80011   0.00000  Uiso   1.00
O1200  O     0.89564   0.61509   0.69308   0.00000  Uiso   1.00
loop_
_geom_bond_atom_site_label_1
_geom_bond_atom_site_label_2
_geom_bond_distance
_geom_bond_site_symmetry_2
_ccdc_geom_bond_type
C1     O87     1.294   .     A
C1     O94     1.292   .     A
C1     C14     1.454   .     S
C2     C39     1.410   .     A
C2     C4      1.408   .     A
C2     O92     1.382   .     S
C3     C23     1.411   .     A
C3     C40     1.410   .     A
C3     C604    1.516   1_554 S
C4     C34     1.411   .     A
C4     C603    1.516   .     S
C5     C7      1.435   .     S
C5     O96     1.285   .     A
C5     O98     1.292   .     A
C6     O97     1.286   .     A
C6     C8      1.435   .     S
C6     O99     1.292   .     A
C7     C208    1.338   1_455 S
C7     H243    1.087   1_455 S
C8     C107    1.338   .     S
C8     H154    1.087   .     S
C9     C20     1.404   .     A
C9     C11     1.388   .     A
C9     H65     1.082   .     S
C10    H76     1.083   .     S
C10    C21     1.402   .     A
C10    C13     1.386   .     A
C11    C14     1.399   .     A
C11    H80     1.084   .     S
C12    O95     1.296   .     A
C12    C15     1.467   .     S
C12    O93     1.297   .     A
C13    H81     1.083   .     S
C13    C15     1.403   .     A
C14    C16     1.408   .     A
C15    C17     1.416   .     A
C16    O100    1.384   .     S
C16    C18     1.394   .     A
C17    O88     1.385   .     S
C17    C19     1.394   .     A
C18    C20     1.406   .     A
C18    H82     1.082   .     S
C19    C21     1.404   .     A
C19    H83     1.083   .     S
C20    C321    1.474   1_545 S
C21    C320    1.474   .     S
C22    H48     1.119   .     S
C22    H47     1.112   .     S
C22    O100    1.418   .     S
C22    C24     1.529   .     S
C23    H84     1.082   .     S
C23    C36     1.409   .     A
C24    H50     1.111   .     S
C24    C25     1.527   .     S
C24    H49     1.112   .     S
C25    H53     1.111   .     S
C25    H51     1.111   .     S
C25    H52     1.110   .     S
C26    H55     1.112   .     S
C26    C27     1.531   .     S
C26    O88     1.418   .     S
C26    H56     1.117   .     S
C27    H57     1.111   .     S
C27    H58     1.111   .     S
C27    C228    1.528   1_455 S
C28    H61     1.111   .     S
C28    H60     1.110   .     S
C28    H59     1.111   .     S
C28    C127    1.528   .     S
C29    H64     1.114   .     S
C29    C30     1.527   .     S
C29    H666    1.114   .     S
C29    O691    1.412   .     S
C30    H67     1.112   .     S
C30    C231    1.523   1_455 S
C30    H268    1.112   1_455 S
C31    H70     1.110   .     S
C31    H69     1.110   .     S
C31    C130    1.523   .     S
C31    H171    1.111   .     S
C32    H72     1.115   .     S
C32    H73     1.115   .     S
C32    O92     1.411   .     S
C32    C633    1.527   .     S
C33    C35     1.526   .     S
C33    H74     1.112   .     S
C33    C632    1.527   1_554 S
C33    H675    1.112   1_554 S
C34    C37     1.409   .     A
C34    H44     1.082   .     S
C35    H78     1.110   .     S
C35    H79     1.111   .     S
C35    H677    1.111   1_554 S
C36    H45     1.081   .     S
C36    N85     1.365   .     A
C37    N86     1.365   .     A
C37    H46     1.080   .     S
C38    O89     1.373   .     S
C38    N85     1.381   .     A
C38    C40     1.408   .     A
C39    O90     1.372   .     S
C39    N86     1.380   .     A
C40    O91     1.383   .     S
Cu41   Cu42    2.682   .     S
Cu41   O95     1.960   .     S
Cu41   N86     2.015   .     S
Cu41   O96     1.954   .     S
Cu41   O99     1.959   .     S
Cu41   O87     1.954   .     S
Cu42   O98     1.959   .     S
Cu42   O93     1.954   .     S
Cu42   O97     1.954   .     S
Cu42   N85     2.015   .     S
Cu42   O94     1.960   .     S
H43    C107    1.087   .     S
H54    C208    1.087   1_455 S
H62    O89     0.984   .     S
H63    O90     0.987   .     S
H66    C629    1.114   1_554 S
H68    C130    1.112   .     S
H71    C231    1.111   1_455 S
H75    C633    1.112   .     S
H77    C635    1.111   .     S
O91    C629    1.412   1_554 S
C101   O187    1.294   .     A
C101   O194    1.292   .     A
C101   C114    1.454   .     S
C102   C139    1.410   .     A
C102   C104    1.408   .     A
C102   O192    1.382   .     S
C103   C123    1.411   .     A
C103   C140    1.410   .     A
C103   C704    1.516   1_554 S
C104   C134    1.411   .     A
C104   C703    1.516   .     S
C105   C107    1.435   .     S
C105   O196    1.285   .     A
C105   O198    1.292   .     A
C106   O197    1.286   .     A
C106   C108    1.435   .     S
C106   O199    1.292   .     A
C108   C207    1.338   .     S
C108   H254    1.087   .     S
C109   C120    1.404   .     A
C109   C111    1.388   .     A
C109   H165    1.082   .     S
C110   H176    1.083   .     S
C110   C121    1.402   .     A
C110   C113    1.386   .     A
C111   C114    1.399   .     A
C111   H180    1.084   .     S
C112   O195    1.296   .     A
C112   C115    1.467   .     S
C112   O193    1.297   .     A
C113   H181    1.083   .     S
C113   C115    1.403   .     A
C114   C116    1.408   .     A
C115   C117    1.416   .     A
C116   O200    1.384   .     S
C116   C118    1.394   .     A
C117   O188    1.385   .     S
C117   C119    1.394   .     A
C118   C120    1.406   .     A
C118   H182    1.082   .     S
C119   C121    1.404   .     A
C119   H183    1.083   .     S
C120   C421    1.474   1_545 S
C121   C420    1.474   .     S
C122   H148    1.119   .     S
C122   H147    1.112   .     S
C122   O200    1.418   .     S
C122   C124    1.529   .     S
C123   H184    1.082   .     S
C123   C136    1.409   .     A
C124   H150    1.111   .     S
C124   C125    1.527   .     S
C124   H149    1.112   .     S
C125   H153    1.111   .     S
C125   H151    1.111   .     S
C125   H152    1.110   .     S
C126   H155    1.112   .     S
C126   C127    1.531   .     S
C126   O188    1.418   .     S
C126   H156    1.117   .     S
C127   H157    1.111   .     S
C127   H158    1.111   .     S
C128   H161    1.111   .     S
C128   H160    1.110   .     S
C128   H159    1.111   .     S
C128   C227    1.528   .     S
C129   H164    1.114   .     S
C129   C130    1.527   .     S
C129   H766    1.114   .     S
C129   O791    1.412   .     S
C130   H167    1.112   .     S
C131   H170    1.110   .     S
C131   H169    1.110   .     S
C131   C230    1.523   .     S
C131   H271    1.111   .     S
C132   H172    1.115   .     S
C132   H173    1.115   .     S
C132   O192    1.411   .     S
C132   C733    1.527   .     S
C133   C135    1.526   .     S
C133   H174    1.112   .     S
C133   C732    1.527   1_554 S
C133   H775    1.112   1_554 S
C134   C137    1.409   .     A
C134   H144    1.082   .     S
C135   H178    1.110   .     S
C135   H179    1.111   .     S
C135   H777    1.111   1_554 S
C136   H145    1.081   .     S
C136   N185    1.365   .     A
C137   N186    1.365   .     A
C137   H146    1.080   .     S
C138   O189    1.373   .     S
C138   N185    1.381   .     A
C138   C140    1.408   .     A
C139   O190    1.372   .     S
C139   N186    1.380   .     A
C140   O191    1.383   .     S
Cu141  Cu142   2.682   .     S
Cu141  O195    1.960   .     S
Cu141  N186    2.015   .     S
Cu141  O196    1.954   .     S
Cu141  O199    1.959   .     S
Cu141  O187    1.954   .     S
Cu142  O198    1.959   .     S
Cu142  O193    1.954   .     S
Cu142  O197    1.954   .     S
Cu142  N185    2.015   .     S
Cu142  O194    1.960   .     S
H143   C207    1.087   .     S
H162   O189    0.984   .     S
H163   O190    0.987   .     S
H166   C729    1.114   1_554 S
H168   C230    1.112   .     S
H175   C733    1.112   .     S
H177   C735    1.111   .     S
O191   C729    1.412   1_554 S
C201   O287    1.294   .     A
C201   O294    1.292   .     A
C201   C214    1.454   .     S
C202   C239    1.410   .     A
C202   C204    1.408   .     A
C202   O292    1.382   .     S
C203   C223    1.411   .     A
C203   C240    1.410   .     A
C203   C804    1.516   1_554 S
C204   C234    1.411   .     A
C204   C803    1.516   .     S
C205   C207    1.435   .     S
C205   O296    1.285   .     A
C205   O298    1.292   .     A
C206   O297    1.286   .     A
C206   C208    1.435   .     S
C206   O299    1.292   .     A
C208   C7      1.338   1_655 S
C208   H54     1.087   1_655 S
C209   C220    1.404   .     A
C209   C211    1.388   .     A
C209   H265    1.082   .     S
C210   H276    1.083   .     S
C210   C221    1.402   .     A
C210   C213    1.386   .     A
C211   C214    1.399   .     A
C211   H280    1.084   .     S
C212   O295    1.296   .     A
C212   C215    1.467   .     S
C212   O293    1.297   .     A
C213   H281    1.083   .     S
C213   C215    1.403   .     A
C214   C216    1.408   .     A
C215   C217    1.416   .     A
C216   O300    1.384   .     S
C216   C218    1.394   .     A
C217   O288    1.385   .     S
C217   C219    1.394   .     A
C218   C220    1.406   .     A
C218   H282    1.082   .     S
C219   C221    1.404   .     A
C219   H283    1.083   .     S
C220   C521    1.474   1_545 S
C221   C520    1.474   .     S
C222   H248    1.119   .     S
C222   H247    1.112   .     S
C222   O300    1.418   .     S
C222   C224    1.529   .     S
C223   H284    1.082   .     S
C223   C236    1.409   .     A
C224   H250    1.111   .     S
C224   C225    1.527   .     S
C224   H249    1.112   .     S
C225   H253    1.111   .     S
C225   H251    1.111   .     S
C225   H252    1.110   .     S
C226   H255    1.112   .     S
C226   C227    1.531   .     S
C226   O288    1.418   .     S
C226   H256    1.117   .     S
C227   H257    1.111   .     S
C227   H258    1.111   .     S
C228   H261    1.111   .     S
C228   H260    1.110   .     S
C228   H259    1.111   .     S
C228   C27     1.528   1_655 S
C229   H264    1.114   .     S
C229   C230    1.527   .     S
C229   H866    1.114   .     S
C229   O891    1.412   .     S
C230   H267    1.112   .     S
C231   H270    1.110   .     S
C231   H269    1.110   .     S
C231   C30     1.523   1_655 S
C231   H71     1.111   1_655 S
C232   H272    1.115   .     S
C232   H273    1.115   .     S
C232   O292    1.411   .     S
C232   C833    1.527   .     S
C233   C235    1.526   .     S
C233   H274    1.112   .     S
C233   C832    1.527   1_554 S
C233   H875    1.112   1_554 S
C234   C237    1.409   .     A
C234   H244    1.082   .     S
C235   H278    1.110   .     S
C235   H279    1.111   .     S
C235   H877    1.111   1_554 S
C236   H245    1.081   .     S
C236   N285    1.365   .     A
C237   N286    1.365   .     A
C237   H246    1.080   .     S
C238   O289    1.373   .     S
C238   N285    1.381   .     A
C238   C240    1.408   .     A
C239   O290    1.372   .     S
C239   N286    1.380   .     A
C240   O291    1.383   .     S
Cu241  Cu242   2.682   .     S
Cu241  O295    1.960   .     S
Cu241  N286    2.015   .     S
Cu241  O296    1.954   .     S
Cu241  O299    1.959   .     S
Cu241  O287    1.954   .     S
Cu242  O298    1.959   .     S
Cu242  O293    1.954   .     S
Cu242  O297    1.954   .     S
Cu242  N285    2.015   .     S
Cu242  O294    1.960   .     S
H243   C7      1.087   1_655 S
H262   O289    0.984   .     S
H263   O290    0.987   .     S
H266   C829    1.114   1_554 S
H268   C30     1.112   1_655 S
H275   C833    1.112   .     S
H277   C835    1.111   .     S
O291   C829    1.412   1_554 S
C301   O387    1.294   .     A
C301   O394    1.292   .     A
C301   C314    1.454   .     S
C302   C339    1.410   .     A
C302   C304    1.408   .     A
C302   O392    1.382   .     S
C303   C323    1.411   .     A
C303   C340    1.410   .     A
C303   C904    1.516   1_554 S
C304   C334    1.411   .     A
C304   C903    1.516   .     S
C305   C307    1.435   .     S
C305   O396    1.285   .     A
C305   O398    1.292   .     A
C306   O397    1.286   .     A
C306   C308    1.435   .     S
C306   O399    1.292   .     A
C307   C508    1.338   1_455 S
C307   H543    1.087   1_455 S
C308   C407    1.338   .     S
C308   H454    1.087   .     S
C309   C320    1.404   .     A
C309   C311    1.388   .     A
C309   H365    1.082   .     S
C310   H376    1.083   .     S
C310   C321    1.402   .     A
C310   C313    1.386   .     A
C311   C314    1.399   .     A
C311   H380    1.084   .     S
C312   O395    1.296   .     A
C312   C315    1.467   .     S
C312   O393    1.297   .     A
C313   H381    1.083   .     S
C313   C315    1.403   .     A
C314   C316    1.408   .     A
C315   C317    1.416   .     A
C316   O400    1.384   .     S
C316   C318    1.394   .     A
C317   O388    1.385   .     S
C317   C319    1.394   .     A
C318   C320    1.406   .     A
C318   H382    1.082   .     S
C319   C321    1.404   .     A
C319   H383    1.083   .     S
C321   C20     1.474   1_565 S
C322   H348    1.119   .     S
C322   H347    1.112   .     S
C322   O400    1.418   .     S
C322   C324    1.529   .     S
C323   H384    1.082   .     S
C323   C336    1.409   .     A
C324   H350    1.111   .     S
C324   C325    1.527   .     S
C324   H349    1.112   .     S
C325   H353    1.111   .     S
C325   H351    1.111   .     S
C325   H352    1.110   .     S
C326   H355    1.112   .     S
C326   C327    1.531   .     S
C326   O388    1.418   .     S
C326   H356    1.117   .     S
C327   H357    1.111   .     S
C327   H358    1.111   .     S
C327   C528    1.528   1_455 S
C328   H361    1.111   .     S
C328   H360    1.110   .     S
C328   H359    1.111   .     S
C328   C427    1.528   .     S
C329   H364    1.114   .     S
C329   C330    1.527   .     S
C329   H966    1.114   .     S
C329   O991    1.412   .     S
C330   H367    1.112   .     S
C330   C531    1.523   1_455 S
C330   H568    1.112   1_455 S
C331   H370    1.110   .     S
C331   H369    1.110   .     S
C331   C430    1.523   .     S
C331   H471    1.111   .     S
C332   H372    1.115   .     S
C332   H373    1.115   .     S
C332   O392    1.411   .     S
C332   C933    1.527   .     S
C333   C335    1.526   .     S
C333   H374    1.112   .     S
C333   C932    1.527   1_554 S
C333   H975    1.112   1_554 S
C334   C337    1.409   .     A
C334   H344    1.082   .     S
C335   H378    1.110   .     S
C335   H379    1.111   .     S
C335   H977    1.111   1_554 S
C336   H345    1.081   .     S
C336   N385    1.365   .     A
C337   N386    1.365   .     A
C337   H346    1.080   .     S
C338   O389    1.373   .     S
C338   N385    1.381   .     A
C338   C340    1.408   .     A
C339   O390    1.372   .     S
C339   N386    1.380   .     A
C340   O391    1.383   .     S
Cu341  Cu342   2.682   .     S
Cu341  O395    1.960   .     S
Cu341  N386    2.015   .     S
Cu341  O396    1.954   .     S
Cu341  O399    1.959   .     S
Cu341  O387    1.954   .     S
Cu342  O398    1.959   .     S
Cu342  O393    1.954   .     S
Cu342  O397    1.954   .     S
Cu342  N385    2.015   .     S
Cu342  O394    1.960   .     S
H343   C407    1.087   .     S
H354   C508    1.087   1_455 S
H362   O389    0.984   .     S
H363   O390    0.987   .     S
H366   C929    1.114   1_554 S
H368   C430    1.112   .     S
H371   C531    1.111   1_455 S
H375   C933    1.112   .     S
H377   C935    1.111   .     S
O391   C929    1.412   1_554 S
C401   O487    1.294   .     A
C401   O494    1.292   .     A
C401   C414    1.454   .     S
C402   C439    1.410   .     A
C402   C404    1.408   .     A
C402   O492    1.382   .     S
C403   C423    1.411   .     A
C403   C440    1.410   .     A
C403   C1004   1.516   1_554 S
C404   C434    1.411   .     A
C404   C1003   1.516   .     S
C405   C407    1.435   .     S
C405   O496    1.285   .     A
C405   O498    1.292   .     A
C406   O497    1.286   .     A
C406   C408    1.435   .     S
C406   O499    1.292   .     A
C408   C507    1.338   .     S
C408   H554    1.087   .     S
C409   C420    1.404   .     A
C409   C411    1.388   .     A
C409   H465    1.082   .     S
C410   H476    1.083   .     S
C410   C421    1.402   .     A
C410   C413    1.386   .     A
C411   C414    1.399   .     A
C411   H480    1.084   .     S
C412   O495    1.296   .     A
C412   C415    1.467   .     S
C412   O493    1.297   .     A
C413   H481    1.083   .     S
C413   C415    1.403   .     A
C414   C416    1.408   .     A
C415   C417    1.416   .     A
C416   O500    1.384   .     S
C416   C418    1.394   .     A
C417   O488    1.385   .     S
C417   C419    1.394   .     A
C418   C420    1.406   .     A
C418   H482    1.082   .     S
C419   C421    1.404   .     A
C419   H483    1.083   .     S
C421   C120    1.474   1_565 S
C422   H448    1.119   .     S
C422   H447    1.112   .     S
C422   O500    1.418   .     S
C422   C424    1.529   .     S
C423   H484    1.082   .     S
C423   C436    1.409   .     A
C424   H450    1.111   .     S
C424   C425    1.527   .     S
C424   H449    1.112   .     S
C425   H453    1.111   .     S
C425   H451    1.111   .     S
C425   H452    1.110   .     S
C426   H455    1.112   .     S
C426   C427    1.531   .     S
C426   O488    1.418   .     S
C426   H456    1.117   .     S
C427   H457    1.111   .     S
C427   H458    1.111   .     S
C428   H461    1.111   .     S
C428   H460    1.110   .     S
C428   H459    1.111   .     S
C428   C527    1.528   .     S
C429   H464    1.114   .     S
C429   C430    1.527   .     S
C429   H1066   1.114   .     S
C429   O1091   1.412   .     S
C430   H467    1.112   .     S
C431   H470    1.110   .     S
C431   H469    1.110   .     S
C431   C530    1.523   .     S
C431   H571    1.111   .     S
C432   H472    1.115   .     S
C432   H473    1.115   .     S
C432   O492    1.411   .     S
C432   C1033   1.527   .     S
C433   C435    1.526   .     S
C433   H474    1.112   .     S
C433   C1032   1.527   1_554 S
C433   H1075   1.112   1_554 S
C434   C437    1.409   .     A
C434   H444    1.082   .     S
C435   H478    1.110   .     S
C435   H479    1.111   .     S
C435   H1077   1.111   1_554 S
C436   H445    1.081   .     S
C436   N485    1.365   .     A
C437   N486    1.365   .     A
C437   H446    1.080   .     S
C438   O489    1.373   .     S
C438   N485    1.381   .     A
C438   C440    1.408   .     A
C439   O490    1.372   .     S
C439   N486    1.380   .     A
C440   O491    1.383   .     S
Cu441  Cu442   2.682   .     S
Cu441  O495    1.960   .     S
Cu441  N486    2.015   .     S
Cu441  O496    1.954   .     S
Cu441  O499    1.959   .     S
Cu441  O487    1.954   .     S
Cu442  O498    1.959   .     S
Cu442  O493    1.954   .     S
Cu442  O497    1.954   .     S
Cu442  N485    2.015   .     S
Cu442  O494    1.960   .     S
H443   C507    1.087   .     S
H462   O489    0.984   .     S
H463   O490    0.987   .     S
H466   C1029   1.114   1_554 S
H468   C530    1.112   .     S
H475   C1033   1.112   .     S
H477   C1035   1.111   .     S
O491   C1029   1.412   1_554 S
C501   O587    1.294   .     A
C501   O594    1.292   .     A
C501   C514    1.454   .     S
C502   C539    1.410   .     A
C502   C504    1.408   .     A
C502   O592    1.382   .     S
C503   C523    1.411   .     A
C503   C540    1.410   .     A
C503   C1104   1.516   1_554 S
C504   C534    1.411   .     A
C504   C1103   1.516   .     S
C505   C507    1.435   .     S
C505   O596    1.285   .     A
C505   O598    1.292   .     A
C506   O597    1.286   .     A
C506   C508    1.435   .     S
C506   O599    1.292   .     A
C508   C307    1.338   1_655 S
C508   H354    1.087   1_655 S
C509   C520    1.404   .     A
C509   C511    1.388   .     A
C509   H565    1.082   .     S
C510   H576    1.083   .     S
C510   C521    1.402   .     A
C510   C513    1.386   .     A
C511   C514    1.399   .     A
C511   H580    1.084   .     S
C512   O595    1.296   .     A
C512   C515    1.467   .     S
C512   O593    1.297   .     A
C513   H581    1.083   .     S
C513   C515    1.403   .     A
C514   C516    1.408   .     A
C515   C517    1.416   .     A
C516   O600    1.384   .     S
C516   C518    1.394   .     A
C517   O588    1.385   .     S
C517   C519    1.394   .     A
C518   C520    1.406   .     A
C518   H582    1.082   .     S
C519   C521    1.404   .     A
C519   H583    1.083   .     S
C521   C220    1.474   1_565 S
C522   H548    1.119   .     S
C522   H547    1.112   .     S
C522   O600    1.418   .     S
C522   C524    1.529   .     S
C523   H584    1.082   .     S
C523   C536    1.409   .     A
C524   H550    1.111   .     S
C524   C525    1.527   .     S
C524   H549    1.112   .     S
C525   H553    1.111   .     S
C525   H551    1.111   .     S
C525   H552    1.110   .     S
C526   H555    1.112   .     S
C526   C527    1.531   .     S
C526   O588    1.418   .     S
C526   H556    1.117   .     S
C527   H557    1.111   .     S
C527   H558    1.111   .     S
C528   H561    1.111   .     S
C528   H560    1.110   .     S
C528   H559    1.111   .     S
C528   C327    1.528   1_655 S
C529   H564    1.114   .     S
C529   C530    1.527   .     S
C529   H1166   1.114   .     S
C529   O1191   1.412   .     S
C530   H567    1.112   .     S
C531   H570    1.110   .     S
C531   H569    1.110   .     S
C531   C330    1.523   1_655 S
C531   H371    1.111   1_655 S
C532   H572    1.115   .     S
C532   H573    1.115   .     S
C532   O592    1.411   .     S
C532   C1133   1.527   .     S
C533   C535    1.526   .     S
C533   H574    1.112   .     S
C533   C1132   1.527   1_554 S
C533   H1175   1.112   1_554 S
C534   C537    1.409   .     A
C534   H544    1.082   .     S
C535   H578    1.110   .     S
C535   H579    1.111   .     S
C535   H1177   1.111   1_554 S
C536   H545    1.081   .     S
C536   N585    1.365   .     A
C537   N586    1.365   .     A
C537   H546    1.080   .     S
C538   O589    1.373   .     S
C538   N585    1.381   .     A
C538   C540    1.408   .     A
C539   O590    1.372   .     S
C539   N586    1.380   .     A
C540   O591    1.383   .     S
Cu541  Cu542   2.682   .     S
Cu541  O595    1.960   .     S
Cu541  N586    2.015   .     S
Cu541  O596    1.954   .     S
Cu541  O599    1.959   .     S
Cu541  O587    1.954   .     S
Cu542  O598    1.959   .     S
Cu542  O593    1.954   .     S
Cu542  O597    1.954   .     S
Cu542  N585    2.015   .     S
Cu542  O594    1.960   .     S
H543   C307    1.087   1_655 S
H562   O589    0.984   .     S
H563   O590    0.987   .     S
H566   C1129   1.114   1_554 S
H568   C330    1.112   1_655 S
H575   C1133   1.112   .     S
H577   C1135   1.111   .     S
O591   C1129   1.412   1_554 S
C601   O687    1.294   .     A
C601   O694    1.292   .     A
C601   C614    1.454   .     S
C602   C639    1.410   .     A
C602   C604    1.408   .     A
C602   O692    1.382   .     S
C603   C623    1.411   .     A
C603   C640    1.410   .     A
C604   C634    1.411   .     A
C604   C3      1.516   1_556 S
C605   C607    1.435   .     S
C605   O696    1.285   .     A
C605   O698    1.292   .     A
C606   O697    1.286   .     A
C606   C608    1.435   .     S
C606   O699    1.292   .     A
C607   C808    1.338   1_455 S
C607   H843    1.087   1_455 S
C608   C707    1.338   .     S
C608   H754    1.087   .     S
C609   C620    1.404   .     A
C609   C611    1.388   .     A
C609   H665    1.082   .     S
C610   H676    1.083   .     S
C610   C621    1.402   .     A
C610   C613    1.386   .     A
C611   C614    1.399   .     A
C611   H680    1.084   .     S
C612   O695    1.296   .     A
C612   C615    1.467   .     S
C612   O693    1.297   .     A
C613   H681    1.083   .     S
C613   C615    1.403   .     A
C614   C616    1.408   .     A
C615   C617    1.416   .     A
C616   O700    1.384   .     S
C616   C618    1.394   .     A
C617   O688    1.385   .     S
C617   C619    1.394   .     A
C618   C620    1.406   .     A
C618   H682    1.082   .     S
C619   C621    1.404   .     A
C619   H683    1.083   .     S
C620   C921    1.474   1_545 S
C621   C920    1.474   .     S
C622   H648    1.119   .     S
C622   H647    1.112   .     S
C622   O700    1.418   .     S
C622   C624    1.529   .     S
C623   H684    1.082   .     S
C623   C636    1.409   .     A
C624   H650    1.111   .     S
C624   C625    1.527   .     S
C624   H649    1.112   .     S
C625   H653    1.111   .     S
C625   H651    1.111   .     S
C625   H652    1.110   .     S
C626   H655    1.112   .     S
C626   C627    1.531   .     S
C626   O688    1.418   .     S
C626   H656    1.117   .     S
C627   H657    1.111   .     S
C627   H658    1.111   .     S
C627   C828    1.528   1_455 S
C628   H661    1.111   .     S
C628   H660    1.110   .     S
C628   H659    1.111   .     S
C628   C727    1.528   .     S
C629   H664    1.114   .     S
C629   C630    1.527   .     S
C629   H66     1.114   1_556 S
C629   O91     1.412   1_556 S
C630   H667    1.112   .     S
C630   C831    1.523   1_455 S
C630   H868    1.112   1_455 S
C631   H670    1.110   .     S
C631   H669    1.110   .     S
C631   C730    1.523   .     S
C631   H771    1.111   .     S
C632   H672    1.115   .     S
C632   H673    1.115   .     S
C632   O692    1.411   .     S
C632   C33     1.527   1_556 S
C633   C635    1.526   .     S
C633   H674    1.112   .     S
C634   C637    1.409   .     A
C634   H644    1.082   .     S
C635   H678    1.110   .     S
C635   H679    1.111   .     S
C636   H645    1.081   .     S
C636   N685    1.365   .     A
C637   N686    1.365   .     A
C637   H646    1.080   .     S
C638   O689    1.373   .     S
C638   N685    1.381   .     A
C638   C640    1.408   .     A
C639   O690    1.372   .     S
C639   N686    1.380   .     A
C640   O691    1.383   .     S
Cu641  Cu642   2.682   .     S
Cu641  O695    1.960   .     S
Cu641  N686    2.015   .     S
Cu641  O696    1.954   .     S
Cu641  O699    1.959   .     S
Cu641  O687    1.954   .     S
Cu642  O698    1.959   .     S
Cu642  O693    1.954   .     S
Cu642  O697    1.954   .     S
Cu642  N685    2.015   .     S
Cu642  O694    1.960   .     S
H643   C707    1.087   .     S
H654   C808    1.087   1_455 S
H662   O689    0.984   .     S
H663   O690    0.987   .     S
H668   C730    1.112   .     S
H671   C831    1.111   1_455 S
H675   C33     1.112   1_556 S
H677   C35     1.111   1_556 S
C701   O787    1.294   .     A
C701   O794    1.292   .     A
C701   C714    1.454   .     S
C702   C739    1.410   .     A
C702   C704    1.408   .     A
C702   O792    1.382   .     S
C703   C723    1.411   .     A
C703   C740    1.410   .     A
C704   C734    1.411   .     A
C704   C103    1.516   1_556 S
C705   C707    1.435   .     S
C705   O796    1.285   .     A
C705   O798    1.292   .     A
C706   O797    1.286   .     A
C706   C708    1.435   .     S
C706   O799    1.292   .     A
C708   C807    1.338   .     S
C708   H854    1.087   .     S
C709   C720    1.404   .     A
C709   C711    1.388   .     A
C709   H765    1.082   .     S
C710   H776    1.083   .     S
C710   C721    1.402   .     A
C710   C713    1.386   .     A
C711   C714    1.399   .     A
C711   H780    1.084   .     S
C712   O795    1.296   .     A
C712   C715    1.467   .     S
C712   O793    1.297   .     A
C713   H781    1.083   .     S
C713   C715    1.403   .     A
C714   C716    1.408   .     A
C715   C717    1.416   .     A
C716   O800    1.384   .     S
C716   C718    1.394   .     A
C717   O788    1.385   .     S
C717   C719    1.394   .     A
C718   C720    1.406   .     A
C718   H782    1.082   .     S
C719   C721    1.404   .     A
C719   H783    1.083   .     S
C720   C1021   1.474   1_545 S
C721   C1020   1.474   .     S
C722   H748    1.119   .     S
C722   H747    1.112   .     S
C722   O800    1.418   .     S
C722   C724    1.529   .     S
C723   H784    1.082   .     S
C723   C736    1.409   .     A
C724   H750    1.111   .     S
C724   C725    1.527   .     S
C724   H749    1.112   .     S
C725   H753    1.111   .     S
C725   H751    1.111   .     S
C725   H752    1.110   .     S
C726   H755    1.112   .     S
C726   C727    1.531   .     S
C726   O788    1.418   .     S
C726   H756    1.117   .     S
C727   H757    1.111   .     S
C727   H758    1.111   .     S
C728   H761    1.111   .     S
C728   H760    1.110   .     S
C728   H759    1.111   .     S
C728   C827    1.528   .     S
C729   H764    1.114   .     S
C729   C730    1.527   .     S
C729   H166    1.114   1_556 S
C729   O191    1.412   1_556 S
C730   H767    1.112   .     S
C731   H770    1.110   .     S
C731   H769    1.110   .     S
C731   C830    1.523   .     S
C731   H871    1.111   .     S
C732   H772    1.115   .     S
C732   H773    1.115   .     S
C732   O792    1.411   .     S
C732   C133    1.527   1_556 S
C733   C735    1.526   .     S
C733   H774    1.112   .     S
C734   C737    1.409   .     A
C734   H744    1.082   .     S
C735   H778    1.110   .     S
C735   H779    1.111   .     S
C736   H745    1.081   .     S
C736   N785    1.365   .     A
C737   N786    1.365   .     A
C737   H746    1.080   .     S
C738   O789    1.373   .     S
C738   N785    1.381   .     A
C738   C740    1.408   .     A
C739   O790    1.372   .     S
C739   N786    1.380   .     A
C740   O791    1.383   .     S
Cu741  Cu742   2.682   .     S
Cu741  O795    1.960   .     S
Cu741  N786    2.015   .     S
Cu741  O796    1.954   .     S
Cu741  O799    1.959   .     S
Cu741  O787    1.954   .     S
Cu742  O798    1.959   .     S
Cu742  O793    1.954   .     S
Cu742  O797    1.954   .     S
Cu742  N785    2.015   .     S
Cu742  O794    1.960   .     S
H743   C807    1.087   .     S
H762   O789    0.984   .     S
H763   O790    0.987   .     S
H768   C830    1.112   .     S
H775   C133    1.112   1_556 S
H777   C135    1.111   1_556 S
C801   O887    1.294   .     A
C801   O894    1.292   .     A
C801   C814    1.454   .     S
C802   C839    1.410   .     A
C802   C804    1.408   .     A
C802   O892    1.382   .     S
C803   C823    1.411   .     A
C803   C840    1.410   .     A
C804   C834    1.411   .     A
C804   C203    1.516   1_556 S
C805   C807    1.435   .     S
C805   O896    1.285   .     A
C805   O898    1.292   .     A
C806   O897    1.286   .     A
C806   C808    1.435   .     S
C806   O899    1.292   .     A
C808   C607    1.338   1_655 S
C808   H654    1.087   1_655 S
C809   C820    1.404   .     A
C809   C811    1.388   .     A
C809   H865    1.082   .     S
C810   H876    1.083   .     S
C810   C821    1.402   .     A
C810   C813    1.386   .     A
C811   C814    1.399   .     A
C811   H880    1.084   .     S
C812   O895    1.296   .     A
C812   C815    1.467   .     S
C812   O893    1.297   .     A
C813   H881    1.083   .     S
C813   C815    1.403   .     A
C814   C816    1.408   .     A
C815   C817    1.416   .     A
C816   O900    1.384   .     S
C816   C818    1.394   .     A
C817   O888    1.385   .     S
C817   C819    1.394   .     A
C818   C820    1.406   .     A
C818   H882    1.082   .     S
C819   C821    1.404   .     A
C819   H883    1.083   .     S
C820   C1121   1.474   1_545 S
C821   C1120   1.474   .     S
C822   H848    1.119   .     S
C822   H847    1.112   .     S
C822   O900    1.418   .     S
C822   C824    1.529   .     S
C823   H884    1.082   .     S
C823   C836    1.409   .     A
C824   H850    1.111   .     S
C824   C825    1.527   .     S
C824   H849    1.112   .     S
C825   H853    1.111   .     S
C825   H851    1.111   .     S
C825   H852    1.110   .     S
C826   H855    1.112   .     S
C826   C827    1.531   .     S
C826   O888    1.418   .     S
C826   H856    1.117   .     S
C827   H857    1.111   .     S
C827   H858    1.111   .     S
C828   H861    1.111   .     S
C828   H860    1.110   .     S
C828   H859    1.111   .     S
C828   C627    1.528   1_655 S
C829   H864    1.114   .     S
C829   C830    1.527   .     S
C829   H266    1.114   1_556 S
C829   O291    1.412   1_556 S
C830   H867    1.112   .     S
C831   H870    1.110   .     S
C831   H869    1.110   .     S
C831   C630    1.523   1_655 S
C831   H671    1.111   1_655 S
C832   H872    1.115   .     S
C832   H873    1.115   .     S
C832   O892    1.411   .     S
C832   C233    1.527   1_556 S
C833   C835    1.526   .     S
C833   H874    1.112   .     S
C834   C837    1.409   .     A
C834   H844    1.082   .     S
C835   H878    1.110   .     S
C835   H879    1.111   .     S
C836   H845    1.081   .     S
C836   N885    1.365   .     A
C837   N886    1.365   .     A
C837   H846    1.080   .     S
C838   O889    1.373   .     S
C838   N885    1.381   .     A
C838   C840    1.408   .     A
C839   O890    1.372   .     S
C839   N886    1.380   .     A
C840   O891    1.383   .     S
Cu841  Cu842   2.682   .     S
Cu841  O895    1.960   .     S
Cu841  N886    2.015   .     S
Cu841  O896    1.954   .     S
Cu841  O899    1.959   .     S
Cu841  O887    1.954   .     S
Cu842  O898    1.959   .     S
Cu842  O893    1.954   .     S
Cu842  O897    1.954   .     S
Cu842  N885    2.015   .     S
Cu842  O894    1.960   .     S
H843   C607    1.087   1_655 S
H862   O889    0.984   .     S
H863   O890    0.987   .     S
H868   C630    1.112   1_655 S
H875   C233    1.112   1_556 S
H877   C235    1.111   1_556 S
C901   O987    1.294   .     A
C901   O994    1.292   .     A
C901   C914    1.454   .     S
C902   C939    1.410   .     A
C902   C904    1.408   .     A
C902   O992    1.382   .     S
C903   C923    1.411   .     A
C903   C940    1.410   .     A
C904   C934    1.411   .     A
C904   C303    1.516   1_556 S
C905   C907    1.435   .     S
C905   O996    1.285   .     A
C905   O998    1.292   .     A
C906   O997    1.286   .     A
C906   C908    1.435   .     S
C906   O999    1.292   .     A
C907   C1108   1.338   1_455 S
C907   H1143   1.087   1_455 S
C908   C1007   1.338   .     S
C908   H1054   1.087   .     S
C909   C920    1.404   .     A
C909   C911    1.388   .     A
C909   H965    1.082   .     S
C910   H976    1.083   .     S
C910   C921    1.402   .     A
C910   C913    1.386   .     A
C911   C914    1.399   .     A
C911   H980    1.084   .     S
C912   O995    1.296   .     A
C912   C915    1.467   .     S
C912   O993    1.297   .     A
C913   H981    1.083   .     S
C913   C915    1.403   .     A
C914   C916    1.408   .     A
C915   C917    1.416   .     A
C916   O1000   1.384   .     S
C916   C918    1.394   .     A
C917   O988    1.385   .     S
C917   C919    1.394   .     A
C918   C920    1.406   .     A
C918   H982    1.082   .     S
C919   C921    1.404   .     A
C919   H983    1.083   .     S
C921   C620    1.474   1_565 S
C922   H948    1.119   .     S
C922   H947    1.112   .     S
C922   O1000   1.418   .     S
C922   C924    1.529   .     S
C923   H984    1.082   .     S
C923   C936    1.409   .     A
C924   H950    1.111   .     S
C924   C925    1.527   .     S
C924   H949    1.112   .     S
C925   H953    1.111   .     S
C925   H951    1.111   .     S
C925   H952    1.110   .     S
C926   H955    1.112   .     S
C926   C927    1.531   .     S
C926   O988    1.418   .     S
C926   H956    1.117   .     S
C927   H957    1.111   .     S
C927   H958    1.111   .     S
C927   C1128   1.528   1_455 S
C928   H961    1.111   .     S
C928   H960    1.110   .     S
C928   H959    1.111   .     S
C928   C1027   1.528   .     S
C929   H964    1.114   .     S
C929   C930    1.527   .     S
C929   H366    1.114   1_556 S
C929   O391    1.412   1_556 S
C930   H967    1.112   .     S
C930   C1131   1.523   1_455 S
C930   H1168   1.112   1_455 S
C931   H970    1.110   .     S
C931   H969    1.110   .     S
C931   C1030   1.523   .     S
C931   H1071   1.111   .     S
C932   H972    1.115   .     S
C932   H973    1.115   .     S
C932   O992    1.411   .     S
C932   C333    1.527   1_556 S
C933   C935    1.526   .     S
C933   H974    1.112   .     S
C934   C937    1.409   .     A
C934   H944    1.082   .     S
C935   H978    1.110   .     S
C935   H979    1.111   .     S
C936   H945    1.081   .     S
C936   N985    1.365   .     A
C937   N986    1.365   .     A
C937   H946    1.080   .     S
C938   O989    1.373   .     S
C938   N985    1.381   .     A
C938   C940    1.408   .     A
C939   O990    1.372   .     S
C939   N986    1.380   .     A
C940   O991    1.383   .     S
Cu941  Cu942   2.682   .     S
Cu941  O995    1.960   .     S
Cu941  N986    2.015   .     S
Cu941  O996    1.954   .     S
Cu941  O999    1.959   .     S
Cu941  O987    1.954   .     S
Cu942  O998    1.959   .     S
Cu942  O993    1.954   .     S
Cu942  O997    1.954   .     S
Cu942  N985    2.015   .     S
Cu942  O994    1.960   .     S
H943   C1007   1.087   .     S
H954   C1108   1.087   1_455 S
H962   O989    0.984   .     S
H963   O990    0.987   .     S
H968   C1030   1.112   .     S
H971   C1131   1.111   1_455 S
H975   C333    1.112   1_556 S
H977   C335    1.111   1_556 S
C1001  O1087   1.294   .     A
C1001  O1094   1.292   .     A
C1001  C1014   1.454   .     S
C1002  C1039   1.410   .     A
C1002  C1004   1.408   .     A
C1002  O1092   1.382   .     S
C1003  C1023   1.411   .     A
C1003  C1040   1.410   .     A
C1004  C1034   1.411   .     A
C1004  C403    1.516   1_556 S
C1005  C1007   1.435   .     S
C1005  O1096   1.285   .     A
C1005  O1098   1.292   .     A
C1006  O1097   1.286   .     A
C1006  C1008   1.435   .     S
C1006  O1099   1.292   .     A
C1008  C1107   1.338   .     S
C1008  H1154   1.087   .     S
C1009  C1020   1.404   .     A
C1009  C1011   1.388   .     A
C1009  H1065   1.082   .     S
C1010  H1076   1.083   .     S
C1010  C1021   1.402   .     A
C1010  C1013   1.386   .     A
C1011  C1014   1.399   .     A
C1011  H1080   1.084   .     S
C1012  O1095   1.296   .     A
C1012  C1015   1.467   .     S
C1012  O1093   1.297   .     A
C1013  H1081   1.083   .     S
C1013  C1015   1.403   .     A
C1014  C1016   1.408   .     A
C1015  C1017   1.416   .     A
C1016  O1100   1.384   .     S
C1016  C1018   1.394   .     A
C1017  O1088   1.385   .     S
C1017  C1019   1.394   .     A
C1018  C1020   1.406   .     A
C1018  H1082   1.082   .     S
C1019  C1021   1.404   .     A
C1019  H1083   1.083   .     S
C1021  C720    1.474   1_565 S
C1022  H1048   1.119   .     S
C1022  H1047   1.112   .     S
C1022  O1100   1.418   .     S
C1022  C1024   1.529   .     S
C1023  H1084   1.082   .     S
C1023  C1036   1.409   .     A
C1024  H1050   1.111   .     S
C1024  C1025   1.527   .     S
C1024  H1049   1.112   .     S
C1025  H1053   1.111   .     S
C1025  H1051   1.111   .     S
C1025  H1052   1.110   .     S
C1026  H1055   1.112   .     S
C1026  C1027   1.531   .     S
C1026  O1088   1.418   .     S
C1026  H1056   1.117   .     S
C1027  H1057   1.111   .     S
C1027  H1058   1.111   .     S
C1028  H1061   1.111   .     S
C1028  H1060   1.110   .     S
C1028  H1059   1.111   .     S
C1028  C1127   1.528   .     S
C1029  H1064   1.114   .     S
C1029  C1030   1.527   .     S
C1029  H466    1.114   1_556 S
C1029  O491    1.412   1_556 S
C1030  H1067   1.112   .     S
C1031  H1070   1.110   .     S
C1031  H1069   1.110   .     S
C1031  C1130   1.523   .     S
C1031  H1171   1.111   .     S
C1032  H1072   1.115   .     S
C1032  H1073   1.115   .     S
C1032  O1092   1.411   .     S
C1032  C433    1.527   1_556 S
C1033  C1035   1.526   .     S
C1033  H1074   1.112   .     S
C1034  C1037   1.409   .     A
C1034  H1044   1.082   .     S
C1035  H1078   1.110   .     S
C1035  H1079   1.111   .     S
C1036  H1045   1.081   .     S
C1036  N1085   1.365   .     A
C1037  N1086   1.365   .     A
C1037  H1046   1.080   .     S
C1038  O1089   1.373   .     S
C1038  N1085   1.381   .     A
C1038  C1040   1.408   .     A
C1039  O1090   1.372   .     S
C1039  N1086   1.380   .     A
C1040  O1091   1.383   .     S
Cu1041 Cu1042  2.682   .     S
Cu1041 O1095   1.960   .     S
Cu1041 N1086   2.015   .     S
Cu1041 O1096   1.954   .     S
Cu1041 O1099   1.959   .     S
Cu1041 O1087   1.954   .     S
Cu1042 O1098   1.959   .     S
Cu1042 O1093   1.954   .     S
Cu1042 O1097   1.954   .     S
Cu1042 N1085   2.015   .     S
Cu1042 O1094   1.960   .     S
H1043  C1107   1.087   .     S
H1062  O1089   0.984   .     S
H1063  O1090   0.987   .     S
H1068  C1130   1.112   .     S
H1075  C433    1.112   1_556 S
H1077  C435    1.111   1_556 S
C1101  O1187   1.294   .     A
C1101  O1194   1.292   .     A
C1101  C1114   1.454   .     S
C1102  C1139   1.410   .     A
C1102  C1104   1.408   .     A
C1102  O1192   1.382   .     S
C1103  C1123   1.411   .     A
C1103  C1140   1.410   .     A
C1104  C1134   1.411   .     A
C1104  C503    1.516   1_556 S
C1105  C1107   1.435   .     S
C1105  O1196   1.285   .     A
C1105  O1198   1.292   .     A
C1106  O1197   1.286   .     A
C1106  C1108   1.435   .     S
C1106  O1199   1.292   .     A
C1108  C907    1.338   1_655 S
C1108  H954    1.087   1_655 S
C1109  C1120   1.404   .     A
C1109  C1111   1.388   .     A
C1109  H1165   1.082   .     S
C1110  H1176   1.083   .     S
C1110  C1121   1.402   .     A
C1110  C1113   1.386   .     A
C1111  C1114   1.399   .     A
C1111  H1180   1.084   .     S
C1112  O1195   1.296   .     A
C1112  C1115   1.467   .     S
C1112  O1193   1.297   .     A
C1113  H1181   1.083   .     S
C1113  C1115   1.403   .     A
C1114  C1116   1.408   .     A
C1115  C1117   1.416   .     A
C1116  O1200   1.384   .     S
C1116  C1118   1.394   .     A
C1117  O1188   1.385   .     S
C1117  C1119   1.394   .     A
C1118  C1120   1.406   .     A
C1118  H1182   1.082   .     S
C1119  C1121   1.404   .     A
C1119  H1183   1.083   .     S
C1121  C820    1.474   1_565 S
C1122  H1148   1.119   .     S
C1122  H1147   1.112   .     S
C1122  O1200   1.418   .     S
C1122  C1124   1.529   .     S
C1123  H1184   1.082   .     S
C1123  C1136   1.409   .     A
C1124  H1150   1.111   .     S
C1124  C1125   1.527   .     S
C1124  H1149   1.112   .     S
C1125  H1153   1.111   .     S
C1125  H1151   1.111   .     S
C1125  H1152   1.110   .     S
C1126  H1155   1.112   .     S
C1126  C1127   1.531   .     S
C1126  O1188   1.418   .     S
C1126  H1156   1.117   .     S
C1127  H1157   1.111   .     S
C1127  H1158   1.111   .     S
C1128  H1161   1.111   .     S
C1128  H1160   1.110   .     S
C1128  H1159   1.111   .     S
C1128  C927    1.528   1_655 S
C1129  H1164   1.114   .     S
C1129  C1130   1.527   .     S
C1129  H566    1.114   1_556 S
C1129  O591    1.412   1_556 S
C1130  H1167   1.112   .     S
C1131  H1170   1.110   .     S
C1131  H1169   1.110   .     S
C1131  C930    1.523   1_655 S
C1131  H971    1.111   1_655 S
C1132  H1172   1.115   .     S
C1132  H1173   1.115   .     S
C1132  O1192   1.411   .     S
C1132  C533    1.527   1_556 S
C1133  C1135   1.526   .     S
C1133  H1174   1.112   .     S
C1134  C1137   1.409   .     A
C1134  H1144   1.082   .     S
C1135  H1178   1.110   .     S
C1135  H1179   1.111   .     S
C1136  H1145   1.081   .     S
C1136  N1185   1.365   .     A
C1137  N1186   1.365   .     A
C1137  H1146   1.080   .     S
C1138  O1189   1.373   .     S
C1138  N1185   1.381   .     A
C1138  C1140   1.408   .     A
C1139  O1190   1.372   .     S
C1139  N1186   1.380   .     A
C1140  O1191   1.383   .     S
Cu1141 Cu1142  2.682   .     S
Cu1141 O1195   1.960   .     S
Cu1141 N1186   2.015   .     S
Cu1141 O1196   1.954   .     S
Cu1141 O1199   1.959   .     S
Cu1141 O1187   1.954   .     S
Cu1142 O1198   1.959   .     S
Cu1142 O1193   1.954   .     S
Cu1142 O1197   1.954   .     S
Cu1142 N1185   2.015   .     S
Cu1142 O1194   1.960   .     S
H1143  C907    1.087   1_655 S
H1162  O1189   0.984   .     S
H1163  O1190   0.987   .     S
H1168  C930    1.112   1_655 S
H1175  C533    1.112   1_556 S
H1177  C535    1.111   1_556 S
