data_str_m2_o2_o10_pcu_sym.239
_audit_creation_date              2020-01-03
_audit_creation_method            'Materials Studio'
_symmetry_space_group_name_H-M    'P1'
_symmetry_Int_Tables_number       1
_symmetry_cell_setting            triclinic
loop_
_symmetry_equiv_pos_as_xyz
  x,y,z
_cell_length_a                    26.2004
_cell_length_b                    30.2754
_cell_length_c                    27.7435
_cell_angle_alpha                 90.0384
_cell_angle_beta                  97.9483
_cell_angle_gamma                 90.0809
loop_
_atom_site_label
_atom_site_type_symbol
_atom_site_fract_x
_atom_site_fract_y
_atom_site_fract_z
_atom_site_U_iso_or_equiv
_atom_site_adp_type
_atom_site_occupancy
C1     C     0.16664   0.16495   0.24999   0.00000  Uiso   1.00
C2     C     0.16670   0.33506   0.25003   0.00000  Uiso   1.00
C3     C     0.20870   0.26516   0.05900   0.00000  Uiso   1.00
C4     C     0.15494   0.21217   0.44502   0.00000  Uiso   1.00
C5     C     0.20827   0.26529   0.10966   0.00000  Uiso   1.00
C6     C     0.15484   0.21254   0.39427   0.00000  Uiso   1.00
C7     C     0.12457   0.23471   0.09941   0.00000  Uiso   1.00
C8     C     0.17838   0.28782   0.39682   0.00000  Uiso   1.00
C9     C     0.12272   0.23501   0.04838   0.00000  Uiso   1.00
C10    C     0.17774   0.28929   0.44752   0.00000  Uiso   1.00
C11    C     0.16552   0.25035   0.02717   0.00000  Uiso   1.00
C12    C     0.16598   0.25083   0.47272   0.00000  Uiso   1.00
C13    C     0.06790   0.24998   0.23755   0.00000  Uiso   1.00
C14    C     0.26544   0.25001   0.26244   0.00000  Uiso   1.00
C15    C     0.01263   0.24997   0.23068   0.00000  Uiso   1.00
C16    C     0.32070   0.25002   0.26930   0.00000  Uiso   1.00
C17    C     0.18242   0.04768   0.29328   0.00000  Uiso   1.00
C18    C     0.18231   0.45241   0.21092   0.00000  Uiso   1.00
C19    C     0.18207   0.09358   0.29330   0.00000  Uiso   1.00
C20    C     0.18200   0.40650   0.21076   0.00000  Uiso   1.00
C21    C     0.16661   0.11671   0.25000   0.00000  Uiso   1.00
C22    C     0.16674   0.38329   0.25008   0.00000  Uiso   1.00
C23    C     0.15111   0.09345   0.20675   0.00000  Uiso   1.00
C24    C     0.15151   0.40647   0.28945   0.00000  Uiso   1.00
C25    C     0.15075   0.04754   0.20685   0.00000  Uiso   1.00
C26    C     0.15112   0.45238   0.28930   0.00000  Uiso   1.00
C27    C     0.16660   0.02428   0.25008   0.00000  Uiso   1.00
C28    C     0.16667   0.47572   0.25010   0.00000  Uiso   1.00
Cu29   Cu    0.16667   0.24999   0.29821   0.00000  Uiso   1.00
Cu30   Cu    0.16667   0.25000   0.20178   0.00000  Uiso   1.00
H31    H     0.32599   0.24991   0.19362   0.00000  Uiso   1.00
H32    H     0.00736   0.25006   0.30636   0.00000  Uiso   1.00
H33    H     0.19566   0.03052   0.32691   0.00000  Uiso   1.00
H34    H     0.19536   0.46963   0.18068   0.00000  Uiso   1.00
H35    H     0.19458   0.11095   0.32703   0.00000  Uiso   1.00
H36    H     0.19436   0.38919   0.18021   0.00000  Uiso   1.00
H37    H     0.13859   0.11072   0.17300   0.00000  Uiso   1.00
H38    H     0.13920   0.38915   0.32001   0.00000  Uiso   1.00
H39    H     0.13751   0.03027   0.17324   0.00000  Uiso   1.00
H40    H     0.13804   0.46958   0.31955   0.00000  Uiso   1.00
H41    H     0.24278   0.27666   0.04473   0.00000  Uiso   1.00
H42    H     0.14638   0.18164   0.46257   0.00000  Uiso   1.00
H43    H     0.24157   0.27770   0.13311   0.00000  Uiso   1.00
H44    H     0.14523   0.18246   0.37409   0.00000  Uiso   1.00
H45    H     0.09172   0.22246   0.11500   0.00000  Uiso   1.00
H46    H     0.18799   0.31754   0.37853   0.00000  Uiso   1.00
N47    N     0.16667   0.25001   0.12934   0.00000  Uiso   1.00
N48    N     0.16667   0.24999   0.37065   0.00000  Uiso   1.00
O49    O     0.16667   0.18572   0.29071   0.00000  Uiso   1.00
O50    O     0.16666   0.31427   0.20928   0.00000  Uiso   1.00
O51    O     0.16667   0.18573   0.20928   0.00000  Uiso   1.00
O52    O     0.16666   0.31427   0.29072   0.00000  Uiso   1.00
O53    O     0.09161   0.24999   0.28132   0.00000  Uiso   1.00
O54    O     0.24172   0.25000   0.21868   0.00000  Uiso   1.00
O55    O     0.09161   0.25000   0.19988   0.00000  Uiso   1.00
O56    O     0.24172   0.25000   0.30011   0.00000  Uiso   1.00
Cl57   Cl    0.06515   0.21812   0.01270   0.00000  Uiso   1.00
Cl58   Cl    0.18929   0.34045   0.47727   0.00000  Uiso   1.00
C59    C     0.49998   0.16495   0.24999   0.00000  Uiso   1.00
C60    C     0.50003   0.33506   0.25003   0.00000  Uiso   1.00
C61    C     0.54203   0.26516   0.05900   0.00000  Uiso   1.00
C62    C     0.48827   0.21217   0.44502   0.00000  Uiso   1.00
C63    C     0.54160   0.26529   0.10966   0.00000  Uiso   1.00
C64    C     0.48818   0.21254   0.39427   0.00000  Uiso   1.00
C65    C     0.45791   0.23471   0.09941   0.00000  Uiso   1.00
C66    C     0.51171   0.28782   0.39682   0.00000  Uiso   1.00
C67    C     0.45606   0.23501   0.04838   0.00000  Uiso   1.00
C68    C     0.51108   0.28929   0.44752   0.00000  Uiso   1.00
C69    C     0.49886   0.25035   0.02717   0.00000  Uiso   1.00
C70    C     0.49931   0.25083   0.47272   0.00000  Uiso   1.00
C71    C     0.40123   0.24998   0.23755   0.00000  Uiso   1.00
C72    C     0.59877   0.25001   0.26244   0.00000  Uiso   1.00
C73    C     0.34596   0.24997   0.23068   0.00000  Uiso   1.00
C74    C     0.65404   0.25002   0.26930   0.00000  Uiso   1.00
C75    C     0.51575   0.04768   0.29328   0.00000  Uiso   1.00
C76    C     0.51564   0.45241   0.21092   0.00000  Uiso   1.00
C77    C     0.51540   0.09358   0.29330   0.00000  Uiso   1.00
C78    C     0.51533   0.40650   0.21076   0.00000  Uiso   1.00
C79    C     0.49995   0.11671   0.25000   0.00000  Uiso   1.00
C80    C     0.50008   0.38329   0.25008   0.00000  Uiso   1.00
C81    C     0.48444   0.09345   0.20675   0.00000  Uiso   1.00
C82    C     0.48484   0.40647   0.28945   0.00000  Uiso   1.00
C83    C     0.48409   0.04754   0.20685   0.00000  Uiso   1.00
C84    C     0.48445   0.45238   0.28930   0.00000  Uiso   1.00
C85    C     0.49993   0.02428   0.25008   0.00000  Uiso   1.00
C86    C     0.50000   0.47572   0.25010   0.00000  Uiso   1.00
Cu87   Cu    0.50000   0.24999   0.29821   0.00000  Uiso   1.00
Cu88   Cu    0.50000   0.25000   0.20178   0.00000  Uiso   1.00
H89    H     0.65932   0.24991   0.19362   0.00000  Uiso   1.00
H90    H     0.34069   0.25006   0.30636   0.00000  Uiso   1.00
H91    H     0.52900   0.03052   0.32691   0.00000  Uiso   1.00
H92    H     0.52870   0.46963   0.18068   0.00000  Uiso   1.00
H93    H     0.52791   0.11095   0.32703   0.00000  Uiso   1.00
H94    H     0.52769   0.38919   0.18021   0.00000  Uiso   1.00
H95    H     0.47192   0.11072   0.17300   0.00000  Uiso   1.00
H96    H     0.47253   0.38915   0.32001   0.00000  Uiso   1.00
H97    H     0.47084   0.03027   0.17324   0.00000  Uiso   1.00
H98    H     0.47138   0.46958   0.31955   0.00000  Uiso   1.00
H99    H     0.57612   0.27666   0.04473   0.00000  Uiso   1.00
H100   H     0.47971   0.18164   0.46257   0.00000  Uiso   1.00
H101   H     0.57490   0.27770   0.13311   0.00000  Uiso   1.00
H102   H     0.47857   0.18246   0.37409   0.00000  Uiso   1.00
H103   H     0.42506   0.22246   0.11500   0.00000  Uiso   1.00
H104   H     0.52133   0.31754   0.37853   0.00000  Uiso   1.00
N105   N     0.50000   0.25001   0.12934   0.00000  Uiso   1.00
N106   N     0.50000   0.24999   0.37065   0.00000  Uiso   1.00
O107   O     0.50000   0.18572   0.29071   0.00000  Uiso   1.00
O108   O     0.50000   0.31427   0.20928   0.00000  Uiso   1.00
O109   O     0.50000   0.18573   0.20928   0.00000  Uiso   1.00
O110   O     0.50000   0.31427   0.29072   0.00000  Uiso   1.00
O111   O     0.42495   0.24999   0.28132   0.00000  Uiso   1.00
O112   O     0.57505   0.25000   0.21868   0.00000  Uiso   1.00
O113   O     0.42495   0.25000   0.19988   0.00000  Uiso   1.00
O114   O     0.57505   0.25000   0.30011   0.00000  Uiso   1.00
Cl115  Cl    0.39848   0.21812   0.01270   0.00000  Uiso   1.00
Cl116  Cl    0.52263   0.34045   0.47727   0.00000  Uiso   1.00
C117   C     0.83331   0.16495   0.24999   0.00000  Uiso   1.00
C118   C     0.83337   0.33506   0.25003   0.00000  Uiso   1.00
C119   C     0.87536   0.26516   0.05900   0.00000  Uiso   1.00
C120   C     0.82160   0.21217   0.44502   0.00000  Uiso   1.00
C121   C     0.87493   0.26529   0.10966   0.00000  Uiso   1.00
C122   C     0.82151   0.21254   0.39427   0.00000  Uiso   1.00
C123   C     0.79124   0.23471   0.09941   0.00000  Uiso   1.00
C124   C     0.84505   0.28782   0.39682   0.00000  Uiso   1.00
C125   C     0.78939   0.23501   0.04838   0.00000  Uiso   1.00
C126   C     0.84441   0.28929   0.44752   0.00000  Uiso   1.00
C127   C     0.83219   0.25035   0.02717   0.00000  Uiso   1.00
C128   C     0.83265   0.25083   0.47272   0.00000  Uiso   1.00
C129   C     0.73457   0.24998   0.23755   0.00000  Uiso   1.00
C130   C     0.93210   0.25001   0.26244   0.00000  Uiso   1.00
C131   C     0.67930   0.24997   0.23068   0.00000  Uiso   1.00
C132   C     0.98737   0.25002   0.26930   0.00000  Uiso   1.00
C133   C     0.84908   0.04768   0.29328   0.00000  Uiso   1.00
C134   C     0.84898   0.45241   0.21092   0.00000  Uiso   1.00
C135   C     0.84873   0.09358   0.29330   0.00000  Uiso   1.00
C136   C     0.84867   0.40650   0.21076   0.00000  Uiso   1.00
C137   C     0.83328   0.11671   0.25000   0.00000  Uiso   1.00
C138   C     0.83341   0.38329   0.25008   0.00000  Uiso   1.00
C139   C     0.81778   0.09345   0.20675   0.00000  Uiso   1.00
C140   C     0.81817   0.40647   0.28945   0.00000  Uiso   1.00
C141   C     0.81742   0.04754   0.20685   0.00000  Uiso   1.00
C142   C     0.81778   0.45238   0.28930   0.00000  Uiso   1.00
C143   C     0.83327   0.02428   0.25008   0.00000  Uiso   1.00
C144   C     0.83334   0.47572   0.25010   0.00000  Uiso   1.00
Cu145  Cu    0.83333   0.24999   0.29821   0.00000  Uiso   1.00
Cu146  Cu    0.83333   0.25000   0.20178   0.00000  Uiso   1.00
H147   H     0.99266   0.24991   0.19362   0.00000  Uiso   1.00
H148   H     0.67403   0.25006   0.30636   0.00000  Uiso   1.00
H149   H     0.86233   0.03052   0.32691   0.00000  Uiso   1.00
H150   H     0.86203   0.46963   0.18068   0.00000  Uiso   1.00
H151   H     0.86125   0.11095   0.32703   0.00000  Uiso   1.00
H152   H     0.86102   0.38919   0.18021   0.00000  Uiso   1.00
H153   H     0.80525   0.11072   0.17300   0.00000  Uiso   1.00
H154   H     0.80587   0.38915   0.32001   0.00000  Uiso   1.00
H155   H     0.80417   0.03027   0.17324   0.00000  Uiso   1.00
H156   H     0.80471   0.46958   0.31955   0.00000  Uiso   1.00
H157   H     0.90945   0.27666   0.04473   0.00000  Uiso   1.00
H158   H     0.81304   0.18164   0.46257   0.00000  Uiso   1.00
H159   H     0.90823   0.27770   0.13311   0.00000  Uiso   1.00
H160   H     0.81190   0.18246   0.37409   0.00000  Uiso   1.00
H161   H     0.75839   0.22246   0.11500   0.00000  Uiso   1.00
H162   H     0.85466   0.31754   0.37853   0.00000  Uiso   1.00
N163   N     0.83333   0.25001   0.12934   0.00000  Uiso   1.00
N164   N     0.83333   0.24999   0.37065   0.00000  Uiso   1.00
O165   O     0.83334   0.18572   0.29071   0.00000  Uiso   1.00
O166   O     0.83333   0.31427   0.20928   0.00000  Uiso   1.00
O167   O     0.83334   0.18573   0.20928   0.00000  Uiso   1.00
O168   O     0.83333   0.31427   0.29072   0.00000  Uiso   1.00
O169   O     0.75828   0.24999   0.28132   0.00000  Uiso   1.00
O170   O     0.90839   0.25000   0.21868   0.00000  Uiso   1.00
O171   O     0.75828   0.25000   0.19988   0.00000  Uiso   1.00
O172   O     0.90839   0.25000   0.30011   0.00000  Uiso   1.00
Cl173  Cl    0.73182   0.21812   0.01270   0.00000  Uiso   1.00
Cl174  Cl    0.85596   0.34045   0.47727   0.00000  Uiso   1.00
C175   C     0.16664   0.66495   0.24999   0.00000  Uiso   1.00
C176   C     0.16670   0.83506   0.25003   0.00000  Uiso   1.00
C177   C     0.20870   0.76516   0.05900   0.00000  Uiso   1.00
C178   C     0.15494   0.71217   0.44502   0.00000  Uiso   1.00
C179   C     0.20827   0.76529   0.10966   0.00000  Uiso   1.00
C180   C     0.15484   0.71254   0.39427   0.00000  Uiso   1.00
C181   C     0.12457   0.73471   0.09941   0.00000  Uiso   1.00
C182   C     0.17838   0.78782   0.39682   0.00000  Uiso   1.00
C183   C     0.12272   0.73501   0.04838   0.00000  Uiso   1.00
C184   C     0.17774   0.78929   0.44752   0.00000  Uiso   1.00
C185   C     0.16552   0.75035   0.02717   0.00000  Uiso   1.00
C186   C     0.16598   0.75083   0.47272   0.00000  Uiso   1.00
C187   C     0.06790   0.74998   0.23755   0.00000  Uiso   1.00
C188   C     0.26544   0.75001   0.26244   0.00000  Uiso   1.00
C189   C     0.01263   0.74997   0.23068   0.00000  Uiso   1.00
C190   C     0.32070   0.75002   0.26930   0.00000  Uiso   1.00
C191   C     0.18242   0.54768   0.29328   0.00000  Uiso   1.00
C192   C     0.18231   0.95241   0.21092   0.00000  Uiso   1.00
C193   C     0.18207   0.59358   0.29330   0.00000  Uiso   1.00
C194   C     0.18200   0.90650   0.21076   0.00000  Uiso   1.00
C195   C     0.16661   0.61671   0.25000   0.00000  Uiso   1.00
C196   C     0.16674   0.88329   0.25008   0.00000  Uiso   1.00
C197   C     0.15111   0.59345   0.20675   0.00000  Uiso   1.00
C198   C     0.15151   0.90647   0.28945   0.00000  Uiso   1.00
C199   C     0.15075   0.54754   0.20685   0.00000  Uiso   1.00
C200   C     0.15112   0.95238   0.28930   0.00000  Uiso   1.00
C201   C     0.16660   0.52428   0.25008   0.00000  Uiso   1.00
C202   C     0.16667   0.97572   0.25010   0.00000  Uiso   1.00
Cu203  Cu    0.16667   0.74999   0.29821   0.00000  Uiso   1.00
Cu204  Cu    0.16667   0.75000   0.20178   0.00000  Uiso   1.00
H205   H     0.32599   0.74991   0.19362   0.00000  Uiso   1.00
H206   H     0.00736   0.75006   0.30636   0.00000  Uiso   1.00
H207   H     0.19566   0.53052   0.32691   0.00000  Uiso   1.00
H208   H     0.19536   0.96963   0.18068   0.00000  Uiso   1.00
H209   H     0.19458   0.61095   0.32703   0.00000  Uiso   1.00
H210   H     0.19436   0.88919   0.18021   0.00000  Uiso   1.00
H211   H     0.13859   0.61072   0.17300   0.00000  Uiso   1.00
H212   H     0.13920   0.88915   0.32001   0.00000  Uiso   1.00
H213   H     0.13751   0.53027   0.17324   0.00000  Uiso   1.00
H214   H     0.13804   0.96958   0.31955   0.00000  Uiso   1.00
H215   H     0.24278   0.77666   0.04473   0.00000  Uiso   1.00
H216   H     0.14638   0.68164   0.46257   0.00000  Uiso   1.00
H217   H     0.24157   0.77770   0.13311   0.00000  Uiso   1.00
H218   H     0.14523   0.68246   0.37409   0.00000  Uiso   1.00
H219   H     0.09172   0.72246   0.11500   0.00000  Uiso   1.00
H220   H     0.18799   0.81754   0.37853   0.00000  Uiso   1.00
N221   N     0.16667   0.75001   0.12934   0.00000  Uiso   1.00
N222   N     0.16667   0.74999   0.37065   0.00000  Uiso   1.00
O223   O     0.16667   0.68572   0.29071   0.00000  Uiso   1.00
O224   O     0.16666   0.81427   0.20928   0.00000  Uiso   1.00
O225   O     0.16667   0.68573   0.20928   0.00000  Uiso   1.00
O226   O     0.16666   0.81427   0.29072   0.00000  Uiso   1.00
O227   O     0.09161   0.74999   0.28132   0.00000  Uiso   1.00
O228   O     0.24172   0.75000   0.21868   0.00000  Uiso   1.00
O229   O     0.09161   0.75000   0.19988   0.00000  Uiso   1.00
O230   O     0.24172   0.75000   0.30011   0.00000  Uiso   1.00
Cl231  Cl    0.06515   0.71812   0.01270   0.00000  Uiso   1.00
Cl232  Cl    0.18929   0.84045   0.47727   0.00000  Uiso   1.00
C233   C     0.49998   0.66495   0.24999   0.00000  Uiso   1.00
C234   C     0.50003   0.83506   0.25003   0.00000  Uiso   1.00
C235   C     0.54203   0.76516   0.05900   0.00000  Uiso   1.00
C236   C     0.48827   0.71217   0.44502   0.00000  Uiso   1.00
C237   C     0.54160   0.76529   0.10966   0.00000  Uiso   1.00
C238   C     0.48818   0.71254   0.39427   0.00000  Uiso   1.00
C239   C     0.45791   0.73471   0.09941   0.00000  Uiso   1.00
C240   C     0.51171   0.78782   0.39682   0.00000  Uiso   1.00
C241   C     0.45606   0.73501   0.04838   0.00000  Uiso   1.00
C242   C     0.51108   0.78929   0.44752   0.00000  Uiso   1.00
C243   C     0.49886   0.75035   0.02717   0.00000  Uiso   1.00
C244   C     0.49931   0.75083   0.47272   0.00000  Uiso   1.00
C245   C     0.40123   0.74998   0.23755   0.00000  Uiso   1.00
C246   C     0.59877   0.75001   0.26244   0.00000  Uiso   1.00
C247   C     0.34596   0.74997   0.23068   0.00000  Uiso   1.00
C248   C     0.65404   0.75002   0.26930   0.00000  Uiso   1.00
C249   C     0.51575   0.54768   0.29328   0.00000  Uiso   1.00
C250   C     0.51564   0.95241   0.21092   0.00000  Uiso   1.00
C251   C     0.51540   0.59358   0.29330   0.00000  Uiso   1.00
C252   C     0.51533   0.90650   0.21076   0.00000  Uiso   1.00
C253   C     0.49995   0.61671   0.25000   0.00000  Uiso   1.00
C254   C     0.50008   0.88329   0.25008   0.00000  Uiso   1.00
C255   C     0.48444   0.59345   0.20675   0.00000  Uiso   1.00
C256   C     0.48484   0.90647   0.28945   0.00000  Uiso   1.00
C257   C     0.48409   0.54754   0.20685   0.00000  Uiso   1.00
C258   C     0.48445   0.95238   0.28930   0.00000  Uiso   1.00
C259   C     0.49993   0.52428   0.25008   0.00000  Uiso   1.00
C260   C     0.50000   0.97572   0.25010   0.00000  Uiso   1.00
Cu261  Cu    0.50000   0.74999   0.29821   0.00000  Uiso   1.00
Cu262  Cu    0.50000   0.75000   0.20178   0.00000  Uiso   1.00
H263   H     0.65932   0.74991   0.19362   0.00000  Uiso   1.00
H264   H     0.34069   0.75006   0.30636   0.00000  Uiso   1.00
H265   H     0.52900   0.53052   0.32691   0.00000  Uiso   1.00
H266   H     0.52870   0.96963   0.18068   0.00000  Uiso   1.00
H267   H     0.52791   0.61095   0.32703   0.00000  Uiso   1.00
H268   H     0.52769   0.88919   0.18021   0.00000  Uiso   1.00
H269   H     0.47192   0.61072   0.17300   0.00000  Uiso   1.00
H270   H     0.47253   0.88915   0.32001   0.00000  Uiso   1.00
H271   H     0.47084   0.53027   0.17324   0.00000  Uiso   1.00
H272   H     0.47138   0.96958   0.31955   0.00000  Uiso   1.00
H273   H     0.57612   0.77666   0.04473   0.00000  Uiso   1.00
H274   H     0.47971   0.68164   0.46257   0.00000  Uiso   1.00
H275   H     0.57490   0.77770   0.13311   0.00000  Uiso   1.00
H276   H     0.47857   0.68246   0.37409   0.00000  Uiso   1.00
H277   H     0.42506   0.72246   0.11500   0.00000  Uiso   1.00
H278   H     0.52133   0.81754   0.37853   0.00000  Uiso   1.00
N279   N     0.50000   0.75001   0.12934   0.00000  Uiso   1.00
N280   N     0.50000   0.74999   0.37065   0.00000  Uiso   1.00
O281   O     0.50000   0.68572   0.29071   0.00000  Uiso   1.00
O282   O     0.50000   0.81427   0.20928   0.00000  Uiso   1.00
O283   O     0.50000   0.68573   0.20928   0.00000  Uiso   1.00
O284   O     0.50000   0.81427   0.29072   0.00000  Uiso   1.00
O285   O     0.42495   0.74999   0.28132   0.00000  Uiso   1.00
O286   O     0.57505   0.75000   0.21868   0.00000  Uiso   1.00
O287   O     0.42495   0.75000   0.19988   0.00000  Uiso   1.00
O288   O     0.57505   0.75000   0.30011   0.00000  Uiso   1.00
Cl289  Cl    0.39848   0.71812   0.01270   0.00000  Uiso   1.00
Cl290  Cl    0.52263   0.84045   0.47727   0.00000  Uiso   1.00
C291   C     0.83331   0.66495   0.24999   0.00000  Uiso   1.00
C292   C     0.83337   0.83506   0.25003   0.00000  Uiso   1.00
C293   C     0.87536   0.76516   0.05900   0.00000  Uiso   1.00
C294   C     0.82160   0.71217   0.44502   0.00000  Uiso   1.00
C295   C     0.87493   0.76529   0.10966   0.00000  Uiso   1.00
C296   C     0.82151   0.71254   0.39427   0.00000  Uiso   1.00
C297   C     0.79124   0.73471   0.09941   0.00000  Uiso   1.00
C298   C     0.84505   0.78782   0.39682   0.00000  Uiso   1.00
C299   C     0.78939   0.73501   0.04838   0.00000  Uiso   1.00
C300   C     0.84441   0.78929   0.44752   0.00000  Uiso   1.00
C301   C     0.83219   0.75035   0.02717   0.00000  Uiso   1.00
C302   C     0.83265   0.75083   0.47272   0.00000  Uiso   1.00
C303   C     0.73457   0.74998   0.23755   0.00000  Uiso   1.00
C304   C     0.93210   0.75001   0.26244   0.00000  Uiso   1.00
C305   C     0.67930   0.74997   0.23068   0.00000  Uiso   1.00
C306   C     0.98737   0.75002   0.26930   0.00000  Uiso   1.00
C307   C     0.84908   0.54768   0.29328   0.00000  Uiso   1.00
C308   C     0.84898   0.95241   0.21092   0.00000  Uiso   1.00
C309   C     0.84873   0.59358   0.29330   0.00000  Uiso   1.00
C310   C     0.84867   0.90650   0.21076   0.00000  Uiso   1.00
C311   C     0.83328   0.61671   0.25000   0.00000  Uiso   1.00
C312   C     0.83341   0.88329   0.25008   0.00000  Uiso   1.00
C313   C     0.81778   0.59345   0.20675   0.00000  Uiso   1.00
C314   C     0.81817   0.90647   0.28945   0.00000  Uiso   1.00
C315   C     0.81742   0.54754   0.20685   0.00000  Uiso   1.00
C316   C     0.81778   0.95238   0.28930   0.00000  Uiso   1.00
C317   C     0.83327   0.52428   0.25008   0.00000  Uiso   1.00
C318   C     0.83334   0.97572   0.25010   0.00000  Uiso   1.00
Cu319  Cu    0.83333   0.74999   0.29821   0.00000  Uiso   1.00
Cu320  Cu    0.83333   0.75000   0.20178   0.00000  Uiso   1.00
H321   H     0.99266   0.74991   0.19362   0.00000  Uiso   1.00
H322   H     0.67403   0.75006   0.30636   0.00000  Uiso   1.00
H323   H     0.86233   0.53052   0.32691   0.00000  Uiso   1.00
H324   H     0.86203   0.96963   0.18068   0.00000  Uiso   1.00
H325   H     0.86125   0.61095   0.32703   0.00000  Uiso   1.00
H326   H     0.86102   0.88919   0.18021   0.00000  Uiso   1.00
H327   H     0.80525   0.61072   0.17300   0.00000  Uiso   1.00
H328   H     0.80587   0.88915   0.32001   0.00000  Uiso   1.00
H329   H     0.80417   0.53027   0.17324   0.00000  Uiso   1.00
H330   H     0.80471   0.96958   0.31955   0.00000  Uiso   1.00
H331   H     0.90945   0.77666   0.04473   0.00000  Uiso   1.00
H332   H     0.81304   0.68164   0.46257   0.00000  Uiso   1.00
H333   H     0.90823   0.77770   0.13311   0.00000  Uiso   1.00
H334   H     0.81190   0.68246   0.37409   0.00000  Uiso   1.00
H335   H     0.75839   0.72246   0.11500   0.00000  Uiso   1.00
H336   H     0.85466   0.81754   0.37853   0.00000  Uiso   1.00
N337   N     0.83333   0.75001   0.12934   0.00000  Uiso   1.00
N338   N     0.83333   0.74999   0.37065   0.00000  Uiso   1.00
O339   O     0.83334   0.68572   0.29071   0.00000  Uiso   1.00
O340   O     0.83333   0.81427   0.20928   0.00000  Uiso   1.00
O341   O     0.83334   0.68573   0.20928   0.00000  Uiso   1.00
O342   O     0.83333   0.81427   0.29072   0.00000  Uiso   1.00
O343   O     0.75828   0.74999   0.28132   0.00000  Uiso   1.00
O344   O     0.90839   0.75000   0.21868   0.00000  Uiso   1.00
O345   O     0.75828   0.75000   0.19988   0.00000  Uiso   1.00
O346   O     0.90839   0.75000   0.30011   0.00000  Uiso   1.00
Cl347  Cl    0.73182   0.71812   0.01270   0.00000  Uiso   1.00
Cl348  Cl    0.85596   0.84045   0.47727   0.00000  Uiso   1.00
C349   C     0.16664   0.16495   0.74999   0.00000  Uiso   1.00
C350   C     0.16670   0.33506   0.75003   0.00000  Uiso   1.00
C351   C     0.20870   0.26516   0.55900   0.00000  Uiso   1.00
C352   C     0.15494   0.21217   0.94502   0.00000  Uiso   1.00
C353   C     0.20827   0.26529   0.60966   0.00000  Uiso   1.00
C354   C     0.15484   0.21254   0.89427   0.00000  Uiso   1.00
C355   C     0.12457   0.23471   0.59941   0.00000  Uiso   1.00
C356   C     0.17838   0.28782   0.89682   0.00000  Uiso   1.00
C357   C     0.12272   0.23501   0.54838   0.00000  Uiso   1.00
C358   C     0.17774   0.28929   0.94752   0.00000  Uiso   1.00
C359   C     0.16552   0.25035   0.52717   0.00000  Uiso   1.00
C360   C     0.16598   0.25083   0.97272   0.00000  Uiso   1.00
C361   C     0.06790   0.24998   0.73755   0.00000  Uiso   1.00
C362   C     0.26544   0.25001   0.76244   0.00000  Uiso   1.00
C363   C     0.01263   0.24997   0.73068   0.00000  Uiso   1.00
C364   C     0.32070   0.25002   0.76930   0.00000  Uiso   1.00
C365   C     0.18242   0.04768   0.79328   0.00000  Uiso   1.00
C366   C     0.18231   0.45241   0.71092   0.00000  Uiso   1.00
C367   C     0.18207   0.09358   0.79330   0.00000  Uiso   1.00
C368   C     0.18200   0.40650   0.71076   0.00000  Uiso   1.00
C369   C     0.16661   0.11671   0.75000   0.00000  Uiso   1.00
C370   C     0.16674   0.38329   0.75008   0.00000  Uiso   1.00
C371   C     0.15111   0.09345   0.70675   0.00000  Uiso   1.00
C372   C     0.15151   0.40647   0.78945   0.00000  Uiso   1.00
C373   C     0.15075   0.04754   0.70685   0.00000  Uiso   1.00
C374   C     0.15112   0.45238   0.78930   0.00000  Uiso   1.00
C375   C     0.16660   0.02428   0.75008   0.00000  Uiso   1.00
C376   C     0.16667   0.47572   0.75010   0.00000  Uiso   1.00
Cu377  Cu    0.16667   0.24999   0.79821   0.00000  Uiso   1.00
Cu378  Cu    0.16667   0.25000   0.70178   0.00000  Uiso   1.00
H379   H     0.32599   0.24991   0.69362   0.00000  Uiso   1.00
H380   H     0.00736   0.25006   0.80636   0.00000  Uiso   1.00
H381   H     0.19566   0.03052   0.82691   0.00000  Uiso   1.00
H382   H     0.19536   0.46963   0.68068   0.00000  Uiso   1.00
H383   H     0.19458   0.11095   0.82703   0.00000  Uiso   1.00
H384   H     0.19436   0.38919   0.68021   0.00000  Uiso   1.00
H385   H     0.13859   0.11072   0.67300   0.00000  Uiso   1.00
H386   H     0.13920   0.38915   0.82001   0.00000  Uiso   1.00
H387   H     0.13751   0.03027   0.67324   0.00000  Uiso   1.00
H388   H     0.13804   0.46958   0.81955   0.00000  Uiso   1.00
H389   H     0.24278   0.27666   0.54473   0.00000  Uiso   1.00
H390   H     0.14638   0.18164   0.96257   0.00000  Uiso   1.00
H391   H     0.24157   0.27770   0.63311   0.00000  Uiso   1.00
H392   H     0.14523   0.18246   0.87409   0.00000  Uiso   1.00
H393   H     0.09172   0.22246   0.61500   0.00000  Uiso   1.00
H394   H     0.18799   0.31754   0.87853   0.00000  Uiso   1.00
N395   N     0.16667   0.25001   0.62934   0.00000  Uiso   1.00
N396   N     0.16667   0.24999   0.87065   0.00000  Uiso   1.00
O397   O     0.16667   0.18572   0.79071   0.00000  Uiso   1.00
O398   O     0.16666   0.31427   0.70928   0.00000  Uiso   1.00
O399   O     0.16667   0.18573   0.70928   0.00000  Uiso   1.00
O400   O     0.16666   0.31427   0.79072   0.00000  Uiso   1.00
O401   O     0.09161   0.24999   0.78132   0.00000  Uiso   1.00
O402   O     0.24172   0.25000   0.71868   0.00000  Uiso   1.00
O403   O     0.09161   0.25000   0.69988   0.00000  Uiso   1.00
O404   O     0.24172   0.25000   0.80011   0.00000  Uiso   1.00
Cl405  Cl    0.06515   0.21812   0.51270   0.00000  Uiso   1.00
Cl406  Cl    0.18929   0.34045   0.97727   0.00000  Uiso   1.00
C407   C     0.49998   0.16495   0.74999   0.00000  Uiso   1.00
C408   C     0.50003   0.33506   0.75003   0.00000  Uiso   1.00
C409   C     0.54203   0.26516   0.55900   0.00000  Uiso   1.00
C410   C     0.48827   0.21217   0.94502   0.00000  Uiso   1.00
C411   C     0.54160   0.26529   0.60966   0.00000  Uiso   1.00
C412   C     0.48818   0.21254   0.89427   0.00000  Uiso   1.00
C413   C     0.45791   0.23471   0.59941   0.00000  Uiso   1.00
C414   C     0.51171   0.28782   0.89682   0.00000  Uiso   1.00
C415   C     0.45606   0.23501   0.54838   0.00000  Uiso   1.00
C416   C     0.51108   0.28929   0.94752   0.00000  Uiso   1.00
C417   C     0.49886   0.25035   0.52717   0.00000  Uiso   1.00
C418   C     0.49931   0.25083   0.97272   0.00000  Uiso   1.00
C419   C     0.40123   0.24998   0.73755   0.00000  Uiso   1.00
C420   C     0.59877   0.25001   0.76244   0.00000  Uiso   1.00
C421   C     0.34596   0.24997   0.73068   0.00000  Uiso   1.00
C422   C     0.65404   0.25002   0.76930   0.00000  Uiso   1.00
C423   C     0.51575   0.04768   0.79328   0.00000  Uiso   1.00
C424   C     0.51564   0.45241   0.71092   0.00000  Uiso   1.00
C425   C     0.51540   0.09358   0.79330   0.00000  Uiso   1.00
C426   C     0.51533   0.40650   0.71076   0.00000  Uiso   1.00
C427   C     0.49995   0.11671   0.75000   0.00000  Uiso   1.00
C428   C     0.50008   0.38329   0.75008   0.00000  Uiso   1.00
C429   C     0.48444   0.09345   0.70675   0.00000  Uiso   1.00
C430   C     0.48484   0.40647   0.78945   0.00000  Uiso   1.00
C431   C     0.48409   0.04754   0.70685   0.00000  Uiso   1.00
C432   C     0.48445   0.45238   0.78930   0.00000  Uiso   1.00
C433   C     0.49993   0.02428   0.75008   0.00000  Uiso   1.00
C434   C     0.50000   0.47572   0.75010   0.00000  Uiso   1.00
Cu435  Cu    0.50000   0.24999   0.79821   0.00000  Uiso   1.00
Cu436  Cu    0.50000   0.25000   0.70178   0.00000  Uiso   1.00
H437   H     0.65932   0.24991   0.69362   0.00000  Uiso   1.00
H438   H     0.34069   0.25006   0.80636   0.00000  Uiso   1.00
H439   H     0.52900   0.03052   0.82691   0.00000  Uiso   1.00
H440   H     0.52870   0.46963   0.68068   0.00000  Uiso   1.00
H441   H     0.52791   0.11095   0.82703   0.00000  Uiso   1.00
H442   H     0.52769   0.38919   0.68021   0.00000  Uiso   1.00
H443   H     0.47192   0.11072   0.67300   0.00000  Uiso   1.00
H444   H     0.47253   0.38915   0.82001   0.00000  Uiso   1.00
H445   H     0.47084   0.03027   0.67324   0.00000  Uiso   1.00
H446   H     0.47138   0.46958   0.81955   0.00000  Uiso   1.00
H447   H     0.57612   0.27666   0.54473   0.00000  Uiso   1.00
H448   H     0.47971   0.18164   0.96257   0.00000  Uiso   1.00
H449   H     0.57490   0.27770   0.63311   0.00000  Uiso   1.00
H450   H     0.47857   0.18246   0.87409   0.00000  Uiso   1.00
H451   H     0.42506   0.22246   0.61500   0.00000  Uiso   1.00
H452   H     0.52133   0.31754   0.87853   0.00000  Uiso   1.00
N453   N     0.50000   0.25001   0.62934   0.00000  Uiso   1.00
N454   N     0.50000   0.24999   0.87065   0.00000  Uiso   1.00
O455   O     0.50000   0.18572   0.79071   0.00000  Uiso   1.00
O456   O     0.50000   0.31427   0.70928   0.00000  Uiso   1.00
O457   O     0.50000   0.18573   0.70928   0.00000  Uiso   1.00
O458   O     0.50000   0.31427   0.79072   0.00000  Uiso   1.00
O459   O     0.42495   0.24999   0.78132   0.00000  Uiso   1.00
O460   O     0.57505   0.25000   0.71868   0.00000  Uiso   1.00
O461   O     0.42495   0.25000   0.69988   0.00000  Uiso   1.00
O462   O     0.57505   0.25000   0.80011   0.00000  Uiso   1.00
Cl463  Cl    0.39848   0.21812   0.51270   0.00000  Uiso   1.00
Cl464  Cl    0.52263   0.34045   0.97727   0.00000  Uiso   1.00
C465   C     0.83331   0.16495   0.74999   0.00000  Uiso   1.00
C466   C     0.83337   0.33506   0.75003   0.00000  Uiso   1.00
C467   C     0.87536   0.26516   0.55900   0.00000  Uiso   1.00
C468   C     0.82160   0.21217   0.94502   0.00000  Uiso   1.00
C469   C     0.87493   0.26529   0.60966   0.00000  Uiso   1.00
C470   C     0.82151   0.21254   0.89427   0.00000  Uiso   1.00
C471   C     0.79124   0.23471   0.59941   0.00000  Uiso   1.00
C472   C     0.84505   0.28782   0.89682   0.00000  Uiso   1.00
C473   C     0.78939   0.23501   0.54838   0.00000  Uiso   1.00
C474   C     0.84441   0.28929   0.94752   0.00000  Uiso   1.00
C475   C     0.83219   0.25035   0.52717   0.00000  Uiso   1.00
C476   C     0.83265   0.25083   0.97272   0.00000  Uiso   1.00
C477   C     0.73457   0.24998   0.73755   0.00000  Uiso   1.00
C478   C     0.93210   0.25001   0.76244   0.00000  Uiso   1.00
C479   C     0.67930   0.24997   0.73068   0.00000  Uiso   1.00
C480   C     0.98737   0.25002   0.76930   0.00000  Uiso   1.00
C481   C     0.84908   0.04768   0.79328   0.00000  Uiso   1.00
C482   C     0.84898   0.45241   0.71092   0.00000  Uiso   1.00
C483   C     0.84873   0.09358   0.79330   0.00000  Uiso   1.00
C484   C     0.84867   0.40650   0.71076   0.00000  Uiso   1.00
C485   C     0.83328   0.11671   0.75000   0.00000  Uiso   1.00
C486   C     0.83341   0.38329   0.75008   0.00000  Uiso   1.00
C487   C     0.81778   0.09345   0.70675   0.00000  Uiso   1.00
C488   C     0.81817   0.40647   0.78945   0.00000  Uiso   1.00
C489   C     0.81742   0.04754   0.70685   0.00000  Uiso   1.00
C490   C     0.81778   0.45238   0.78930   0.00000  Uiso   1.00
C491   C     0.83327   0.02428   0.75008   0.00000  Uiso   1.00
C492   C     0.83334   0.47572   0.75010   0.00000  Uiso   1.00
Cu493  Cu    0.83333   0.24999   0.79821   0.00000  Uiso   1.00
Cu494  Cu    0.83333   0.25000   0.70178   0.00000  Uiso   1.00
H495   H     0.99266   0.24991   0.69362   0.00000  Uiso   1.00
H496   H     0.67403   0.25006   0.80636   0.00000  Uiso   1.00
H497   H     0.86233   0.03052   0.82691   0.00000  Uiso   1.00
H498   H     0.86203   0.46963   0.68068   0.00000  Uiso   1.00
H499   H     0.86125   0.11095   0.82703   0.00000  Uiso   1.00
H500   H     0.86102   0.38919   0.68021   0.00000  Uiso   1.00
H501   H     0.80525   0.11072   0.67300   0.00000  Uiso   1.00
H502   H     0.80587   0.38915   0.82001   0.00000  Uiso   1.00
H503   H     0.80417   0.03027   0.67324   0.00000  Uiso   1.00
H504   H     0.80471   0.46958   0.81955   0.00000  Uiso   1.00
H505   H     0.90945   0.27666   0.54473   0.00000  Uiso   1.00
H506   H     0.81304   0.18164   0.96257   0.00000  Uiso   1.00
H507   H     0.90823   0.27770   0.63311   0.00000  Uiso   1.00
H508   H     0.81190   0.18246   0.87409   0.00000  Uiso   1.00
H509   H     0.75839   0.22246   0.61500   0.00000  Uiso   1.00
H510   H     0.85466   0.31754   0.87853   0.00000  Uiso   1.00
N511   N     0.83333   0.25001   0.62934   0.00000  Uiso   1.00
N512   N     0.83333   0.24999   0.87065   0.00000  Uiso   1.00
O513   O     0.83334   0.18572   0.79071   0.00000  Uiso   1.00
O514   O     0.83333   0.31427   0.70928   0.00000  Uiso   1.00
O515   O     0.83334   0.18573   0.70928   0.00000  Uiso   1.00
O516   O     0.83333   0.31427   0.79072   0.00000  Uiso   1.00
O517   O     0.75828   0.24999   0.78132   0.00000  Uiso   1.00
O518   O     0.90839   0.25000   0.71868   0.00000  Uiso   1.00
O519   O     0.75828   0.25000   0.69988   0.00000  Uiso   1.00
O520   O     0.90839   0.25000   0.80011   0.00000  Uiso   1.00
Cl521  Cl    0.73182   0.21812   0.51270   0.00000  Uiso   1.00
Cl522  Cl    0.85596   0.34045   0.97727   0.00000  Uiso   1.00
C523   C     0.16664   0.66495   0.74999   0.00000  Uiso   1.00
C524   C     0.16670   0.83506   0.75003   0.00000  Uiso   1.00
C525   C     0.20870   0.76516   0.55900   0.00000  Uiso   1.00
C526   C     0.15494   0.71217   0.94502   0.00000  Uiso   1.00
C527   C     0.20827   0.76529   0.60966   0.00000  Uiso   1.00
C528   C     0.15484   0.71254   0.89427   0.00000  Uiso   1.00
C529   C     0.12457   0.73471   0.59941   0.00000  Uiso   1.00
C530   C     0.17838   0.78782   0.89682   0.00000  Uiso   1.00
C531   C     0.12272   0.73501   0.54838   0.00000  Uiso   1.00
C532   C     0.17774   0.78929   0.94752   0.00000  Uiso   1.00
C533   C     0.16552   0.75035   0.52717   0.00000  Uiso   1.00
C534   C     0.16598   0.75083   0.97272   0.00000  Uiso   1.00
C535   C     0.06790   0.74998   0.73755   0.00000  Uiso   1.00
C536   C     0.26544   0.75001   0.76244   0.00000  Uiso   1.00
C537   C     0.01263   0.74997   0.73068   0.00000  Uiso   1.00
C538   C     0.32070   0.75002   0.76930   0.00000  Uiso   1.00
C539   C     0.18242   0.54768   0.79328   0.00000  Uiso   1.00
C540   C     0.18231   0.95241   0.71092   0.00000  Uiso   1.00
C541   C     0.18207   0.59358   0.79330   0.00000  Uiso   1.00
C542   C     0.18200   0.90650   0.71076   0.00000  Uiso   1.00
C543   C     0.16661   0.61671   0.75000   0.00000  Uiso   1.00
C544   C     0.16674   0.88329   0.75008   0.00000  Uiso   1.00
C545   C     0.15111   0.59345   0.70675   0.00000  Uiso   1.00
C546   C     0.15151   0.90647   0.78945   0.00000  Uiso   1.00
C547   C     0.15075   0.54754   0.70685   0.00000  Uiso   1.00
C548   C     0.15112   0.95238   0.78930   0.00000  Uiso   1.00
C549   C     0.16660   0.52428   0.75008   0.00000  Uiso   1.00
C550   C     0.16667   0.97572   0.75010   0.00000  Uiso   1.00
Cu551  Cu    0.16667   0.74999   0.79821   0.00000  Uiso   1.00
Cu552  Cu    0.16667   0.75000   0.70178   0.00000  Uiso   1.00
H553   H     0.32599   0.74991   0.69362   0.00000  Uiso   1.00
H554   H     0.00736   0.75006   0.80636   0.00000  Uiso   1.00
H555   H     0.19566   0.53052   0.82691   0.00000  Uiso   1.00
H556   H     0.19536   0.96963   0.68068   0.00000  Uiso   1.00
H557   H     0.19458   0.61095   0.82703   0.00000  Uiso   1.00
H558   H     0.19436   0.88919   0.68021   0.00000  Uiso   1.00
H559   H     0.13859   0.61072   0.67300   0.00000  Uiso   1.00
H560   H     0.13920   0.88915   0.82001   0.00000  Uiso   1.00
H561   H     0.13751   0.53027   0.67324   0.00000  Uiso   1.00
H562   H     0.13804   0.96958   0.81955   0.00000  Uiso   1.00
H563   H     0.24278   0.77666   0.54473   0.00000  Uiso   1.00
H564   H     0.14638   0.68164   0.96257   0.00000  Uiso   1.00
H565   H     0.24157   0.77770   0.63311   0.00000  Uiso   1.00
H566   H     0.14523   0.68246   0.87409   0.00000  Uiso   1.00
H567   H     0.09172   0.72246   0.61500   0.00000  Uiso   1.00
H568   H     0.18799   0.81754   0.87853   0.00000  Uiso   1.00
N569   N     0.16667   0.75001   0.62934   0.00000  Uiso   1.00
N570   N     0.16667   0.74999   0.87065   0.00000  Uiso   1.00
O571   O     0.16667   0.68572   0.79071   0.00000  Uiso   1.00
O572   O     0.16666   0.81427   0.70928   0.00000  Uiso   1.00
O573   O     0.16667   0.68573   0.70928   0.00000  Uiso   1.00
O574   O     0.16666   0.81427   0.79072   0.00000  Uiso   1.00
O575   O     0.09161   0.74999   0.78132   0.00000  Uiso   1.00
O576   O     0.24172   0.75000   0.71868   0.00000  Uiso   1.00
O577   O     0.09161   0.75000   0.69988   0.00000  Uiso   1.00
O578   O     0.24172   0.75000   0.80011   0.00000  Uiso   1.00
Cl579  Cl    0.06515   0.71812   0.51270   0.00000  Uiso   1.00
Cl580  Cl    0.18929   0.84045   0.97727   0.00000  Uiso   1.00
C581   C     0.49998   0.66495   0.74999   0.00000  Uiso   1.00
C582   C     0.50003   0.83506   0.75003   0.00000  Uiso   1.00
C583   C     0.54203   0.76516   0.55900   0.00000  Uiso   1.00
C584   C     0.48827   0.71217   0.94502   0.00000  Uiso   1.00
C585   C     0.54160   0.76529   0.60966   0.00000  Uiso   1.00
C586   C     0.48818   0.71254   0.89427   0.00000  Uiso   1.00
C587   C     0.45791   0.73471   0.59941   0.00000  Uiso   1.00
C588   C     0.51171   0.78782   0.89682   0.00000  Uiso   1.00
C589   C     0.45606   0.73501   0.54838   0.00000  Uiso   1.00
C590   C     0.51108   0.78929   0.94752   0.00000  Uiso   1.00
C591   C     0.49886   0.75035   0.52717   0.00000  Uiso   1.00
C592   C     0.49931   0.75083   0.97272   0.00000  Uiso   1.00
C593   C     0.40123   0.74998   0.73755   0.00000  Uiso   1.00
C594   C     0.59877   0.75001   0.76244   0.00000  Uiso   1.00
C595   C     0.34596   0.74997   0.73068   0.00000  Uiso   1.00
C596   C     0.65404   0.75002   0.76930   0.00000  Uiso   1.00
C597   C     0.51575   0.54768   0.79328   0.00000  Uiso   1.00
C598   C     0.51564   0.95241   0.71092   0.00000  Uiso   1.00
C599   C     0.51540   0.59358   0.79330   0.00000  Uiso   1.00
C600   C     0.51533   0.90650   0.71076   0.00000  Uiso   1.00
C601   C     0.49995   0.61671   0.75000   0.00000  Uiso   1.00
C602   C     0.50008   0.88329   0.75008   0.00000  Uiso   1.00
C603   C     0.48444   0.59345   0.70675   0.00000  Uiso   1.00
C604   C     0.48484   0.90647   0.78945   0.00000  Uiso   1.00
C605   C     0.48409   0.54754   0.70685   0.00000  Uiso   1.00
C606   C     0.48445   0.95238   0.78930   0.00000  Uiso   1.00
C607   C     0.49993   0.52428   0.75008   0.00000  Uiso   1.00
C608   C     0.50000   0.97572   0.75010   0.00000  Uiso   1.00
Cu609  Cu    0.50000   0.74999   0.79821   0.00000  Uiso   1.00
Cu610  Cu    0.50000   0.75000   0.70178   0.00000  Uiso   1.00
H611   H     0.65932   0.74991   0.69362   0.00000  Uiso   1.00
H612   H     0.34069   0.75006   0.80636   0.00000  Uiso   1.00
H613   H     0.52900   0.53052   0.82691   0.00000  Uiso   1.00
H614   H     0.52870   0.96963   0.68068   0.00000  Uiso   1.00
H615   H     0.52791   0.61095   0.82703   0.00000  Uiso   1.00
H616   H     0.52769   0.88919   0.68021   0.00000  Uiso   1.00
H617   H     0.47192   0.61072   0.67300   0.00000  Uiso   1.00
H618   H     0.47253   0.88915   0.82001   0.00000  Uiso   1.00
H619   H     0.47084   0.53027   0.67324   0.00000  Uiso   1.00
H620   H     0.47138   0.96958   0.81955   0.00000  Uiso   1.00
H621   H     0.57612   0.77666   0.54473   0.00000  Uiso   1.00
H622   H     0.47971   0.68164   0.96257   0.00000  Uiso   1.00
H623   H     0.57490   0.77770   0.63311   0.00000  Uiso   1.00
H624   H     0.47857   0.68246   0.87409   0.00000  Uiso   1.00
H625   H     0.42506   0.72246   0.61500   0.00000  Uiso   1.00
H626   H     0.52133   0.81754   0.87853   0.00000  Uiso   1.00
N627   N     0.50000   0.75001   0.62934   0.00000  Uiso   1.00
N628   N     0.50000   0.74999   0.87065   0.00000  Uiso   1.00
O629   O     0.50000   0.68572   0.79071   0.00000  Uiso   1.00
O630   O     0.50000   0.81427   0.70928   0.00000  Uiso   1.00
O631   O     0.50000   0.68573   0.70928   0.00000  Uiso   1.00
O632   O     0.50000   0.81427   0.79072   0.00000  Uiso   1.00
O633   O     0.42495   0.74999   0.78132   0.00000  Uiso   1.00
O634   O     0.57505   0.75000   0.71868   0.00000  Uiso   1.00
O635   O     0.42495   0.75000   0.69988   0.00000  Uiso   1.00
O636   O     0.57505   0.75000   0.80011   0.00000  Uiso   1.00
Cl637  Cl    0.39848   0.71812   0.51270   0.00000  Uiso   1.00
Cl638  Cl    0.52263   0.84045   0.97727   0.00000  Uiso   1.00
C639   C     0.83331   0.66495   0.74999   0.00000  Uiso   1.00
C640   C     0.83337   0.83506   0.75003   0.00000  Uiso   1.00
C641   C     0.87536   0.76516   0.55900   0.00000  Uiso   1.00
C642   C     0.82160   0.71217   0.94502   0.00000  Uiso   1.00
C643   C     0.87493   0.76529   0.60966   0.00000  Uiso   1.00
C644   C     0.82151   0.71254   0.89427   0.00000  Uiso   1.00
C645   C     0.79124   0.73471   0.59941   0.00000  Uiso   1.00
C646   C     0.84505   0.78782   0.89682   0.00000  Uiso   1.00
C647   C     0.78939   0.73501   0.54838   0.00000  Uiso   1.00
C648   C     0.84441   0.78929   0.94752   0.00000  Uiso   1.00
C649   C     0.83219   0.75035   0.52717   0.00000  Uiso   1.00
C650   C     0.83265   0.75083   0.97272   0.00000  Uiso   1.00
C651   C     0.73457   0.74998   0.73755   0.00000  Uiso   1.00
C652   C     0.93210   0.75001   0.76244   0.00000  Uiso   1.00
C653   C     0.67930   0.74997   0.73068   0.00000  Uiso   1.00
C654   C     0.98737   0.75002   0.76930   0.00000  Uiso   1.00
C655   C     0.84908   0.54768   0.79328   0.00000  Uiso   1.00
C656   C     0.84898   0.95241   0.71092   0.00000  Uiso   1.00
C657   C     0.84873   0.59358   0.79330   0.00000  Uiso   1.00
C658   C     0.84867   0.90650   0.71076   0.00000  Uiso   1.00
C659   C     0.83328   0.61671   0.75000   0.00000  Uiso   1.00
C660   C     0.83341   0.88329   0.75008   0.00000  Uiso   1.00
C661   C     0.81778   0.59345   0.70675   0.00000  Uiso   1.00
C662   C     0.81817   0.90647   0.78945   0.00000  Uiso   1.00
C663   C     0.81742   0.54754   0.70685   0.00000  Uiso   1.00
C664   C     0.81778   0.95238   0.78930   0.00000  Uiso   1.00
C665   C     0.83327   0.52428   0.75008   0.00000  Uiso   1.00
C666   C     0.83334   0.97572   0.75010   0.00000  Uiso   1.00
Cu667  Cu    0.83333   0.74999   0.79821   0.00000  Uiso   1.00
Cu668  Cu    0.83333   0.75000   0.70178   0.00000  Uiso   1.00
H669   H     0.99266   0.74991   0.69362   0.00000  Uiso   1.00
H670   H     0.67403   0.75006   0.80636   0.00000  Uiso   1.00
H671   H     0.86233   0.53052   0.82691   0.00000  Uiso   1.00
H672   H     0.86203   0.96963   0.68068   0.00000  Uiso   1.00
H673   H     0.86125   0.61095   0.82703   0.00000  Uiso   1.00
H674   H     0.86102   0.88919   0.68021   0.00000  Uiso   1.00
H675   H     0.80525   0.61072   0.67300   0.00000  Uiso   1.00
H676   H     0.80587   0.88915   0.82001   0.00000  Uiso   1.00
H677   H     0.80417   0.53027   0.67324   0.00000  Uiso   1.00
H678   H     0.80471   0.96958   0.81955   0.00000  Uiso   1.00
H679   H     0.90945   0.77666   0.54473   0.00000  Uiso   1.00
H680   H     0.81304   0.68164   0.96257   0.00000  Uiso   1.00
H681   H     0.90823   0.77770   0.63311   0.00000  Uiso   1.00
H682   H     0.81190   0.68246   0.87409   0.00000  Uiso   1.00
H683   H     0.75839   0.72246   0.61500   0.00000  Uiso   1.00
H684   H     0.85466   0.81754   0.87853   0.00000  Uiso   1.00
N685   N     0.83333   0.75001   0.62934   0.00000  Uiso   1.00
N686   N     0.83333   0.74999   0.87065   0.00000  Uiso   1.00
O687   O     0.83334   0.68572   0.79071   0.00000  Uiso   1.00
O688   O     0.83333   0.81427   0.70928   0.00000  Uiso   1.00
O689   O     0.83334   0.68573   0.70928   0.00000  Uiso   1.00
O690   O     0.83333   0.81427   0.79072   0.00000  Uiso   1.00
O691   O     0.75828   0.74999   0.78132   0.00000  Uiso   1.00
O692   O     0.90839   0.75000   0.71868   0.00000  Uiso   1.00
O693   O     0.75828   0.75000   0.69988   0.00000  Uiso   1.00
O694   O     0.90839   0.75000   0.80011   0.00000  Uiso   1.00
Cl695  Cl    0.73182   0.71812   0.51270   0.00000  Uiso   1.00
Cl696  Cl    0.85596   0.84045   0.97727   0.00000  Uiso   1.00
loop_
_geom_bond_atom_site_label_1
_geom_bond_atom_site_label_2
_geom_bond_distance
_geom_bond_site_symmetry_2
_ccdc_geom_bond_type
C1     C21     1.460   .     S
C1     O51     1.293   .     A
C1     O49     1.293   .     A
C2     C22     1.460   .     S
C2     O52     1.293   .     A
C2     O50     1.293   .     A
C3     C5      1.407   .     A
C3     C11     1.408   .     A
C3     H41     1.083   .     S
C4     C12     1.407   .     A
C4     H42     1.083   .     S
C4     C6      1.408   .     A
C5     H43     1.080   .     S
C5     N47     1.365   .     A
C6     N48     1.366   .     A
C6     H44     1.080   .     S
C7     N47     1.366   .     A
C7     H45     1.081   .     S
C7     C9      1.410   .     A
C8     N48     1.367   .     A
C8     C10     1.410   .     A
C8     H46     1.079   .     S
C9     C11     1.414   .     A
C9     Cl57    1.761   .     S
C10    C12     1.414   .     A
C10    Cl58    1.761   .     S
C11    C360    1.513   1_554 S
C12    C359    1.513   .     S
C13    O53     1.285   .     A
C13    C15     1.434   .     S
C13    O55     1.287   .     A
C14    O56     1.288   .     A
C14    O54     1.285   .     A
C14    C16     1.434   .     S
C15    C132    1.335   1_455 S
C15    H147    1.087   1_455 S
C16    C73     1.335   .     S
C16    H90     1.087   .     S
C17    H33     1.083   .     S
C17    C27     1.404   .     A
C17    C19     1.390   .     A
C18    C28     1.404   .     A
C18    H34     1.083   .     S
C18    C20     1.390   .     A
C19    H35     1.083   .     S
C19    C21     1.402   .     A
C20    C22     1.402   .     A
C20    H36     1.083   .     S
C21    C23     1.402   .     A
C22    C24     1.402   .     A
C23    H37     1.083   .     S
C23    C25     1.390   .     A
C24    C26     1.390   .     A
C24    H38     1.083   .     S
C25    H39     1.083   .     S
C25    C27     1.404   .     A
C26    H40     1.083   .     S
C26    C28     1.404   .     A
C27    C202    1.470   1_545 S
C28    C201    1.470   .     S
Cu29   Cu30    2.675   .     S
Cu29   O56     1.960   .     S
Cu29   O49     1.957   .     S
Cu29   O53     1.957   .     S
Cu29   N48     2.010   .     S
Cu29   O52     1.957   .     S
Cu30   O51     1.957   .     S
Cu30   O55     1.960   .     S
Cu30   O50     1.957   .     S
Cu30   O54     1.957   .     S
Cu30   N47     2.010   .     S
H31    C73     1.087   .     S
H32    C132    1.087   1_455 S
C59    C79     1.460   .     S
C59    O109    1.293   .     A
C59    O107    1.293   .     A
C60    C80     1.460   .     S
C60    O110    1.293   .     A
C60    O108    1.293   .     A
C61    C63     1.407   .     A
C61    C69     1.408   .     A
C61    H99     1.083   .     S
C62    C70     1.407   .     A
C62    H100    1.083   .     S
C62    C64     1.408   .     A
C63    H101    1.080   .     S
C63    N105    1.365   .     A
C64    N106    1.366   .     A
C64    H102    1.080   .     S
C65    N105    1.366   .     A
C65    H103    1.081   .     S
C65    C67     1.410   .     A
C66    N106    1.367   .     A
C66    C68     1.410   .     A
C66    H104    1.079   .     S
C67    C69     1.414   .     A
C67    Cl115   1.761   .     S
C68    C70     1.414   .     A
C68    Cl116   1.761   .     S
C69    C418    1.513   1_554 S
C70    C417    1.513   .     S
C71    O111    1.285   .     A
C71    C73     1.434   .     S
C71    O113    1.287   .     A
C72    O114    1.288   .     A
C72    O112    1.285   .     A
C72    C74     1.434   .     S
C74    C131    1.335   .     S
C74    H148    1.087   .     S
C75    H91     1.083   .     S
C75    C85     1.404   .     A
C75    C77     1.390   .     A
C76    C86     1.404   .     A
C76    H92     1.083   .     S
C76    C78     1.390   .     A
C77    H93     1.083   .     S
C77    C79     1.402   .     A
C78    C80     1.402   .     A
C78    H94     1.083   .     S
C79    C81     1.402   .     A
C80    C82     1.402   .     A
C81    H95     1.083   .     S
C81    C83     1.390   .     A
C82    C84     1.390   .     A
C82    H96     1.083   .     S
C83    H97     1.083   .     S
C83    C85     1.404   .     A
C84    H98     1.083   .     S
C84    C86     1.404   .     A
C85    C260    1.470   1_545 S
C86    C259    1.470   .     S
Cu87   Cu88    2.675   .     S
Cu87   O114    1.960   .     S
Cu87   O107    1.957   .     S
Cu87   O111    1.957   .     S
Cu87   N106    2.010   .     S
Cu87   O110    1.957   .     S
Cu88   O109    1.957   .     S
Cu88   O113    1.960   .     S
Cu88   O108    1.957   .     S
Cu88   O112    1.957   .     S
Cu88   N105    2.010   .     S
H89    C131    1.087   .     S
C117   C137    1.460   .     S
C117   O167    1.293   .     A
C117   O165    1.293   .     A
C118   C138    1.460   .     S
C118   O168    1.293   .     A
C118   O166    1.293   .     A
C119   C121    1.407   .     A
C119   C127    1.408   .     A
C119   H157    1.083   .     S
C120   C128    1.407   .     A
C120   H158    1.083   .     S
C120   C122    1.408   .     A
C121   H159    1.080   .     S
C121   N163    1.365   .     A
C122   N164    1.366   .     A
C122   H160    1.080   .     S
C123   N163    1.366   .     A
C123   H161    1.081   .     S
C123   C125    1.410   .     A
C124   N164    1.367   .     A
C124   C126    1.410   .     A
C124   H162    1.079   .     S
C125   C127    1.414   .     A
C125   Cl173   1.761   .     S
C126   C128    1.414   .     A
C126   Cl174   1.761   .     S
C127   C476    1.513   1_554 S
C128   C475    1.513   .     S
C129   O169    1.285   .     A
C129   C131    1.434   .     S
C129   O171    1.287   .     A
C130   O172    1.288   .     A
C130   O170    1.285   .     A
C130   C132    1.434   .     S
C132   C15     1.335   1_655 S
C132   H32     1.087   1_655 S
C133   H149    1.083   .     S
C133   C143    1.404   .     A
C133   C135    1.390   .     A
C134   C144    1.404   .     A
C134   H150    1.083   .     S
C134   C136    1.390   .     A
C135   H151    1.083   .     S
C135   C137    1.402   .     A
C136   C138    1.402   .     A
C136   H152    1.083   .     S
C137   C139    1.402   .     A
C138   C140    1.402   .     A
C139   H153    1.083   .     S
C139   C141    1.390   .     A
C140   C142    1.390   .     A
C140   H154    1.083   .     S
C141   H155    1.083   .     S
C141   C143    1.404   .     A
C142   H156    1.083   .     S
C142   C144    1.404   .     A
C143   C318    1.470   1_545 S
C144   C317    1.470   .     S
Cu145  Cu146   2.675   .     S
Cu145  O172    1.960   .     S
Cu145  O165    1.957   .     S
Cu145  O169    1.957   .     S
Cu145  N164    2.010   .     S
Cu145  O168    1.957   .     S
Cu146  O167    1.957   .     S
Cu146  O171    1.960   .     S
Cu146  O166    1.957   .     S
Cu146  O170    1.957   .     S
Cu146  N163    2.010   .     S
H147   C15     1.087   1_655 S
C175   C195    1.460   .     S
C175   O225    1.293   .     A
C175   O223    1.293   .     A
C176   C196    1.460   .     S
C176   O226    1.293   .     A
C176   O224    1.293   .     A
C177   C179    1.407   .     A
C177   C185    1.408   .     A
C177   H215    1.083   .     S
C178   C186    1.407   .     A
C178   H216    1.083   .     S
C178   C180    1.408   .     A
C179   H217    1.080   .     S
C179   N221    1.365   .     A
C180   N222    1.366   .     A
C180   H218    1.080   .     S
C181   N221    1.366   .     A
C181   H219    1.081   .     S
C181   C183    1.410   .     A
C182   N222    1.367   .     A
C182   C184    1.410   .     A
C182   H220    1.079   .     S
C183   C185    1.414   .     A
C183   Cl231   1.761   .     S
C184   C186    1.414   .     A
C184   Cl232   1.761   .     S
C185   C534    1.513   1_554 S
C186   C533    1.513   .     S
C187   O227    1.285   .     A
C187   C189    1.434   .     S
C187   O229    1.287   .     A
C188   O230    1.288   .     A
C188   O228    1.285   .     A
C188   C190    1.434   .     S
C189   C306    1.335   1_455 S
C189   H321    1.087   1_455 S
C190   C247    1.335   .     S
C190   H264    1.087   .     S
C191   H207    1.083   .     S
C191   C201    1.404   .     A
C191   C193    1.390   .     A
C192   C202    1.404   .     A
C192   H208    1.083   .     S
C192   C194    1.390   .     A
C193   H209    1.083   .     S
C193   C195    1.402   .     A
C194   C196    1.402   .     A
C194   H210    1.083   .     S
C195   C197    1.402   .     A
C196   C198    1.402   .     A
C197   H211    1.083   .     S
C197   C199    1.390   .     A
C198   C200    1.390   .     A
C198   H212    1.083   .     S
C199   H213    1.083   .     S
C199   C201    1.404   .     A
C200   H214    1.083   .     S
C200   C202    1.404   .     A
C202   C27     1.470   1_565 S
Cu203  Cu204   2.675   .     S
Cu203  O230    1.960   .     S
Cu203  O223    1.957   .     S
Cu203  O227    1.957   .     S
Cu203  N222    2.010   .     S
Cu203  O226    1.957   .     S
Cu204  O225    1.957   .     S
Cu204  O229    1.960   .     S
Cu204  O224    1.957   .     S
Cu204  O228    1.957   .     S
Cu204  N221    2.010   .     S
H205   C247    1.087   .     S
H206   C306    1.087   1_455 S
C233   C253    1.460   .     S
C233   O283    1.293   .     A
C233   O281    1.293   .     A
C234   C254    1.460   .     S
C234   O284    1.293   .     A
C234   O282    1.293   .     A
C235   C237    1.407   .     A
C235   C243    1.408   .     A
C235   H273    1.083   .     S
C236   C244    1.407   .     A
C236   H274    1.083   .     S
C236   C238    1.408   .     A
C237   H275    1.080   .     S
C237   N279    1.365   .     A
C238   N280    1.366   .     A
C238   H276    1.080   .     S
C239   N279    1.366   .     A
C239   H277    1.081   .     S
C239   C241    1.410   .     A
C240   N280    1.367   .     A
C240   C242    1.410   .     A
C240   H278    1.079   .     S
C241   C243    1.414   .     A
C241   Cl289   1.761   .     S
C242   C244    1.414   .     A
C242   Cl290   1.761   .     S
C243   C592    1.513   1_554 S
C244   C591    1.513   .     S
C245   O285    1.285   .     A
C245   C247    1.434   .     S
C245   O287    1.287   .     A
C246   O288    1.288   .     A
C246   O286    1.285   .     A
C246   C248    1.434   .     S
C248   C305    1.335   .     S
C248   H322    1.087   .     S
C249   H265    1.083   .     S
C249   C259    1.404   .     A
C249   C251    1.390   .     A
C250   C260    1.404   .     A
C250   H266    1.083   .     S
C250   C252    1.390   .     A
C251   H267    1.083   .     S
C251   C253    1.402   .     A
C252   C254    1.402   .     A
C252   H268    1.083   .     S
C253   C255    1.402   .     A
C254   C256    1.402   .     A
C255   H269    1.083   .     S
C255   C257    1.390   .     A
C256   C258    1.390   .     A
C256   H270    1.083   .     S
C257   H271    1.083   .     S
C257   C259    1.404   .     A
C258   H272    1.083   .     S
C258   C260    1.404   .     A
C260   C85     1.470   1_565 S
Cu261  Cu262   2.675   .     S
Cu261  O288    1.960   .     S
Cu261  O281    1.957   .     S
Cu261  O285    1.957   .     S
Cu261  N280    2.010   .     S
Cu261  O284    1.957   .     S
Cu262  O283    1.957   .     S
Cu262  O287    1.960   .     S
Cu262  O282    1.957   .     S
Cu262  O286    1.957   .     S
Cu262  N279    2.010   .     S
H263   C305    1.087   .     S
C291   C311    1.460   .     S
C291   O341    1.293   .     A
C291   O339    1.293   .     A
C292   C312    1.460   .     S
C292   O342    1.293   .     A
C292   O340    1.293   .     A
C293   C295    1.407   .     A
C293   C301    1.408   .     A
C293   H331    1.083   .     S
C294   C302    1.407   .     A
C294   H332    1.083   .     S
C294   C296    1.408   .     A
C295   H333    1.080   .     S
C295   N337    1.365   .     A
C296   N338    1.366   .     A
C296   H334    1.080   .     S
C297   N337    1.366   .     A
C297   H335    1.081   .     S
C297   C299    1.410   .     A
C298   N338    1.367   .     A
C298   C300    1.410   .     A
C298   H336    1.079   .     S
C299   C301    1.414   .     A
C299   Cl347   1.761   .     S
C300   C302    1.414   .     A
C300   Cl348   1.761   .     S
C301   C650    1.513   1_554 S
C302   C649    1.513   .     S
C303   O343    1.285   .     A
C303   C305    1.434   .     S
C303   O345    1.287   .     A
C304   O346    1.288   .     A
C304   O344    1.285   .     A
C304   C306    1.434   .     S
C306   C189    1.335   1_655 S
C306   H206    1.087   1_655 S
C307   H323    1.083   .     S
C307   C317    1.404   .     A
C307   C309    1.390   .     A
C308   C318    1.404   .     A
C308   H324    1.083   .     S
C308   C310    1.390   .     A
C309   H325    1.083   .     S
C309   C311    1.402   .     A
C310   C312    1.402   .     A
C310   H326    1.083   .     S
C311   C313    1.402   .     A
C312   C314    1.402   .     A
C313   H327    1.083   .     S
C313   C315    1.390   .     A
C314   C316    1.390   .     A
C314   H328    1.083   .     S
C315   H329    1.083   .     S
C315   C317    1.404   .     A
C316   H330    1.083   .     S
C316   C318    1.404   .     A
C318   C143    1.470   1_565 S
Cu319  Cu320   2.675   .     S
Cu319  O346    1.960   .     S
Cu319  O339    1.957   .     S
Cu319  O343    1.957   .     S
Cu319  N338    2.010   .     S
Cu319  O342    1.957   .     S
Cu320  O341    1.957   .     S
Cu320  O345    1.960   .     S
Cu320  O340    1.957   .     S
Cu320  O344    1.957   .     S
Cu320  N337    2.010   .     S
H321   C189    1.087   1_655 S
C349   C369    1.460   .     S
C349   O399    1.293   .     A
C349   O397    1.293   .     A
C350   C370    1.460   .     S
C350   O400    1.293   .     A
C350   O398    1.293   .     A
C351   C353    1.407   .     A
C351   C359    1.408   .     A
C351   H389    1.083   .     S
C352   C360    1.407   .     A
C352   H390    1.083   .     S
C352   C354    1.408   .     A
C353   H391    1.080   .     S
C353   N395    1.365   .     A
C354   N396    1.366   .     A
C354   H392    1.080   .     S
C355   N395    1.366   .     A
C355   H393    1.081   .     S
C355   C357    1.410   .     A
C356   N396    1.367   .     A
C356   C358    1.410   .     A
C356   H394    1.079   .     S
C357   C359    1.414   .     A
C357   Cl405   1.761   .     S
C358   C360    1.414   .     A
C358   Cl406   1.761   .     S
C360   C11     1.513   1_556 S
C361   O401    1.285   .     A
C361   C363    1.434   .     S
C361   O403    1.287   .     A
C362   O404    1.288   .     A
C362   O402    1.285   .     A
C362   C364    1.434   .     S
C363   C480    1.335   1_455 S
C363   H495    1.087   1_455 S
C364   C421    1.335   .     S
C364   H438    1.087   .     S
C365   H381    1.083   .     S
C365   C375    1.404   .     A
C365   C367    1.390   .     A
C366   C376    1.404   .     A
C366   H382    1.083   .     S
C366   C368    1.390   .     A
C367   H383    1.083   .     S
C367   C369    1.402   .     A
C368   C370    1.402   .     A
C368   H384    1.083   .     S
C369   C371    1.402   .     A
C370   C372    1.402   .     A
C371   H385    1.083   .     S
C371   C373    1.390   .     A
C372   C374    1.390   .     A
C372   H386    1.083   .     S
C373   H387    1.083   .     S
C373   C375    1.404   .     A
C374   H388    1.083   .     S
C374   C376    1.404   .     A
C375   C550    1.470   1_545 S
C376   C549    1.470   .     S
Cu377  Cu378   2.675   .     S
Cu377  O404    1.960   .     S
Cu377  O397    1.957   .     S
Cu377  O401    1.957   .     S
Cu377  N396    2.010   .     S
Cu377  O400    1.957   .     S
Cu378  O399    1.957   .     S
Cu378  O403    1.960   .     S
Cu378  O398    1.957   .     S
Cu378  O402    1.957   .     S
Cu378  N395    2.010   .     S
H379   C421    1.087   .     S
H380   C480    1.087   1_455 S
C407   C427    1.460   .     S
C407   O457    1.293   .     A
C407   O455    1.293   .     A
C408   C428    1.460   .     S
C408   O458    1.293   .     A
C408   O456    1.293   .     A
C409   C411    1.407   .     A
C409   C417    1.408   .     A
C409   H447    1.083   .     S
C410   C418    1.407   .     A
C410   H448    1.083   .     S
C410   C412    1.408   .     A
C411   H449    1.080   .     S
C411   N453    1.365   .     A
C412   N454    1.366   .     A
C412   H450    1.080   .     S
C413   N453    1.366   .     A
C413   H451    1.081   .     S
C413   C415    1.410   .     A
C414   N454    1.367   .     A
C414   C416    1.410   .     A
C414   H452    1.079   .     S
C415   C417    1.414   .     A
C415   Cl463   1.761   .     S
C416   C418    1.414   .     A
C416   Cl464   1.761   .     S
C418   C69     1.513   1_556 S
C419   O459    1.285   .     A
C419   C421    1.434   .     S
C419   O461    1.287   .     A
C420   O462    1.288   .     A
C420   O460    1.285   .     A
C420   C422    1.434   .     S
C422   C479    1.335   .     S
C422   H496    1.087   .     S
C423   H439    1.083   .     S
C423   C433    1.404   .     A
C423   C425    1.390   .     A
C424   C434    1.404   .     A
C424   H440    1.083   .     S
C424   C426    1.390   .     A
C425   H441    1.083   .     S
C425   C427    1.402   .     A
C426   C428    1.402   .     A
C426   H442    1.083   .     S
C427   C429    1.402   .     A
C428   C430    1.402   .     A
C429   H443    1.083   .     S
C429   C431    1.390   .     A
C430   C432    1.390   .     A
C430   H444    1.083   .     S
C431   H445    1.083   .     S
C431   C433    1.404   .     A
C432   H446    1.083   .     S
C432   C434    1.404   .     A
C433   C608    1.470   1_545 S
C434   C607    1.470   .     S
Cu435  Cu436   2.675   .     S
Cu435  O462    1.960   .     S
Cu435  O455    1.957   .     S
Cu435  O459    1.957   .     S
Cu435  N454    2.010   .     S
Cu435  O458    1.957   .     S
Cu436  O457    1.957   .     S
Cu436  O461    1.960   .     S
Cu436  O456    1.957   .     S
Cu436  O460    1.957   .     S
Cu436  N453    2.010   .     S
H437   C479    1.087   .     S
C465   C485    1.460   .     S
C465   O515    1.293   .     A
C465   O513    1.293   .     A
C466   C486    1.460   .     S
C466   O516    1.293   .     A
C466   O514    1.293   .     A
C467   C469    1.407   .     A
C467   C475    1.408   .     A
C467   H505    1.083   .     S
C468   C476    1.407   .     A
C468   H506    1.083   .     S
C468   C470    1.408   .     A
C469   H507    1.080   .     S
C469   N511    1.365   .     A
C470   N512    1.366   .     A
C470   H508    1.080   .     S
C471   N511    1.366   .     A
C471   H509    1.081   .     S
C471   C473    1.410   .     A
C472   N512    1.367   .     A
C472   C474    1.410   .     A
C472   H510    1.079   .     S
C473   C475    1.414   .     A
C473   Cl521   1.761   .     S
C474   C476    1.414   .     A
C474   Cl522   1.761   .     S
C476   C127    1.513   1_556 S
C477   O517    1.285   .     A
C477   C479    1.434   .     S
C477   O519    1.287   .     A
C478   O520    1.288   .     A
C478   O518    1.285   .     A
C478   C480    1.434   .     S
C480   C363    1.335   1_655 S
C480   H380    1.087   1_655 S
C481   H497    1.083   .     S
C481   C491    1.404   .     A
C481   C483    1.390   .     A
C482   C492    1.404   .     A
C482   H498    1.083   .     S
C482   C484    1.390   .     A
C483   H499    1.083   .     S
C483   C485    1.402   .     A
C484   C486    1.402   .     A
C484   H500    1.083   .     S
C485   C487    1.402   .     A
C486   C488    1.402   .     A
C487   H501    1.083   .     S
C487   C489    1.390   .     A
C488   C490    1.390   .     A
C488   H502    1.083   .     S
C489   H503    1.083   .     S
C489   C491    1.404   .     A
C490   H504    1.083   .     S
C490   C492    1.404   .     A
C491   C666    1.470   1_545 S
C492   C665    1.470   .     S
Cu493  Cu494   2.675   .     S
Cu493  O520    1.960   .     S
Cu493  O513    1.957   .     S
Cu493  O517    1.957   .     S
Cu493  N512    2.010   .     S
Cu493  O516    1.957   .     S
Cu494  O515    1.957   .     S
Cu494  O519    1.960   .     S
Cu494  O514    1.957   .     S
Cu494  O518    1.957   .     S
Cu494  N511    2.010   .     S
H495   C363    1.087   1_655 S
C523   C543    1.460   .     S
C523   O573    1.293   .     A
C523   O571    1.293   .     A
C524   C544    1.460   .     S
C524   O574    1.293   .     A
C524   O572    1.293   .     A
C525   C527    1.407   .     A
C525   C533    1.408   .     A
C525   H563    1.083   .     S
C526   C534    1.407   .     A
C526   H564    1.083   .     S
C526   C528    1.408   .     A
C527   H565    1.080   .     S
C527   N569    1.365   .     A
C528   N570    1.366   .     A
C528   H566    1.080   .     S
C529   N569    1.366   .     A
C529   H567    1.081   .     S
C529   C531    1.410   .     A
C530   N570    1.367   .     A
C530   C532    1.410   .     A
C530   H568    1.079   .     S
C531   C533    1.414   .     A
C531   Cl579   1.761   .     S
C532   C534    1.414   .     A
C532   Cl580   1.761   .     S
C534   C185    1.513   1_556 S
C535   O575    1.285   .     A
C535   C537    1.434   .     S
C535   O577    1.287   .     A
C536   O578    1.288   .     A
C536   O576    1.285   .     A
C536   C538    1.434   .     S
C537   C654    1.335   1_455 S
C537   H669    1.087   1_455 S
C538   C595    1.335   .     S
C538   H612    1.087   .     S
C539   H555    1.083   .     S
C539   C549    1.404   .     A
C539   C541    1.390   .     A
C540   C550    1.404   .     A
C540   H556    1.083   .     S
C540   C542    1.390   .     A
C541   H557    1.083   .     S
C541   C543    1.402   .     A
C542   C544    1.402   .     A
C542   H558    1.083   .     S
C543   C545    1.402   .     A
C544   C546    1.402   .     A
C545   H559    1.083   .     S
C545   C547    1.390   .     A
C546   C548    1.390   .     A
C546   H560    1.083   .     S
C547   H561    1.083   .     S
C547   C549    1.404   .     A
C548   H562    1.083   .     S
C548   C550    1.404   .     A
C550   C375    1.470   1_565 S
Cu551  Cu552   2.675   .     S
Cu551  O578    1.960   .     S
Cu551  O571    1.957   .     S
Cu551  O575    1.957   .     S
Cu551  N570    2.010   .     S
Cu551  O574    1.957   .     S
Cu552  O573    1.957   .     S
Cu552  O577    1.960   .     S
Cu552  O572    1.957   .     S
Cu552  O576    1.957   .     S
Cu552  N569    2.010   .     S
H553   C595    1.087   .     S
H554   C654    1.087   1_455 S
C581   C601    1.460   .     S
C581   O631    1.293   .     A
C581   O629    1.293   .     A
C582   C602    1.460   .     S
C582   O632    1.293   .     A
C582   O630    1.293   .     A
C583   C585    1.407   .     A
C583   C591    1.408   .     A
C583   H621    1.083   .     S
C584   C592    1.407   .     A
C584   H622    1.083   .     S
C584   C586    1.408   .     A
C585   H623    1.080   .     S
C585   N627    1.365   .     A
C586   N628    1.366   .     A
C586   H624    1.080   .     S
C587   N627    1.366   .     A
C587   H625    1.081   .     S
C587   C589    1.410   .     A
C588   N628    1.367   .     A
C588   C590    1.410   .     A
C588   H626    1.079   .     S
C589   C591    1.414   .     A
C589   Cl637   1.761   .     S
C590   C592    1.414   .     A
C590   Cl638   1.761   .     S
C592   C243    1.513   1_556 S
C593   O633    1.285   .     A
C593   C595    1.434   .     S
C593   O635    1.287   .     A
C594   O636    1.288   .     A
C594   O634    1.285   .     A
C594   C596    1.434   .     S
C596   C653    1.335   .     S
C596   H670    1.087   .     S
C597   H613    1.083   .     S
C597   C607    1.404   .     A
C597   C599    1.390   .     A
C598   C608    1.404   .     A
C598   H614    1.083   .     S
C598   C600    1.390   .     A
C599   H615    1.083   .     S
C599   C601    1.402   .     A
C600   C602    1.402   .     A
C600   H616    1.083   .     S
C601   C603    1.402   .     A
C602   C604    1.402   .     A
C603   H617    1.083   .     S
C603   C605    1.390   .     A
C604   C606    1.390   .     A
C604   H618    1.083   .     S
C605   H619    1.083   .     S
C605   C607    1.404   .     A
C606   H620    1.083   .     S
C606   C608    1.404   .     A
C608   C433    1.470   1_565 S
Cu609  Cu610   2.675   .     S
Cu609  O636    1.960   .     S
Cu609  O629    1.957   .     S
Cu609  O633    1.957   .     S
Cu609  N628    2.010   .     S
Cu609  O632    1.957   .     S
Cu610  O631    1.957   .     S
Cu610  O635    1.960   .     S
Cu610  O630    1.957   .     S
Cu610  O634    1.957   .     S
Cu610  N627    2.010   .     S
H611   C653    1.087   .     S
C639   C659    1.460   .     S
C639   O689    1.293   .     A
C639   O687    1.293   .     A
C640   C660    1.460   .     S
C640   O690    1.293   .     A
C640   O688    1.293   .     A
C641   C643    1.407   .     A
C641   C649    1.408   .     A
C641   H679    1.083   .     S
C642   C650    1.407   .     A
C642   H680    1.083   .     S
C642   C644    1.408   .     A
C643   H681    1.080   .     S
C643   N685    1.365   .     A
C644   N686    1.366   .     A
C644   H682    1.080   .     S
C645   N685    1.366   .     A
C645   H683    1.081   .     S
C645   C647    1.410   .     A
C646   N686    1.367   .     A
C646   C648    1.410   .     A
C646   H684    1.079   .     S
C647   C649    1.414   .     A
C647   Cl695   1.761   .     S
C648   C650    1.414   .     A
C648   Cl696   1.761   .     S
C650   C301    1.513   1_556 S
C651   O691    1.285   .     A
C651   C653    1.434   .     S
C651   O693    1.287   .     A
C652   O694    1.288   .     A
C652   O692    1.285   .     A
C652   C654    1.434   .     S
C654   C537    1.335   1_655 S
C654   H554    1.087   1_655 S
C655   H671    1.083   .     S
C655   C665    1.404   .     A
C655   C657    1.390   .     A
C656   C666    1.404   .     A
C656   H672    1.083   .     S
C656   C658    1.390   .     A
C657   H673    1.083   .     S
C657   C659    1.402   .     A
C658   C660    1.402   .     A
C658   H674    1.083   .     S
C659   C661    1.402   .     A
C660   C662    1.402   .     A
C661   H675    1.083   .     S
C661   C663    1.390   .     A
C662   C664    1.390   .     A
C662   H676    1.083   .     S
C663   H677    1.083   .     S
C663   C665    1.404   .     A
C664   H678    1.083   .     S
C664   C666    1.404   .     A
C666   C491    1.470   1_565 S
Cu667  Cu668   2.675   .     S
Cu667  O694    1.960   .     S
Cu667  O687    1.957   .     S
Cu667  O691    1.957   .     S
Cu667  N686    2.010   .     S
Cu667  O690    1.957   .     S
Cu668  O689    1.957   .     S
Cu668  O693    1.960   .     S
Cu668  O688    1.957   .     S
Cu668  O692    1.957   .     S
Cu668  N685    2.010   .     S
H669   C537    1.087   1_655 S
