data_str_m2_o2_o10_pcu_sym.61
_audit_creation_date              2020-01-03
_audit_creation_method            'Materials Studio'
_symmetry_space_group_name_H-M    'P1'
_symmetry_Int_Tables_number       1
_symmetry_cell_setting            triclinic
loop_
_symmetry_equiv_pos_as_xyz
  x,y,z
_cell_length_a                    26.3250
_cell_length_b                    30.1903
_cell_length_c                    27.8086
_cell_angle_alpha                 89.6922
_cell_angle_beta                  97.0893
_cell_angle_gamma                 91.0524
loop_
_atom_site_label
_atom_site_type_symbol
_atom_site_fract_x
_atom_site_fract_y
_atom_site_fract_z
_atom_site_U_iso_or_equiv
_atom_site_adp_type
_atom_site_occupancy
C1     C     0.16616   0.16494   0.25019   0.00000  Uiso   1.00
C2     C     0.20530   0.27000   0.45119   0.00000  Uiso   1.00
C3     C     0.16399   0.25316   0.02702   0.00000  Uiso   1.00
C4     C     0.16331   0.25276   0.47227   0.00000  Uiso   1.00
C5     C     0.06813   0.25050   0.23801   0.00000  Uiso   1.00
C6     C     0.26511   0.24956   0.26185   0.00000  Uiso   1.00
C7     C     0.01404   0.25770   0.23279   0.00000  Uiso   1.00
C8     C     0.31890   0.24182   0.26645   0.00000  Uiso   1.00
C9     C     0.13848   0.04560   0.28130   0.00000  Uiso   1.00
C10    C     0.14101   0.45360   0.21025   0.00000  Uiso   1.00
C11    C     0.13695   0.09196   0.28133   0.00000  Uiso   1.00
C12    C     0.16586   0.33505   0.24967   0.00000  Uiso   1.00
C13    C     0.13887   0.40717   0.21010   0.00000  Uiso   1.00
C14    C     0.16659   0.11656   0.25118   0.00000  Uiso   1.00
C15    C     0.16581   0.38345   0.24890   0.00000  Uiso   1.00
C16    C     0.19792   0.09465   0.22211   0.00000  Uiso   1.00
C17    C     0.19399   0.40632   0.28733   0.00000  Uiso   1.00
C18    C     0.19945   0.04872   0.22225   0.00000  Uiso   1.00
C19    C     0.19604   0.45226   0.28730   0.00000  Uiso   1.00
C20    C     0.16973   0.02419   0.25151   0.00000  Uiso   1.00
C21    C     0.16969   0.47592   0.24903   0.00000  Uiso   1.00
C22    C     0.12776   0.13865   0.10764   0.00000  Uiso   1.00
C23    C     0.18169   0.28983   0.05645   0.00000  Uiso   1.00
C24    C     0.07913   0.12034   0.07848   0.00000  Uiso   1.00
C25    C     0.29343   0.28514   0.40034   0.00000  Uiso   1.00
C26    C     0.31811   0.32657   0.42486   0.00000  Uiso   1.00
C27    C     0.12247   0.23414   0.44027   0.00000  Uiso   1.00
C28    C     0.18432   0.28670   0.10728   0.00000  Uiso   1.00
C29    C     0.12613   0.23184   0.39025   0.00000  Uiso   1.00
C30    C     0.14667   0.21472   0.10187   0.00000  Uiso   1.00
C31    C     0.20609   0.26981   0.40024   0.00000  Uiso   1.00
C32    C     0.14750   0.21546   0.05090   0.00000  Uiso   1.00
Cl33   Cl    0.32405   0.29473   0.18570   0.00000  Uiso   1.00
Cl34   Cl    0.00728   0.20201   0.31068   0.00000  Uiso   1.00
Cl35   Cl    0.09988   0.01427   0.31723   0.00000  Uiso   1.00
Cl36   Cl    0.10630   0.48389   0.16283   0.00000  Uiso   1.00
Cl37   Cl    0.09587   0.11833   0.31750   0.00000  Uiso   1.00
Cl38   Cl    0.09982   0.37959   0.16269   0.00000  Uiso   1.00
Cl39   Cl    0.19682   0.34166   0.03194   0.00000  Uiso   1.00
Cl40   Cl    0.06419   0.21643   0.45971   0.00000  Uiso   1.00
Cu41   Cu    0.16667   0.24999   0.29822   0.00000  Uiso   1.00
Cu42   Cu    0.16667   0.25000   0.20179   0.00000  Uiso   1.00
H43    H     0.22128   0.11319   0.19929   0.00000  Uiso   1.00
H44    H     0.16138   0.13558   0.08721   0.00000  Uiso   1.00
H45    H     0.06761   0.14128   0.04624   0.00000  Uiso   1.00
H46    H     0.08570   0.08618   0.06630   0.00000  Uiso   1.00
H47    H     0.04743   0.11935   0.10141   0.00000  Uiso   1.00
H48    H     0.31615   0.27638   0.37085   0.00000  Uiso   1.00
H49    H     0.29662   0.25657   0.42604   0.00000  Uiso   1.00
H50    H     0.02477   0.31957   0.44031   0.00000  Uiso   1.00
H51    H     0.31861   0.35384   0.39794   0.00000  Uiso   1.00
H52    H     0.29656   0.33738   0.45445   0.00000  Uiso   1.00
H53    H     0.21491   0.38855   0.31720   0.00000  Uiso   1.00
H54    H     0.22343   0.03217   0.19920   0.00000  Uiso   1.00
H55    H     0.21778   0.46952   0.31738   0.00000  Uiso   1.00
H56    H     0.19893   0.31474   0.12907   0.00000  Uiso   1.00
H57    H     0.09553   0.21643   0.36674   0.00000  Uiso   1.00
H58    H     0.13423   0.18693   0.02950   0.00000  Uiso   1.00
H59    H     0.23728   0.28418   0.47437   0.00000  Uiso   1.00
H60    H     0.13589   0.11715   0.13996   0.00000  Uiso   1.00
N61    N     0.16667   0.25001   0.12935   0.00000  Uiso   1.00
N62    N     0.16667   0.24999   0.37066   0.00000  Uiso   1.00
O63    O     0.16667   0.18572   0.29072   0.00000  Uiso   1.00
O64    O     0.24285   0.29419   0.37921   0.00000  Uiso   1.00
O65    O     0.16666   0.31427   0.20929   0.00000  Uiso   1.00
O66    O     0.16667   0.18573   0.20928   0.00000  Uiso   1.00
O67    O     0.16666   0.31427   0.29072   0.00000  Uiso   1.00
O68    O     0.09161   0.24999   0.28132   0.00000  Uiso   1.00
O69    O     0.24172   0.25000   0.21868   0.00000  Uiso   1.00
O70    O     0.09161   0.25000   0.19988   0.00000  Uiso   1.00
O71    O     0.24172   0.25000   0.30012   0.00000  Uiso   1.00
O72    O     0.11958   0.18204   0.12393   0.00000  Uiso   1.00
C73    C     0.49949   0.16494   0.25019   0.00000  Uiso   1.00
C74    C     0.53863   0.27000   0.45119   0.00000  Uiso   1.00
C75    C     0.49732   0.25316   0.02702   0.00000  Uiso   1.00
C76    C     0.49664   0.25276   0.47227   0.00000  Uiso   1.00
C77    C     0.40147   0.25050   0.23801   0.00000  Uiso   1.00
C78    C     0.59845   0.24956   0.26185   0.00000  Uiso   1.00
C79    C     0.34737   0.25770   0.23279   0.00000  Uiso   1.00
C80    C     0.65224   0.24182   0.26645   0.00000  Uiso   1.00
C81    C     0.47181   0.04560   0.28130   0.00000  Uiso   1.00
C82    C     0.47435   0.45360   0.21025   0.00000  Uiso   1.00
C83    C     0.47028   0.09196   0.28133   0.00000  Uiso   1.00
C84    C     0.49919   0.33505   0.24967   0.00000  Uiso   1.00
C85    C     0.47220   0.40717   0.21010   0.00000  Uiso   1.00
C86    C     0.49993   0.11656   0.25118   0.00000  Uiso   1.00
C87    C     0.49915   0.38345   0.24890   0.00000  Uiso   1.00
C88    C     0.53125   0.09465   0.22211   0.00000  Uiso   1.00
C89    C     0.52732   0.40632   0.28733   0.00000  Uiso   1.00
C90    C     0.53278   0.04872   0.22225   0.00000  Uiso   1.00
C91    C     0.52937   0.45226   0.28730   0.00000  Uiso   1.00
C92    C     0.50306   0.02419   0.25151   0.00000  Uiso   1.00
C93    C     0.50303   0.47592   0.24903   0.00000  Uiso   1.00
C94    C     0.46109   0.13865   0.10764   0.00000  Uiso   1.00
C95    C     0.51502   0.28983   0.05645   0.00000  Uiso   1.00
C96    C     0.41246   0.12034   0.07848   0.00000  Uiso   1.00
C97    C     0.62676   0.28514   0.40034   0.00000  Uiso   1.00
C98    C     0.65144   0.32657   0.42486   0.00000  Uiso   1.00
C99    C     0.45580   0.23414   0.44027   0.00000  Uiso   1.00
C100   C     0.51765   0.28670   0.10728   0.00000  Uiso   1.00
C101   C     0.45947   0.23184   0.39025   0.00000  Uiso   1.00
C102   C     0.48001   0.21472   0.10187   0.00000  Uiso   1.00
C103   C     0.53943   0.26981   0.40024   0.00000  Uiso   1.00
C104   C     0.48084   0.21546   0.05090   0.00000  Uiso   1.00
Cl105  Cl    0.65739   0.29473   0.18570   0.00000  Uiso   1.00
Cl106  Cl    0.34062   0.20201   0.31068   0.00000  Uiso   1.00
Cl107  Cl    0.43321   0.01427   0.31723   0.00000  Uiso   1.00
Cl108  Cl    0.43964   0.48389   0.16283   0.00000  Uiso   1.00
Cl109  Cl    0.42920   0.11833   0.31750   0.00000  Uiso   1.00
Cl110  Cl    0.43316   0.37959   0.16269   0.00000  Uiso   1.00
Cl111  Cl    0.53015   0.34166   0.03194   0.00000  Uiso   1.00
Cl112  Cl    0.39752   0.21643   0.45971   0.00000  Uiso   1.00
Cu113  Cu    0.50000   0.24999   0.29822   0.00000  Uiso   1.00
Cu114  Cu    0.50000   0.25000   0.20179   0.00000  Uiso   1.00
H115   H     0.55462   0.11319   0.19929   0.00000  Uiso   1.00
H116   H     0.49471   0.13558   0.08721   0.00000  Uiso   1.00
H117   H     0.40094   0.14128   0.04624   0.00000  Uiso   1.00
H118   H     0.41903   0.08618   0.06630   0.00000  Uiso   1.00
H119   H     0.38077   0.11935   0.10141   0.00000  Uiso   1.00
H120   H     0.64948   0.27638   0.37085   0.00000  Uiso   1.00
H121   H     0.62995   0.25657   0.42604   0.00000  Uiso   1.00
H122   H     0.35811   0.31957   0.44031   0.00000  Uiso   1.00
H123   H     0.65195   0.35384   0.39794   0.00000  Uiso   1.00
H124   H     0.62990   0.33738   0.45445   0.00000  Uiso   1.00
H125   H     0.54824   0.38855   0.31720   0.00000  Uiso   1.00
H126   H     0.55676   0.03217   0.19920   0.00000  Uiso   1.00
H127   H     0.55111   0.46952   0.31738   0.00000  Uiso   1.00
H128   H     0.53226   0.31474   0.12907   0.00000  Uiso   1.00
H129   H     0.42886   0.21643   0.36674   0.00000  Uiso   1.00
H130   H     0.46756   0.18693   0.02950   0.00000  Uiso   1.00
H131   H     0.57062   0.28418   0.47437   0.00000  Uiso   1.00
H132   H     0.46922   0.11715   0.13996   0.00000  Uiso   1.00
N133   N     0.50000   0.25001   0.12935   0.00000  Uiso   1.00
N134   N     0.50000   0.24999   0.37066   0.00000  Uiso   1.00
O135   O     0.50000   0.18572   0.29072   0.00000  Uiso   1.00
O136   O     0.57618   0.29419   0.37921   0.00000  Uiso   1.00
O137   O     0.50000   0.31427   0.20929   0.00000  Uiso   1.00
O138   O     0.50000   0.18573   0.20928   0.00000  Uiso   1.00
O139   O     0.50000   0.31427   0.29072   0.00000  Uiso   1.00
O140   O     0.42495   0.24999   0.28132   0.00000  Uiso   1.00
O141   O     0.57505   0.25000   0.21868   0.00000  Uiso   1.00
O142   O     0.42495   0.25000   0.19988   0.00000  Uiso   1.00
O143   O     0.57505   0.25000   0.30012   0.00000  Uiso   1.00
O144   O     0.45291   0.18204   0.12393   0.00000  Uiso   1.00
C145   C     0.83282   0.16494   0.25019   0.00000  Uiso   1.00
C146   C     0.87196   0.27000   0.45119   0.00000  Uiso   1.00
C147   C     0.83065   0.25316   0.02702   0.00000  Uiso   1.00
C148   C     0.82997   0.25276   0.47227   0.00000  Uiso   1.00
C149   C     0.73480   0.25050   0.23801   0.00000  Uiso   1.00
C150   C     0.93178   0.24956   0.26185   0.00000  Uiso   1.00
C151   C     0.68071   0.25770   0.23279   0.00000  Uiso   1.00
C152   C     0.98557   0.24182   0.26645   0.00000  Uiso   1.00
C153   C     0.80515   0.04560   0.28130   0.00000  Uiso   1.00
C154   C     0.80768   0.45360   0.21025   0.00000  Uiso   1.00
C155   C     0.80361   0.09196   0.28133   0.00000  Uiso   1.00
C156   C     0.83252   0.33505   0.24967   0.00000  Uiso   1.00
C157   C     0.80554   0.40717   0.21010   0.00000  Uiso   1.00
C158   C     0.83326   0.11656   0.25118   0.00000  Uiso   1.00
C159   C     0.83248   0.38345   0.24890   0.00000  Uiso   1.00
C160   C     0.86458   0.09465   0.22211   0.00000  Uiso   1.00
C161   C     0.86065   0.40632   0.28733   0.00000  Uiso   1.00
C162   C     0.86611   0.04872   0.22225   0.00000  Uiso   1.00
C163   C     0.86270   0.45226   0.28730   0.00000  Uiso   1.00
C164   C     0.83639   0.02419   0.25151   0.00000  Uiso   1.00
C165   C     0.83636   0.47592   0.24903   0.00000  Uiso   1.00
C166   C     0.79443   0.13865   0.10764   0.00000  Uiso   1.00
C167   C     0.84835   0.28983   0.05645   0.00000  Uiso   1.00
C168   C     0.74580   0.12034   0.07848   0.00000  Uiso   1.00
C169   C     0.96009   0.28514   0.40034   0.00000  Uiso   1.00
C170   C     0.98477   0.32657   0.42486   0.00000  Uiso   1.00
C171   C     0.78913   0.23414   0.44027   0.00000  Uiso   1.00
C172   C     0.85098   0.28670   0.10728   0.00000  Uiso   1.00
C173   C     0.79280   0.23184   0.39025   0.00000  Uiso   1.00
C174   C     0.81334   0.21472   0.10187   0.00000  Uiso   1.00
C175   C     0.87276   0.26981   0.40024   0.00000  Uiso   1.00
C176   C     0.81417   0.21546   0.05090   0.00000  Uiso   1.00
Cl177  Cl    0.99072   0.29473   0.18570   0.00000  Uiso   1.00
Cl178  Cl    0.67395   0.20201   0.31068   0.00000  Uiso   1.00
Cl179  Cl    0.76655   0.01427   0.31723   0.00000  Uiso   1.00
Cl180  Cl    0.77297   0.48389   0.16283   0.00000  Uiso   1.00
Cl181  Cl    0.76254   0.11833   0.31750   0.00000  Uiso   1.00
Cl182  Cl    0.76649   0.37959   0.16269   0.00000  Uiso   1.00
Cl183  Cl    0.86348   0.34166   0.03194   0.00000  Uiso   1.00
Cl184  Cl    0.73086   0.21643   0.45971   0.00000  Uiso   1.00
Cu185  Cu    0.83333   0.24999   0.29822   0.00000  Uiso   1.00
Cu186  Cu    0.83333   0.25000   0.20179   0.00000  Uiso   1.00
H187   H     0.88795   0.11319   0.19929   0.00000  Uiso   1.00
H188   H     0.82804   0.13558   0.08721   0.00000  Uiso   1.00
H189   H     0.73428   0.14128   0.04624   0.00000  Uiso   1.00
H190   H     0.75237   0.08618   0.06630   0.00000  Uiso   1.00
H191   H     0.71410   0.11935   0.10141   0.00000  Uiso   1.00
H192   H     0.98281   0.27638   0.37085   0.00000  Uiso   1.00
H193   H     0.96329   0.25657   0.42604   0.00000  Uiso   1.00
H194   H     0.69144   0.31957   0.44031   0.00000  Uiso   1.00
H195   H     0.98528   0.35384   0.39794   0.00000  Uiso   1.00
H196   H     0.96323   0.33738   0.45445   0.00000  Uiso   1.00
H197   H     0.88158   0.38855   0.31720   0.00000  Uiso   1.00
H198   H     0.89009   0.03217   0.19920   0.00000  Uiso   1.00
H199   H     0.88444   0.46952   0.31738   0.00000  Uiso   1.00
H200   H     0.86559   0.31474   0.12907   0.00000  Uiso   1.00
H201   H     0.76219   0.21643   0.36674   0.00000  Uiso   1.00
H202   H     0.80089   0.18693   0.02950   0.00000  Uiso   1.00
H203   H     0.90395   0.28418   0.47437   0.00000  Uiso   1.00
H204   H     0.80256   0.11715   0.13996   0.00000  Uiso   1.00
N205   N     0.83333   0.25001   0.12935   0.00000  Uiso   1.00
N206   N     0.83333   0.24999   0.37066   0.00000  Uiso   1.00
O207   O     0.83334   0.18572   0.29072   0.00000  Uiso   1.00
O208   O     0.90951   0.29419   0.37921   0.00000  Uiso   1.00
O209   O     0.83333   0.31427   0.20929   0.00000  Uiso   1.00
O210   O     0.83334   0.18573   0.20928   0.00000  Uiso   1.00
O211   O     0.83333   0.31427   0.29072   0.00000  Uiso   1.00
O212   O     0.75828   0.24999   0.28132   0.00000  Uiso   1.00
O213   O     0.90839   0.25000   0.21868   0.00000  Uiso   1.00
O214   O     0.75828   0.25000   0.19988   0.00000  Uiso   1.00
O215   O     0.90839   0.25000   0.30012   0.00000  Uiso   1.00
O216   O     0.78624   0.18204   0.12393   0.00000  Uiso   1.00
C217   C     0.16616   0.66494   0.25019   0.00000  Uiso   1.00
C218   C     0.20530   0.77000   0.45119   0.00000  Uiso   1.00
C219   C     0.16399   0.75316   0.02702   0.00000  Uiso   1.00
C220   C     0.16331   0.75276   0.47227   0.00000  Uiso   1.00
C221   C     0.06813   0.75050   0.23801   0.00000  Uiso   1.00
C222   C     0.26511   0.74956   0.26185   0.00000  Uiso   1.00
C223   C     0.01404   0.75770   0.23279   0.00000  Uiso   1.00
C224   C     0.31890   0.74182   0.26645   0.00000  Uiso   1.00
C225   C     0.13848   0.54560   0.28130   0.00000  Uiso   1.00
C226   C     0.14101   0.95360   0.21025   0.00000  Uiso   1.00
C227   C     0.13695   0.59196   0.28133   0.00000  Uiso   1.00
C228   C     0.16586   0.83505   0.24967   0.00000  Uiso   1.00
C229   C     0.13887   0.90717   0.21010   0.00000  Uiso   1.00
C230   C     0.16659   0.61656   0.25118   0.00000  Uiso   1.00
C231   C     0.16581   0.88345   0.24890   0.00000  Uiso   1.00
C232   C     0.19792   0.59465   0.22211   0.00000  Uiso   1.00
C233   C     0.19399   0.90632   0.28733   0.00000  Uiso   1.00
C234   C     0.19945   0.54872   0.22225   0.00000  Uiso   1.00
C235   C     0.19604   0.95226   0.28730   0.00000  Uiso   1.00
C236   C     0.16973   0.52419   0.25151   0.00000  Uiso   1.00
C237   C     0.16969   0.97592   0.24903   0.00000  Uiso   1.00
C238   C     0.12776   0.63865   0.10764   0.00000  Uiso   1.00
C239   C     0.18169   0.78983   0.05645   0.00000  Uiso   1.00
C240   C     0.07913   0.62034   0.07848   0.00000  Uiso   1.00
C241   C     0.29343   0.78514   0.40034   0.00000  Uiso   1.00
C242   C     0.31811   0.82657   0.42486   0.00000  Uiso   1.00
C243   C     0.12247   0.73414   0.44027   0.00000  Uiso   1.00
C244   C     0.18432   0.78670   0.10728   0.00000  Uiso   1.00
C245   C     0.12613   0.73184   0.39025   0.00000  Uiso   1.00
C246   C     0.14667   0.71472   0.10187   0.00000  Uiso   1.00
C247   C     0.20609   0.76981   0.40024   0.00000  Uiso   1.00
C248   C     0.14750   0.71546   0.05090   0.00000  Uiso   1.00
Cl249  Cl    0.32405   0.79473   0.18570   0.00000  Uiso   1.00
Cl250  Cl    0.00728   0.70201   0.31068   0.00000  Uiso   1.00
Cl251  Cl    0.09988   0.51427   0.31723   0.00000  Uiso   1.00
Cl252  Cl    0.10630   0.98389   0.16283   0.00000  Uiso   1.00
Cl253  Cl    0.09587   0.61833   0.31750   0.00000  Uiso   1.00
Cl254  Cl    0.09982   0.87959   0.16269   0.00000  Uiso   1.00
Cl255  Cl    0.19682   0.84166   0.03194   0.00000  Uiso   1.00
Cl256  Cl    0.06419   0.71643   0.45971   0.00000  Uiso   1.00
Cu257  Cu    0.16667   0.74999   0.29822   0.00000  Uiso   1.00
Cu258  Cu    0.16667   0.75000   0.20179   0.00000  Uiso   1.00
H259   H     0.22128   0.61319   0.19929   0.00000  Uiso   1.00
H260   H     0.16138   0.63558   0.08721   0.00000  Uiso   1.00
H261   H     0.06761   0.64128   0.04624   0.00000  Uiso   1.00
H262   H     0.08570   0.58618   0.06630   0.00000  Uiso   1.00
H263   H     0.04743   0.61935   0.10141   0.00000  Uiso   1.00
H264   H     0.31615   0.77638   0.37085   0.00000  Uiso   1.00
H265   H     0.29662   0.75657   0.42604   0.00000  Uiso   1.00
H266   H     0.02477   0.81957   0.44031   0.00000  Uiso   1.00
H267   H     0.31861   0.85384   0.39794   0.00000  Uiso   1.00
H268   H     0.29656   0.83738   0.45445   0.00000  Uiso   1.00
H269   H     0.21491   0.88855   0.31720   0.00000  Uiso   1.00
H270   H     0.22343   0.53217   0.19920   0.00000  Uiso   1.00
H271   H     0.21778   0.96952   0.31738   0.00000  Uiso   1.00
H272   H     0.19893   0.81474   0.12907   0.00000  Uiso   1.00
H273   H     0.09553   0.71643   0.36674   0.00000  Uiso   1.00
H274   H     0.13423   0.68693   0.02950   0.00000  Uiso   1.00
H275   H     0.23728   0.78418   0.47437   0.00000  Uiso   1.00
H276   H     0.13589   0.61715   0.13996   0.00000  Uiso   1.00
N277   N     0.16667   0.75001   0.12935   0.00000  Uiso   1.00
N278   N     0.16667   0.74999   0.37066   0.00000  Uiso   1.00
O279   O     0.16667   0.68572   0.29072   0.00000  Uiso   1.00
O280   O     0.24285   0.79419   0.37921   0.00000  Uiso   1.00
O281   O     0.16666   0.81427   0.20929   0.00000  Uiso   1.00
O282   O     0.16667   0.68573   0.20928   0.00000  Uiso   1.00
O283   O     0.16666   0.81427   0.29072   0.00000  Uiso   1.00
O284   O     0.09161   0.74999   0.28132   0.00000  Uiso   1.00
O285   O     0.24172   0.75000   0.21868   0.00000  Uiso   1.00
O286   O     0.09161   0.75000   0.19988   0.00000  Uiso   1.00
O287   O     0.24172   0.75000   0.30012   0.00000  Uiso   1.00
O288   O     0.11958   0.68204   0.12393   0.00000  Uiso   1.00
C289   C     0.49949   0.66494   0.25019   0.00000  Uiso   1.00
C290   C     0.53863   0.77000   0.45119   0.00000  Uiso   1.00
C291   C     0.49732   0.75316   0.02702   0.00000  Uiso   1.00
C292   C     0.49664   0.75276   0.47227   0.00000  Uiso   1.00
C293   C     0.40147   0.75050   0.23801   0.00000  Uiso   1.00
C294   C     0.59845   0.74956   0.26185   0.00000  Uiso   1.00
C295   C     0.34737   0.75770   0.23279   0.00000  Uiso   1.00
C296   C     0.65224   0.74182   0.26645   0.00000  Uiso   1.00
C297   C     0.47181   0.54560   0.28130   0.00000  Uiso   1.00
C298   C     0.47435   0.95360   0.21025   0.00000  Uiso   1.00
C299   C     0.47028   0.59196   0.28133   0.00000  Uiso   1.00
C300   C     0.49919   0.83505   0.24967   0.00000  Uiso   1.00
C301   C     0.47220   0.90717   0.21010   0.00000  Uiso   1.00
C302   C     0.49993   0.61656   0.25118   0.00000  Uiso   1.00
C303   C     0.49915   0.88345   0.24890   0.00000  Uiso   1.00
C304   C     0.53125   0.59465   0.22211   0.00000  Uiso   1.00
C305   C     0.52732   0.90632   0.28733   0.00000  Uiso   1.00
C306   C     0.53278   0.54872   0.22225   0.00000  Uiso   1.00
C307   C     0.52937   0.95226   0.28730   0.00000  Uiso   1.00
C308   C     0.50306   0.52419   0.25151   0.00000  Uiso   1.00
C309   C     0.50303   0.97592   0.24903   0.00000  Uiso   1.00
C310   C     0.46109   0.63865   0.10764   0.00000  Uiso   1.00
C311   C     0.51502   0.78983   0.05645   0.00000  Uiso   1.00
C312   C     0.41246   0.62034   0.07848   0.00000  Uiso   1.00
C313   C     0.62676   0.78514   0.40034   0.00000  Uiso   1.00
C314   C     0.65144   0.82657   0.42486   0.00000  Uiso   1.00
C315   C     0.45580   0.73414   0.44027   0.00000  Uiso   1.00
C316   C     0.51765   0.78670   0.10728   0.00000  Uiso   1.00
C317   C     0.45947   0.73184   0.39025   0.00000  Uiso   1.00
C318   C     0.48001   0.71472   0.10187   0.00000  Uiso   1.00
C319   C     0.53943   0.76981   0.40024   0.00000  Uiso   1.00
C320   C     0.48084   0.71546   0.05090   0.00000  Uiso   1.00
Cl321  Cl    0.65739   0.79473   0.18570   0.00000  Uiso   1.00
Cl322  Cl    0.34062   0.70201   0.31068   0.00000  Uiso   1.00
Cl323  Cl    0.43321   0.51427   0.31723   0.00000  Uiso   1.00
Cl324  Cl    0.43964   0.98389   0.16283   0.00000  Uiso   1.00
Cl325  Cl    0.42920   0.61833   0.31750   0.00000  Uiso   1.00
Cl326  Cl    0.43316   0.87959   0.16269   0.00000  Uiso   1.00
Cl327  Cl    0.53015   0.84166   0.03194   0.00000  Uiso   1.00
Cl328  Cl    0.39752   0.71643   0.45971   0.00000  Uiso   1.00
Cu329  Cu    0.50000   0.74999   0.29822   0.00000  Uiso   1.00
Cu330  Cu    0.50000   0.75000   0.20179   0.00000  Uiso   1.00
H331   H     0.55462   0.61319   0.19929   0.00000  Uiso   1.00
H332   H     0.49471   0.63558   0.08721   0.00000  Uiso   1.00
H333   H     0.40094   0.64128   0.04624   0.00000  Uiso   1.00
H334   H     0.41903   0.58618   0.06630   0.00000  Uiso   1.00
H335   H     0.38077   0.61935   0.10141   0.00000  Uiso   1.00
H336   H     0.64948   0.77638   0.37085   0.00000  Uiso   1.00
H337   H     0.62995   0.75657   0.42604   0.00000  Uiso   1.00
H338   H     0.35811   0.81957   0.44031   0.00000  Uiso   1.00
H339   H     0.65195   0.85384   0.39794   0.00000  Uiso   1.00
H340   H     0.62990   0.83738   0.45445   0.00000  Uiso   1.00
H341   H     0.54824   0.88855   0.31720   0.00000  Uiso   1.00
H342   H     0.55676   0.53217   0.19920   0.00000  Uiso   1.00
H343   H     0.55111   0.96952   0.31738   0.00000  Uiso   1.00
H344   H     0.53226   0.81474   0.12907   0.00000  Uiso   1.00
H345   H     0.42886   0.71643   0.36674   0.00000  Uiso   1.00
H346   H     0.46756   0.68693   0.02950   0.00000  Uiso   1.00
H347   H     0.57062   0.78418   0.47437   0.00000  Uiso   1.00
H348   H     0.46922   0.61715   0.13996   0.00000  Uiso   1.00
N349   N     0.50000   0.75001   0.12935   0.00000  Uiso   1.00
N350   N     0.50000   0.74999   0.37066   0.00000  Uiso   1.00
O351   O     0.50000   0.68572   0.29072   0.00000  Uiso   1.00
O352   O     0.57618   0.79419   0.37921   0.00000  Uiso   1.00
O353   O     0.50000   0.81427   0.20929   0.00000  Uiso   1.00
O354   O     0.50000   0.68573   0.20928   0.00000  Uiso   1.00
O355   O     0.50000   0.81427   0.29072   0.00000  Uiso   1.00
O356   O     0.42495   0.74999   0.28132   0.00000  Uiso   1.00
O357   O     0.57505   0.75000   0.21868   0.00000  Uiso   1.00
O358   O     0.42495   0.75000   0.19988   0.00000  Uiso   1.00
O359   O     0.57505   0.75000   0.30012   0.00000  Uiso   1.00
O360   O     0.45291   0.68204   0.12393   0.00000  Uiso   1.00
C361   C     0.83282   0.66494   0.25019   0.00000  Uiso   1.00
C362   C     0.87196   0.77000   0.45119   0.00000  Uiso   1.00
C363   C     0.83065   0.75316   0.02702   0.00000  Uiso   1.00
C364   C     0.82997   0.75276   0.47227   0.00000  Uiso   1.00
C365   C     0.73480   0.75050   0.23801   0.00000  Uiso   1.00
C366   C     0.93178   0.74956   0.26185   0.00000  Uiso   1.00
C367   C     0.68071   0.75770   0.23279   0.00000  Uiso   1.00
C368   C     0.98557   0.74182   0.26645   0.00000  Uiso   1.00
C369   C     0.80515   0.54560   0.28130   0.00000  Uiso   1.00
C370   C     0.80768   0.95360   0.21025   0.00000  Uiso   1.00
C371   C     0.80361   0.59196   0.28133   0.00000  Uiso   1.00
C372   C     0.83252   0.83505   0.24967   0.00000  Uiso   1.00
C373   C     0.80554   0.90717   0.21010   0.00000  Uiso   1.00
C374   C     0.83326   0.61656   0.25118   0.00000  Uiso   1.00
C375   C     0.83248   0.88345   0.24890   0.00000  Uiso   1.00
C376   C     0.86458   0.59465   0.22211   0.00000  Uiso   1.00
C377   C     0.86065   0.90632   0.28733   0.00000  Uiso   1.00
C378   C     0.86611   0.54872   0.22225   0.00000  Uiso   1.00
C379   C     0.86270   0.95226   0.28730   0.00000  Uiso   1.00
C380   C     0.83639   0.52419   0.25151   0.00000  Uiso   1.00
C381   C     0.83636   0.97592   0.24903   0.00000  Uiso   1.00
C382   C     0.79443   0.63865   0.10764   0.00000  Uiso   1.00
C383   C     0.84835   0.78983   0.05645   0.00000  Uiso   1.00
C384   C     0.74580   0.62034   0.07848   0.00000  Uiso   1.00
C385   C     0.96009   0.78514   0.40034   0.00000  Uiso   1.00
C386   C     0.98477   0.82657   0.42486   0.00000  Uiso   1.00
C387   C     0.78913   0.73414   0.44027   0.00000  Uiso   1.00
C388   C     0.85098   0.78670   0.10728   0.00000  Uiso   1.00
C389   C     0.79280   0.73184   0.39025   0.00000  Uiso   1.00
C390   C     0.81334   0.71472   0.10187   0.00000  Uiso   1.00
C391   C     0.87276   0.76981   0.40024   0.00000  Uiso   1.00
C392   C     0.81417   0.71546   0.05090   0.00000  Uiso   1.00
Cl393  Cl    0.99072   0.79473   0.18570   0.00000  Uiso   1.00
Cl394  Cl    0.67395   0.70201   0.31068   0.00000  Uiso   1.00
Cl395  Cl    0.76655   0.51427   0.31723   0.00000  Uiso   1.00
Cl396  Cl    0.77297   0.98389   0.16283   0.00000  Uiso   1.00
Cl397  Cl    0.76254   0.61833   0.31750   0.00000  Uiso   1.00
Cl398  Cl    0.76649   0.87959   0.16269   0.00000  Uiso   1.00
Cl399  Cl    0.86348   0.84166   0.03194   0.00000  Uiso   1.00
Cl400  Cl    0.73086   0.71643   0.45971   0.00000  Uiso   1.00
Cu401  Cu    0.83333   0.74999   0.29822   0.00000  Uiso   1.00
Cu402  Cu    0.83333   0.75000   0.20179   0.00000  Uiso   1.00
H403   H     0.88795   0.61319   0.19929   0.00000  Uiso   1.00
H404   H     0.82804   0.63558   0.08721   0.00000  Uiso   1.00
H405   H     0.73428   0.64128   0.04624   0.00000  Uiso   1.00
H406   H     0.75237   0.58618   0.06630   0.00000  Uiso   1.00
H407   H     0.71410   0.61935   0.10141   0.00000  Uiso   1.00
H408   H     0.98281   0.77638   0.37085   0.00000  Uiso   1.00
H409   H     0.96329   0.75657   0.42604   0.00000  Uiso   1.00
H410   H     0.69144   0.81957   0.44031   0.00000  Uiso   1.00
H411   H     0.98528   0.85384   0.39794   0.00000  Uiso   1.00
H412   H     0.96323   0.83738   0.45445   0.00000  Uiso   1.00
H413   H     0.88158   0.88855   0.31720   0.00000  Uiso   1.00
H414   H     0.89009   0.53217   0.19920   0.00000  Uiso   1.00
H415   H     0.88444   0.96952   0.31738   0.00000  Uiso   1.00
H416   H     0.86559   0.81474   0.12907   0.00000  Uiso   1.00
H417   H     0.76219   0.71643   0.36674   0.00000  Uiso   1.00
H418   H     0.80089   0.68693   0.02950   0.00000  Uiso   1.00
H419   H     0.90395   0.78418   0.47437   0.00000  Uiso   1.00
H420   H     0.80256   0.61715   0.13996   0.00000  Uiso   1.00
N421   N     0.83333   0.75001   0.12935   0.00000  Uiso   1.00
N422   N     0.83333   0.74999   0.37066   0.00000  Uiso   1.00
O423   O     0.83334   0.68572   0.29072   0.00000  Uiso   1.00
O424   O     0.90951   0.79419   0.37921   0.00000  Uiso   1.00
O425   O     0.83333   0.81427   0.20929   0.00000  Uiso   1.00
O426   O     0.83334   0.68573   0.20928   0.00000  Uiso   1.00
O427   O     0.83333   0.81427   0.29072   0.00000  Uiso   1.00
O428   O     0.75828   0.74999   0.28132   0.00000  Uiso   1.00
O429   O     0.90839   0.75000   0.21868   0.00000  Uiso   1.00
O430   O     0.75828   0.75000   0.19988   0.00000  Uiso   1.00
O431   O     0.90839   0.75000   0.30012   0.00000  Uiso   1.00
O432   O     0.78624   0.68204   0.12393   0.00000  Uiso   1.00
C433   C     0.16616   0.16494   0.75019   0.00000  Uiso   1.00
C434   C     0.20530   0.27000   0.95119   0.00000  Uiso   1.00
C435   C     0.16399   0.25316   0.52702   0.00000  Uiso   1.00
C436   C     0.16331   0.25276   0.97227   0.00000  Uiso   1.00
C437   C     0.06813   0.25050   0.73801   0.00000  Uiso   1.00
C438   C     0.26511   0.24956   0.76185   0.00000  Uiso   1.00
C439   C     0.01404   0.25770   0.73279   0.00000  Uiso   1.00
C440   C     0.31890   0.24182   0.76645   0.00000  Uiso   1.00
C441   C     0.13848   0.04560   0.78130   0.00000  Uiso   1.00
C442   C     0.14101   0.45360   0.71025   0.00000  Uiso   1.00
C443   C     0.13695   0.09196   0.78133   0.00000  Uiso   1.00
C444   C     0.16586   0.33505   0.74967   0.00000  Uiso   1.00
C445   C     0.13887   0.40717   0.71010   0.00000  Uiso   1.00
C446   C     0.16659   0.11656   0.75118   0.00000  Uiso   1.00
C447   C     0.16581   0.38345   0.74890   0.00000  Uiso   1.00
C448   C     0.19792   0.09465   0.72211   0.00000  Uiso   1.00
C449   C     0.19399   0.40632   0.78733   0.00000  Uiso   1.00
C450   C     0.19945   0.04872   0.72225   0.00000  Uiso   1.00
C451   C     0.19604   0.45226   0.78730   0.00000  Uiso   1.00
C452   C     0.16973   0.02419   0.75151   0.00000  Uiso   1.00
C453   C     0.16969   0.47592   0.74903   0.00000  Uiso   1.00
C454   C     0.12776   0.13865   0.60764   0.00000  Uiso   1.00
C455   C     0.18169   0.28983   0.55645   0.00000  Uiso   1.00
C456   C     0.07913   0.12034   0.57848   0.00000  Uiso   1.00
C457   C     0.29343   0.28514   0.90034   0.00000  Uiso   1.00
C458   C     0.31811   0.32657   0.92486   0.00000  Uiso   1.00
C459   C     0.12247   0.23414   0.94027   0.00000  Uiso   1.00
C460   C     0.18432   0.28670   0.60728   0.00000  Uiso   1.00
C461   C     0.12613   0.23184   0.89025   0.00000  Uiso   1.00
C462   C     0.14667   0.21472   0.60187   0.00000  Uiso   1.00
C463   C     0.20609   0.26981   0.90024   0.00000  Uiso   1.00
C464   C     0.14750   0.21546   0.55090   0.00000  Uiso   1.00
Cl465  Cl    0.32405   0.29473   0.68570   0.00000  Uiso   1.00
Cl466  Cl    0.00728   0.20201   0.81068   0.00000  Uiso   1.00
Cl467  Cl    0.09988   0.01427   0.81723   0.00000  Uiso   1.00
Cl468  Cl    0.10630   0.48389   0.66283   0.00000  Uiso   1.00
Cl469  Cl    0.09587   0.11833   0.81750   0.00000  Uiso   1.00
Cl470  Cl    0.09982   0.37959   0.66269   0.00000  Uiso   1.00
Cl471  Cl    0.19682   0.34166   0.53194   0.00000  Uiso   1.00
Cl472  Cl    0.06419   0.21643   0.95971   0.00000  Uiso   1.00
Cu473  Cu    0.16667   0.24999   0.79822   0.00000  Uiso   1.00
Cu474  Cu    0.16667   0.25000   0.70179   0.00000  Uiso   1.00
H475   H     0.22128   0.11319   0.69929   0.00000  Uiso   1.00
H476   H     0.16138   0.13558   0.58721   0.00000  Uiso   1.00
H477   H     0.06761   0.14128   0.54624   0.00000  Uiso   1.00
H478   H     0.08570   0.08618   0.56630   0.00000  Uiso   1.00
H479   H     0.04743   0.11935   0.60141   0.00000  Uiso   1.00
H480   H     0.31615   0.27638   0.87085   0.00000  Uiso   1.00
H481   H     0.29662   0.25657   0.92604   0.00000  Uiso   1.00
H482   H     0.02477   0.31957   0.94031   0.00000  Uiso   1.00
H483   H     0.31861   0.35384   0.89794   0.00000  Uiso   1.00
H484   H     0.29656   0.33738   0.95445   0.00000  Uiso   1.00
H485   H     0.21491   0.38855   0.81720   0.00000  Uiso   1.00
H486   H     0.22343   0.03217   0.69920   0.00000  Uiso   1.00
H487   H     0.21778   0.46952   0.81738   0.00000  Uiso   1.00
H488   H     0.19893   0.31474   0.62907   0.00000  Uiso   1.00
H489   H     0.09553   0.21643   0.86674   0.00000  Uiso   1.00
H490   H     0.13423   0.18693   0.52950   0.00000  Uiso   1.00
H491   H     0.23728   0.28418   0.97437   0.00000  Uiso   1.00
H492   H     0.13589   0.11715   0.63996   0.00000  Uiso   1.00
N493   N     0.16667   0.25001   0.62935   0.00000  Uiso   1.00
N494   N     0.16667   0.24999   0.87066   0.00000  Uiso   1.00
O495   O     0.16667   0.18572   0.79072   0.00000  Uiso   1.00
O496   O     0.24285   0.29419   0.87921   0.00000  Uiso   1.00
O497   O     0.16666   0.31427   0.70929   0.00000  Uiso   1.00
O498   O     0.16667   0.18573   0.70928   0.00000  Uiso   1.00
O499   O     0.16666   0.31427   0.79072   0.00000  Uiso   1.00
O500   O     0.09161   0.24999   0.78132   0.00000  Uiso   1.00
O501   O     0.24172   0.25000   0.71868   0.00000  Uiso   1.00
O502   O     0.09161   0.25000   0.69988   0.00000  Uiso   1.00
O503   O     0.24172   0.25000   0.80012   0.00000  Uiso   1.00
O504   O     0.11958   0.18204   0.62393   0.00000  Uiso   1.00
C505   C     0.49949   0.16494   0.75019   0.00000  Uiso   1.00
C506   C     0.53863   0.27000   0.95119   0.00000  Uiso   1.00
C507   C     0.49732   0.25316   0.52702   0.00000  Uiso   1.00
C508   C     0.49664   0.25276   0.97227   0.00000  Uiso   1.00
C509   C     0.40147   0.25050   0.73801   0.00000  Uiso   1.00
C510   C     0.59845   0.24956   0.76185   0.00000  Uiso   1.00
C511   C     0.34737   0.25770   0.73279   0.00000  Uiso   1.00
C512   C     0.65224   0.24182   0.76645   0.00000  Uiso   1.00
C513   C     0.47181   0.04560   0.78130   0.00000  Uiso   1.00
C514   C     0.47435   0.45360   0.71025   0.00000  Uiso   1.00
C515   C     0.47028   0.09196   0.78133   0.00000  Uiso   1.00
C516   C     0.49919   0.33505   0.74967   0.00000  Uiso   1.00
C517   C     0.47220   0.40717   0.71010   0.00000  Uiso   1.00
C518   C     0.49993   0.11656   0.75118   0.00000  Uiso   1.00
C519   C     0.49915   0.38345   0.74890   0.00000  Uiso   1.00
C520   C     0.53125   0.09465   0.72211   0.00000  Uiso   1.00
C521   C     0.52732   0.40632   0.78733   0.00000  Uiso   1.00
C522   C     0.53278   0.04872   0.72225   0.00000  Uiso   1.00
C523   C     0.52937   0.45226   0.78730   0.00000  Uiso   1.00
C524   C     0.50306   0.02419   0.75151   0.00000  Uiso   1.00
C525   C     0.50303   0.47592   0.74903   0.00000  Uiso   1.00
C526   C     0.46109   0.13865   0.60764   0.00000  Uiso   1.00
C527   C     0.51502   0.28983   0.55645   0.00000  Uiso   1.00
C528   C     0.41246   0.12034   0.57848   0.00000  Uiso   1.00
C529   C     0.62676   0.28514   0.90034   0.00000  Uiso   1.00
C530   C     0.65144   0.32657   0.92486   0.00000  Uiso   1.00
C531   C     0.45580   0.23414   0.94027   0.00000  Uiso   1.00
C532   C     0.51765   0.28670   0.60728   0.00000  Uiso   1.00
C533   C     0.45947   0.23184   0.89025   0.00000  Uiso   1.00
C534   C     0.48001   0.21472   0.60187   0.00000  Uiso   1.00
C535   C     0.53943   0.26981   0.90024   0.00000  Uiso   1.00
C536   C     0.48084   0.21546   0.55090   0.00000  Uiso   1.00
Cl537  Cl    0.65739   0.29473   0.68570   0.00000  Uiso   1.00
Cl538  Cl    0.34062   0.20201   0.81068   0.00000  Uiso   1.00
Cl539  Cl    0.43321   0.01427   0.81723   0.00000  Uiso   1.00
Cl540  Cl    0.43964   0.48389   0.66283   0.00000  Uiso   1.00
Cl541  Cl    0.42920   0.11833   0.81750   0.00000  Uiso   1.00
Cl542  Cl    0.43316   0.37959   0.66269   0.00000  Uiso   1.00
Cl543  Cl    0.53015   0.34166   0.53194   0.00000  Uiso   1.00
Cl544  Cl    0.39752   0.21643   0.95971   0.00000  Uiso   1.00
Cu545  Cu    0.50000   0.24999   0.79822   0.00000  Uiso   1.00
Cu546  Cu    0.50000   0.25000   0.70179   0.00000  Uiso   1.00
H547   H     0.55462   0.11319   0.69929   0.00000  Uiso   1.00
H548   H     0.49471   0.13558   0.58721   0.00000  Uiso   1.00
H549   H     0.40094   0.14128   0.54624   0.00000  Uiso   1.00
H550   H     0.41903   0.08618   0.56630   0.00000  Uiso   1.00
H551   H     0.38077   0.11935   0.60141   0.00000  Uiso   1.00
H552   H     0.64948   0.27638   0.87085   0.00000  Uiso   1.00
H553   H     0.62995   0.25657   0.92604   0.00000  Uiso   1.00
H554   H     0.35811   0.31957   0.94031   0.00000  Uiso   1.00
H555   H     0.65195   0.35384   0.89794   0.00000  Uiso   1.00
H556   H     0.62990   0.33738   0.95445   0.00000  Uiso   1.00
H557   H     0.54824   0.38855   0.81720   0.00000  Uiso   1.00
H558   H     0.55676   0.03217   0.69920   0.00000  Uiso   1.00
H559   H     0.55111   0.46952   0.81738   0.00000  Uiso   1.00
H560   H     0.53226   0.31474   0.62907   0.00000  Uiso   1.00
H561   H     0.42886   0.21643   0.86674   0.00000  Uiso   1.00
H562   H     0.46756   0.18693   0.52950   0.00000  Uiso   1.00
H563   H     0.57062   0.28418   0.97437   0.00000  Uiso   1.00
H564   H     0.46922   0.11715   0.63996   0.00000  Uiso   1.00
N565   N     0.50000   0.25001   0.62935   0.00000  Uiso   1.00
N566   N     0.50000   0.24999   0.87066   0.00000  Uiso   1.00
O567   O     0.50000   0.18572   0.79072   0.00000  Uiso   1.00
O568   O     0.57618   0.29419   0.87921   0.00000  Uiso   1.00
O569   O     0.50000   0.31427   0.70929   0.00000  Uiso   1.00
O570   O     0.50000   0.18573   0.70928   0.00000  Uiso   1.00
O571   O     0.50000   0.31427   0.79072   0.00000  Uiso   1.00
O572   O     0.42495   0.24999   0.78132   0.00000  Uiso   1.00
O573   O     0.57505   0.25000   0.71868   0.00000  Uiso   1.00
O574   O     0.42495   0.25000   0.69988   0.00000  Uiso   1.00
O575   O     0.57505   0.25000   0.80012   0.00000  Uiso   1.00
O576   O     0.45291   0.18204   0.62393   0.00000  Uiso   1.00
C577   C     0.83282   0.16494   0.75019   0.00000  Uiso   1.00
C578   C     0.87196   0.27000   0.95119   0.00000  Uiso   1.00
C579   C     0.83065   0.25316   0.52702   0.00000  Uiso   1.00
C580   C     0.82997   0.25276   0.97227   0.00000  Uiso   1.00
C581   C     0.73480   0.25050   0.73801   0.00000  Uiso   1.00
C582   C     0.93178   0.24956   0.76185   0.00000  Uiso   1.00
C583   C     0.68071   0.25770   0.73279   0.00000  Uiso   1.00
C584   C     0.98557   0.24182   0.76645   0.00000  Uiso   1.00
C585   C     0.80515   0.04560   0.78130   0.00000  Uiso   1.00
C586   C     0.80768   0.45360   0.71025   0.00000  Uiso   1.00
C587   C     0.80361   0.09196   0.78133   0.00000  Uiso   1.00
C588   C     0.83252   0.33505   0.74967   0.00000  Uiso   1.00
C589   C     0.80554   0.40717   0.71010   0.00000  Uiso   1.00
C590   C     0.83326   0.11656   0.75118   0.00000  Uiso   1.00
C591   C     0.83248   0.38345   0.74890   0.00000  Uiso   1.00
C592   C     0.86458   0.09465   0.72211   0.00000  Uiso   1.00
C593   C     0.86065   0.40632   0.78733   0.00000  Uiso   1.00
C594   C     0.86611   0.04872   0.72225   0.00000  Uiso   1.00
C595   C     0.86270   0.45226   0.78730   0.00000  Uiso   1.00
C596   C     0.83639   0.02419   0.75151   0.00000  Uiso   1.00
C597   C     0.83636   0.47592   0.74903   0.00000  Uiso   1.00
C598   C     0.79443   0.13865   0.60764   0.00000  Uiso   1.00
C599   C     0.84835   0.28983   0.55645   0.00000  Uiso   1.00
C600   C     0.74580   0.12034   0.57848   0.00000  Uiso   1.00
C601   C     0.96009   0.28514   0.90034   0.00000  Uiso   1.00
C602   C     0.98477   0.32657   0.92486   0.00000  Uiso   1.00
C603   C     0.78913   0.23414   0.94027   0.00000  Uiso   1.00
C604   C     0.85098   0.28670   0.60728   0.00000  Uiso   1.00
C605   C     0.79280   0.23184   0.89025   0.00000  Uiso   1.00
C606   C     0.81334   0.21472   0.60187   0.00000  Uiso   1.00
C607   C     0.87276   0.26981   0.90024   0.00000  Uiso   1.00
C608   C     0.81417   0.21546   0.55090   0.00000  Uiso   1.00
Cl609  Cl    0.99072   0.29473   0.68570   0.00000  Uiso   1.00
Cl610  Cl    0.67395   0.20201   0.81068   0.00000  Uiso   1.00
Cl611  Cl    0.76655   0.01427   0.81723   0.00000  Uiso   1.00
Cl612  Cl    0.77297   0.48389   0.66283   0.00000  Uiso   1.00
Cl613  Cl    0.76254   0.11833   0.81750   0.00000  Uiso   1.00
Cl614  Cl    0.76649   0.37959   0.66269   0.00000  Uiso   1.00
Cl615  Cl    0.86348   0.34166   0.53194   0.00000  Uiso   1.00
Cl616  Cl    0.73086   0.21643   0.95971   0.00000  Uiso   1.00
Cu617  Cu    0.83333   0.24999   0.79822   0.00000  Uiso   1.00
Cu618  Cu    0.83333   0.25000   0.70179   0.00000  Uiso   1.00
H619   H     0.88795   0.11319   0.69929   0.00000  Uiso   1.00
H620   H     0.82804   0.13558   0.58721   0.00000  Uiso   1.00
H621   H     0.73428   0.14128   0.54624   0.00000  Uiso   1.00
H622   H     0.75237   0.08618   0.56630   0.00000  Uiso   1.00
H623   H     0.71410   0.11935   0.60141   0.00000  Uiso   1.00
H624   H     0.98281   0.27638   0.87085   0.00000  Uiso   1.00
H625   H     0.96329   0.25657   0.92604   0.00000  Uiso   1.00
H626   H     0.69144   0.31957   0.94031   0.00000  Uiso   1.00
H627   H     0.98528   0.35384   0.89794   0.00000  Uiso   1.00
H628   H     0.96323   0.33738   0.95445   0.00000  Uiso   1.00
H629   H     0.88158   0.38855   0.81720   0.00000  Uiso   1.00
H630   H     0.89009   0.03217   0.69920   0.00000  Uiso   1.00
H631   H     0.88444   0.46952   0.81738   0.00000  Uiso   1.00
H632   H     0.86559   0.31474   0.62907   0.00000  Uiso   1.00
H633   H     0.76219   0.21643   0.86674   0.00000  Uiso   1.00
H634   H     0.80089   0.18693   0.52950   0.00000  Uiso   1.00
H635   H     0.90395   0.28418   0.97437   0.00000  Uiso   1.00
H636   H     0.80256   0.11715   0.63996   0.00000  Uiso   1.00
N637   N     0.83333   0.25001   0.62935   0.00000  Uiso   1.00
N638   N     0.83333   0.24999   0.87066   0.00000  Uiso   1.00
O639   O     0.83334   0.18572   0.79072   0.00000  Uiso   1.00
O640   O     0.90951   0.29419   0.87921   0.00000  Uiso   1.00
O641   O     0.83333   0.31427   0.70929   0.00000  Uiso   1.00
O642   O     0.83334   0.18573   0.70928   0.00000  Uiso   1.00
O643   O     0.83333   0.31427   0.79072   0.00000  Uiso   1.00
O644   O     0.75828   0.24999   0.78132   0.00000  Uiso   1.00
O645   O     0.90839   0.25000   0.71868   0.00000  Uiso   1.00
O646   O     0.75828   0.25000   0.69988   0.00000  Uiso   1.00
O647   O     0.90839   0.25000   0.80012   0.00000  Uiso   1.00
O648   O     0.78624   0.18204   0.62393   0.00000  Uiso   1.00
C649   C     0.16616   0.66494   0.75019   0.00000  Uiso   1.00
C650   C     0.20530   0.77000   0.95119   0.00000  Uiso   1.00
C651   C     0.16399   0.75316   0.52702   0.00000  Uiso   1.00
C652   C     0.16331   0.75276   0.97227   0.00000  Uiso   1.00
C653   C     0.06813   0.75050   0.73801   0.00000  Uiso   1.00
C654   C     0.26511   0.74956   0.76185   0.00000  Uiso   1.00
C655   C     0.01404   0.75770   0.73279   0.00000  Uiso   1.00
C656   C     0.31890   0.74182   0.76645   0.00000  Uiso   1.00
C657   C     0.13848   0.54560   0.78130   0.00000  Uiso   1.00
C658   C     0.14101   0.95360   0.71025   0.00000  Uiso   1.00
C659   C     0.13695   0.59196   0.78133   0.00000  Uiso   1.00
C660   C     0.16586   0.83505   0.74967   0.00000  Uiso   1.00
C661   C     0.13887   0.90717   0.71010   0.00000  Uiso   1.00
C662   C     0.16659   0.61656   0.75118   0.00000  Uiso   1.00
C663   C     0.16581   0.88345   0.74890   0.00000  Uiso   1.00
C664   C     0.19792   0.59465   0.72211   0.00000  Uiso   1.00
C665   C     0.19399   0.90632   0.78733   0.00000  Uiso   1.00
C666   C     0.19945   0.54872   0.72225   0.00000  Uiso   1.00
C667   C     0.19604   0.95226   0.78730   0.00000  Uiso   1.00
C668   C     0.16973   0.52419   0.75151   0.00000  Uiso   1.00
C669   C     0.16969   0.97592   0.74903   0.00000  Uiso   1.00
C670   C     0.12776   0.63865   0.60764   0.00000  Uiso   1.00
C671   C     0.18169   0.78983   0.55645   0.00000  Uiso   1.00
C672   C     0.07913   0.62034   0.57848   0.00000  Uiso   1.00
C673   C     0.29343   0.78514   0.90034   0.00000  Uiso   1.00
C674   C     0.31811   0.82657   0.92486   0.00000  Uiso   1.00
C675   C     0.12247   0.73414   0.94027   0.00000  Uiso   1.00
C676   C     0.18432   0.78670   0.60728   0.00000  Uiso   1.00
C677   C     0.12613   0.73184   0.89025   0.00000  Uiso   1.00
C678   C     0.14667   0.71472   0.60187   0.00000  Uiso   1.00
C679   C     0.20609   0.76981   0.90024   0.00000  Uiso   1.00
C680   C     0.14750   0.71546   0.55090   0.00000  Uiso   1.00
Cl681  Cl    0.32405   0.79473   0.68570   0.00000  Uiso   1.00
Cl682  Cl    0.00728   0.70201   0.81068   0.00000  Uiso   1.00
Cl683  Cl    0.09988   0.51427   0.81723   0.00000  Uiso   1.00
Cl684  Cl    0.10630   0.98389   0.66283   0.00000  Uiso   1.00
Cl685  Cl    0.09587   0.61833   0.81750   0.00000  Uiso   1.00
Cl686  Cl    0.09982   0.87959   0.66269   0.00000  Uiso   1.00
Cl687  Cl    0.19682   0.84166   0.53194   0.00000  Uiso   1.00
Cl688  Cl    0.06419   0.71643   0.95971   0.00000  Uiso   1.00
Cu689  Cu    0.16667   0.74999   0.79822   0.00000  Uiso   1.00
Cu690  Cu    0.16667   0.75000   0.70179   0.00000  Uiso   1.00
H691   H     0.22128   0.61319   0.69929   0.00000  Uiso   1.00
H692   H     0.16138   0.63558   0.58721   0.00000  Uiso   1.00
H693   H     0.06761   0.64128   0.54624   0.00000  Uiso   1.00
H694   H     0.08570   0.58618   0.56630   0.00000  Uiso   1.00
H695   H     0.04743   0.61935   0.60141   0.00000  Uiso   1.00
H696   H     0.31615   0.77638   0.87085   0.00000  Uiso   1.00
H697   H     0.29662   0.75657   0.92604   0.00000  Uiso   1.00
H698   H     0.02477   0.81957   0.94031   0.00000  Uiso   1.00
H699   H     0.31861   0.85384   0.89794   0.00000  Uiso   1.00
H700   H     0.29656   0.83738   0.95445   0.00000  Uiso   1.00
H701   H     0.21491   0.88855   0.81720   0.00000  Uiso   1.00
H702   H     0.22343   0.53217   0.69920   0.00000  Uiso   1.00
H703   H     0.21778   0.96952   0.81738   0.00000  Uiso   1.00
H704   H     0.19893   0.81474   0.62907   0.00000  Uiso   1.00
H705   H     0.09553   0.71643   0.86674   0.00000  Uiso   1.00
H706   H     0.13423   0.68693   0.52950   0.00000  Uiso   1.00
H707   H     0.23728   0.78418   0.97437   0.00000  Uiso   1.00
H708   H     0.13589   0.61715   0.63996   0.00000  Uiso   1.00
N709   N     0.16667   0.75001   0.62935   0.00000  Uiso   1.00
N710   N     0.16667   0.74999   0.87066   0.00000  Uiso   1.00
O711   O     0.16667   0.68572   0.79072   0.00000  Uiso   1.00
O712   O     0.24285   0.79419   0.87921   0.00000  Uiso   1.00
O713   O     0.16666   0.81427   0.70929   0.00000  Uiso   1.00
O714   O     0.16667   0.68573   0.70928   0.00000  Uiso   1.00
O715   O     0.16666   0.81427   0.79072   0.00000  Uiso   1.00
O716   O     0.09161   0.74999   0.78132   0.00000  Uiso   1.00
O717   O     0.24172   0.75000   0.71868   0.00000  Uiso   1.00
O718   O     0.09161   0.75000   0.69988   0.00000  Uiso   1.00
O719   O     0.24172   0.75000   0.80012   0.00000  Uiso   1.00
O720   O     0.11958   0.68204   0.62393   0.00000  Uiso   1.00
C721   C     0.49949   0.66494   0.75019   0.00000  Uiso   1.00
C722   C     0.53863   0.77000   0.95119   0.00000  Uiso   1.00
C723   C     0.49732   0.75316   0.52702   0.00000  Uiso   1.00
C724   C     0.49664   0.75276   0.97227   0.00000  Uiso   1.00
C725   C     0.40147   0.75050   0.73801   0.00000  Uiso   1.00
C726   C     0.59845   0.74956   0.76185   0.00000  Uiso   1.00
C727   C     0.34737   0.75770   0.73279   0.00000  Uiso   1.00
C728   C     0.65224   0.74182   0.76645   0.00000  Uiso   1.00
C729   C     0.47181   0.54560   0.78130   0.00000  Uiso   1.00
C730   C     0.47435   0.95360   0.71025   0.00000  Uiso   1.00
C731   C     0.47028   0.59196   0.78133   0.00000  Uiso   1.00
C732   C     0.49919   0.83505   0.74967   0.00000  Uiso   1.00
C733   C     0.47220   0.90717   0.71010   0.00000  Uiso   1.00
C734   C     0.49993   0.61656   0.75118   0.00000  Uiso   1.00
C735   C     0.49915   0.88345   0.74890   0.00000  Uiso   1.00
C736   C     0.53125   0.59465   0.72211   0.00000  Uiso   1.00
C737   C     0.52732   0.90632   0.78733   0.00000  Uiso   1.00
C738   C     0.53278   0.54872   0.72225   0.00000  Uiso   1.00
C739   C     0.52937   0.95226   0.78730   0.00000  Uiso   1.00
C740   C     0.50306   0.52419   0.75151   0.00000  Uiso   1.00
C741   C     0.50303   0.97592   0.74903   0.00000  Uiso   1.00
C742   C     0.46109   0.63865   0.60764   0.00000  Uiso   1.00
C743   C     0.51502   0.78983   0.55645   0.00000  Uiso   1.00
C744   C     0.41246   0.62034   0.57848   0.00000  Uiso   1.00
C745   C     0.62676   0.78514   0.90034   0.00000  Uiso   1.00
C746   C     0.65144   0.82657   0.92486   0.00000  Uiso   1.00
C747   C     0.45580   0.73414   0.94027   0.00000  Uiso   1.00
C748   C     0.51765   0.78670   0.60728   0.00000  Uiso   1.00
C749   C     0.45947   0.73184   0.89025   0.00000  Uiso   1.00
C750   C     0.48001   0.71472   0.60187   0.00000  Uiso   1.00
C751   C     0.53943   0.76981   0.90024   0.00000  Uiso   1.00
C752   C     0.48084   0.71546   0.55090   0.00000  Uiso   1.00
Cl753  Cl    0.65739   0.79473   0.68570   0.00000  Uiso   1.00
Cl754  Cl    0.34062   0.70201   0.81068   0.00000  Uiso   1.00
Cl755  Cl    0.43321   0.51427   0.81723   0.00000  Uiso   1.00
Cl756  Cl    0.43964   0.98389   0.66283   0.00000  Uiso   1.00
Cl757  Cl    0.42920   0.61833   0.81750   0.00000  Uiso   1.00
Cl758  Cl    0.43316   0.87959   0.66269   0.00000  Uiso   1.00
Cl759  Cl    0.53015   0.84166   0.53194   0.00000  Uiso   1.00
Cl760  Cl    0.39752   0.71643   0.95971   0.00000  Uiso   1.00
Cu761  Cu    0.50000   0.74999   0.79822   0.00000  Uiso   1.00
Cu762  Cu    0.50000   0.75000   0.70179   0.00000  Uiso   1.00
H763   H     0.55462   0.61319   0.69929   0.00000  Uiso   1.00
H764   H     0.49471   0.63558   0.58721   0.00000  Uiso   1.00
H765   H     0.40094   0.64128   0.54624   0.00000  Uiso   1.00
H766   H     0.41903   0.58618   0.56630   0.00000  Uiso   1.00
H767   H     0.38077   0.61935   0.60141   0.00000  Uiso   1.00
H768   H     0.64948   0.77638   0.87085   0.00000  Uiso   1.00
H769   H     0.62995   0.75657   0.92604   0.00000  Uiso   1.00
H770   H     0.35811   0.81957   0.94031   0.00000  Uiso   1.00
H771   H     0.65195   0.85384   0.89794   0.00000  Uiso   1.00
H772   H     0.62990   0.83738   0.95445   0.00000  Uiso   1.00
H773   H     0.54824   0.88855   0.81720   0.00000  Uiso   1.00
H774   H     0.55676   0.53217   0.69920   0.00000  Uiso   1.00
H775   H     0.55111   0.96952   0.81738   0.00000  Uiso   1.00
H776   H     0.53226   0.81474   0.62907   0.00000  Uiso   1.00
H777   H     0.42886   0.71643   0.86674   0.00000  Uiso   1.00
H778   H     0.46756   0.68693   0.52950   0.00000  Uiso   1.00
H779   H     0.57062   0.78418   0.97437   0.00000  Uiso   1.00
H780   H     0.46922   0.61715   0.63996   0.00000  Uiso   1.00
N781   N     0.50000   0.75001   0.62935   0.00000  Uiso   1.00
N782   N     0.50000   0.74999   0.87066   0.00000  Uiso   1.00
O783   O     0.50000   0.68572   0.79072   0.00000  Uiso   1.00
O784   O     0.57618   0.79419   0.87921   0.00000  Uiso   1.00
O785   O     0.50000   0.81427   0.70929   0.00000  Uiso   1.00
O786   O     0.50000   0.68573   0.70928   0.00000  Uiso   1.00
O787   O     0.50000   0.81427   0.79072   0.00000  Uiso   1.00
O788   O     0.42495   0.74999   0.78132   0.00000  Uiso   1.00
O789   O     0.57505   0.75000   0.71868   0.00000  Uiso   1.00
O790   O     0.42495   0.75000   0.69988   0.00000  Uiso   1.00
O791   O     0.57505   0.75000   0.80012   0.00000  Uiso   1.00
O792   O     0.45291   0.68204   0.62393   0.00000  Uiso   1.00
C793   C     0.83282   0.66494   0.75019   0.00000  Uiso   1.00
C794   C     0.87196   0.77000   0.95119   0.00000  Uiso   1.00
C795   C     0.83065   0.75316   0.52702   0.00000  Uiso   1.00
C796   C     0.82997   0.75276   0.97227   0.00000  Uiso   1.00
C797   C     0.73480   0.75050   0.73801   0.00000  Uiso   1.00
C798   C     0.93178   0.74956   0.76185   0.00000  Uiso   1.00
C799   C     0.68071   0.75770   0.73279   0.00000  Uiso   1.00
C800   C     0.98557   0.74182   0.76645   0.00000  Uiso   1.00
C801   C     0.80515   0.54560   0.78130   0.00000  Uiso   1.00
C802   C     0.80768   0.95360   0.71025   0.00000  Uiso   1.00
C803   C     0.80361   0.59196   0.78133   0.00000  Uiso   1.00
C804   C     0.83252   0.83505   0.74967   0.00000  Uiso   1.00
C805   C     0.80554   0.90717   0.71010   0.00000  Uiso   1.00
C806   C     0.83326   0.61656   0.75118   0.00000  Uiso   1.00
C807   C     0.83248   0.88345   0.74890   0.00000  Uiso   1.00
C808   C     0.86458   0.59465   0.72211   0.00000  Uiso   1.00
C809   C     0.86065   0.90632   0.78733   0.00000  Uiso   1.00
C810   C     0.86611   0.54872   0.72225   0.00000  Uiso   1.00
C811   C     0.86270   0.95226   0.78730   0.00000  Uiso   1.00
C812   C     0.83639   0.52419   0.75151   0.00000  Uiso   1.00
C813   C     0.83636   0.97592   0.74903   0.00000  Uiso   1.00
C814   C     0.79443   0.63865   0.60764   0.00000  Uiso   1.00
C815   C     0.84835   0.78983   0.55645   0.00000  Uiso   1.00
C816   C     0.74580   0.62034   0.57848   0.00000  Uiso   1.00
C817   C     0.96009   0.78514   0.90034   0.00000  Uiso   1.00
C818   C     0.98477   0.82657   0.92486   0.00000  Uiso   1.00
C819   C     0.78913   0.73414   0.94027   0.00000  Uiso   1.00
C820   C     0.85098   0.78670   0.60728   0.00000  Uiso   1.00
C821   C     0.79280   0.73184   0.89025   0.00000  Uiso   1.00
C822   C     0.81334   0.71472   0.60187   0.00000  Uiso   1.00
C823   C     0.87276   0.76981   0.90024   0.00000  Uiso   1.00
C824   C     0.81417   0.71546   0.55090   0.00000  Uiso   1.00
Cl825  Cl    0.99072   0.79473   0.68570   0.00000  Uiso   1.00
Cl826  Cl    0.67395   0.70201   0.81068   0.00000  Uiso   1.00
Cl827  Cl    0.76655   0.51427   0.81723   0.00000  Uiso   1.00
Cl828  Cl    0.77297   0.98389   0.66283   0.00000  Uiso   1.00
Cl829  Cl    0.76254   0.61833   0.81750   0.00000  Uiso   1.00
Cl830  Cl    0.76649   0.87959   0.66269   0.00000  Uiso   1.00
Cl831  Cl    0.86348   0.84166   0.53194   0.00000  Uiso   1.00
Cl832  Cl    0.73086   0.71643   0.95971   0.00000  Uiso   1.00
Cu833  Cu    0.83333   0.74999   0.79822   0.00000  Uiso   1.00
Cu834  Cu    0.83333   0.75000   0.70179   0.00000  Uiso   1.00
H835   H     0.88795   0.61319   0.69929   0.00000  Uiso   1.00
H836   H     0.82804   0.63558   0.58721   0.00000  Uiso   1.00
H837   H     0.73428   0.64128   0.54624   0.00000  Uiso   1.00
H838   H     0.75237   0.58618   0.56630   0.00000  Uiso   1.00
H839   H     0.71410   0.61935   0.60141   0.00000  Uiso   1.00
H840   H     0.98281   0.77638   0.87085   0.00000  Uiso   1.00
H841   H     0.96329   0.75657   0.92604   0.00000  Uiso   1.00
H842   H     0.69144   0.81957   0.94031   0.00000  Uiso   1.00
H843   H     0.98528   0.85384   0.89794   0.00000  Uiso   1.00
H844   H     0.96323   0.83738   0.95445   0.00000  Uiso   1.00
H845   H     0.88158   0.88855   0.81720   0.00000  Uiso   1.00
H846   H     0.89009   0.53217   0.69920   0.00000  Uiso   1.00
H847   H     0.88444   0.96952   0.81738   0.00000  Uiso   1.00
H848   H     0.86559   0.81474   0.62907   0.00000  Uiso   1.00
H849   H     0.76219   0.71643   0.86674   0.00000  Uiso   1.00
H850   H     0.80089   0.68693   0.52950   0.00000  Uiso   1.00
H851   H     0.90395   0.78418   0.97437   0.00000  Uiso   1.00
H852   H     0.80256   0.61715   0.63996   0.00000  Uiso   1.00
N853   N     0.83333   0.75001   0.62935   0.00000  Uiso   1.00
N854   N     0.83333   0.74999   0.87066   0.00000  Uiso   1.00
O855   O     0.83334   0.68572   0.79072   0.00000  Uiso   1.00
O856   O     0.90951   0.79419   0.87921   0.00000  Uiso   1.00
O857   O     0.83333   0.81427   0.70929   0.00000  Uiso   1.00
O858   O     0.83334   0.68573   0.70928   0.00000  Uiso   1.00
O859   O     0.83333   0.81427   0.79072   0.00000  Uiso   1.00
O860   O     0.75828   0.74999   0.78132   0.00000  Uiso   1.00
O861   O     0.90839   0.75000   0.71868   0.00000  Uiso   1.00
O862   O     0.75828   0.75000   0.69988   0.00000  Uiso   1.00
O863   O     0.90839   0.75000   0.80012   0.00000  Uiso   1.00
O864   O     0.78624   0.68204   0.62393   0.00000  Uiso   1.00
loop_
_geom_bond_atom_site_label_1
_geom_bond_atom_site_label_2
_geom_bond_distance
_geom_bond_site_symmetry_2
_ccdc_geom_bond_type
C1     C14     1.461   .     S
C1     O66     1.298   .     A
C1     O63     1.291   .     A
C2     C4      1.404   .     A
C2     H59     1.079   .     S
C2     C31     1.419   .     A
C3     C23     1.417   .     A
C3     C32     1.404   .     A
C3     C436    1.521   1_554 S
C4     C27     1.418   .     A
C4     C435    1.521   .     S
C5     C7      1.434   .     S
C5     O70     1.292   .     A
C5     O68     1.284   .     A
C6     O69     1.280   .     A
C6     O71     1.294   .     A
C6     C8      1.429   .     S
C7     C152    1.350   1_455 S
C7     Cl177   1.775   1_455 S
C8     C79     1.350   .     S
C8     Cl106   1.766   .     S
C9     C11     1.401   .     A
C9     C20     1.405   .     A
C9     Cl35    1.769   .     S
C10    Cl36    1.769   .     S
C10    C21     1.405   .     A
C10    C13     1.402   .     A
C11    C14     1.413   .     A
C11    Cl37    1.767   .     S
C12    C15     1.462   .     S
C12    O65     1.292   .     A
C12    O67     1.298   .     A
C13    Cl38    1.770   .     S
C13    C15     1.415   .     A
C14    C16     1.400   .     A
C15    C17     1.401   .     A
C16    C18     1.388   .     A
C16    H43     1.084   .     S
C17    C19     1.387   .     A
C17    H53     1.084   .     S
C18    C20     1.397   .     A
C18    H54     1.084   .     S
C19    H55     1.084   .     S
C19    C21     1.397   .     A
C20    C237    1.459   1_545 S
C21    C236    1.459   .     S
C22    C24     1.525   .     S
C22    H60     1.107   .     S
C22    O72     1.417   .     S
C22    H44     1.115   .     S
C23    Cl39    1.762   .     S
C23    C28     1.409   .     A
C24    H46     1.110   .     S
C24    H45     1.109   .     S
C24    H47     1.111   .     S
C25    H48     1.109   .     S
C25    H49     1.115   .     S
C25    C26     1.524   .     S
C25    O64     1.418   .     S
C26    H52     1.109   .     S
C26    H51     1.111   .     S
C26    H122    1.111   .     S
C27    C29     1.408   .     A
C27    Cl40    1.762   .     S
C28    N61     1.365   .     A
C28    H56     1.081   .     S
C29    H57     1.073   .     S
C29    N62     1.362   .     A
C30    C32     1.420   .     A
C30    N61     1.373   .     A
C30    O72     1.391   .     S
C31    N62     1.373   .     A
C31    O64     1.389   .     S
C32    H58     1.078   .     S
Cl33   C79     1.775   .     S
Cl34   C152    1.766   1_455 S
Cu41   Cu42    2.682   .     S
Cu41   O71     1.970   .     S
Cu41   O67     1.951   .     S
Cu41   N62     2.014   .     S
Cu41   O68     1.974   .     S
Cu41   O63     1.953   .     S
Cu42   N61     2.014   .     S
Cu42   O70     1.970   .     S
Cu42   O66     1.951   .     S
Cu42   O65     1.953   .     S
Cu42   O69     1.974   .     S
H50    C170    1.111   1_455 S
C73    C86     1.461   .     S
C73    O138    1.298   .     A
C73    O135    1.291   .     A
C74    C76     1.404   .     A
C74    H131    1.079   .     S
C74    C103    1.419   .     A
C75    C95     1.417   .     A
C75    C104    1.404   .     A
C75    C508    1.521   1_554 S
C76    C99     1.418   .     A
C76    C507    1.521   .     S
C77    C79     1.434   .     S
C77    O142    1.292   .     A
C77    O140    1.284   .     A
C78    O141    1.280   .     A
C78    O143    1.294   .     A
C78    C80     1.429   .     S
C80    C151    1.350   .     S
C80    Cl178   1.766   .     S
C81    C83     1.401   .     A
C81    C92     1.405   .     A
C81    Cl107   1.769   .     S
C82    Cl108   1.769   .     S
C82    C93     1.405   .     A
C82    C85     1.402   .     A
C83    C86     1.413   .     A
C83    Cl109   1.767   .     S
C84    C87     1.462   .     S
C84    O137    1.292   .     A
C84    O139    1.298   .     A
C85    Cl110   1.770   .     S
C85    C87     1.415   .     A
C86    C88     1.400   .     A
C87    C89     1.401   .     A
C88    C90     1.388   .     A
C88    H115    1.084   .     S
C89    C91     1.387   .     A
C89    H125    1.084   .     S
C90    C92     1.397   .     A
C90    H126    1.084   .     S
C91    H127    1.084   .     S
C91    C93     1.397   .     A
C92    C309    1.459   1_545 S
C93    C308    1.459   .     S
C94    C96     1.525   .     S
C94    H132    1.107   .     S
C94    O144    1.417   .     S
C94    H116    1.115   .     S
C95    Cl111   1.762   .     S
C95    C100    1.409   .     A
C96    H118    1.110   .     S
C96    H117    1.109   .     S
C96    H119    1.111   .     S
C97    H120    1.109   .     S
C97    H121    1.115   .     S
C97    C98     1.524   .     S
C97    O136    1.418   .     S
C98    H124    1.109   .     S
C98    H123    1.111   .     S
C98    H194    1.111   .     S
C99    C101    1.408   .     A
C99    Cl112   1.762   .     S
C100   N133    1.365   .     A
C100   H128    1.081   .     S
C101   H129    1.073   .     S
C101   N134    1.362   .     A
C102   C104    1.420   .     A
C102   N133    1.373   .     A
C102   O144    1.391   .     S
C103   N134    1.373   .     A
C103   O136    1.389   .     S
C104   H130    1.078   .     S
Cl105  C151    1.775   .     S
Cu113  Cu114   2.682   .     S
Cu113  O143    1.970   .     S
Cu113  O139    1.951   .     S
Cu113  N134    2.014   .     S
Cu113  O140    1.974   .     S
Cu113  O135    1.953   .     S
Cu114  N133    2.014   .     S
Cu114  O142    1.970   .     S
Cu114  O138    1.951   .     S
Cu114  O137    1.953   .     S
Cu114  O141    1.974   .     S
C145   C158    1.461   .     S
C145   O210    1.298   .     A
C145   O207    1.291   .     A
C146   C148    1.404   .     A
C146   H203    1.079   .     S
C146   C175    1.419   .     A
C147   C167    1.417   .     A
C147   C176    1.404   .     A
C147   C580    1.521   1_554 S
C148   C171    1.418   .     A
C148   C579    1.521   .     S
C149   C151    1.434   .     S
C149   O214    1.292   .     A
C149   O212    1.284   .     A
C150   O213    1.280   .     A
C150   O215    1.294   .     A
C150   C152    1.429   .     S
C152   C7      1.350   1_655 S
C152   Cl34    1.766   1_655 S
C153   C155    1.401   .     A
C153   C164    1.405   .     A
C153   Cl179   1.769   .     S
C154   Cl180   1.769   .     S
C154   C165    1.405   .     A
C154   C157    1.402   .     A
C155   C158    1.413   .     A
C155   Cl181   1.767   .     S
C156   C159    1.462   .     S
C156   O209    1.292   .     A
C156   O211    1.298   .     A
C157   Cl182   1.770   .     S
C157   C159    1.415   .     A
C158   C160    1.400   .     A
C159   C161    1.401   .     A
C160   C162    1.388   .     A
C160   H187    1.084   .     S
C161   C163    1.387   .     A
C161   H197    1.084   .     S
C162   C164    1.397   .     A
C162   H198    1.084   .     S
C163   H199    1.084   .     S
C163   C165    1.397   .     A
C164   C381    1.459   1_545 S
C165   C380    1.459   .     S
C166   C168    1.525   .     S
C166   H204    1.107   .     S
C166   O216    1.417   .     S
C166   H188    1.115   .     S
C167   Cl183   1.762   .     S
C167   C172    1.409   .     A
C168   H190    1.110   .     S
C168   H189    1.109   .     S
C168   H191    1.111   .     S
C169   H192    1.109   .     S
C169   H193    1.115   .     S
C169   C170    1.524   .     S
C169   O208    1.418   .     S
C170   H196    1.109   .     S
C170   H195    1.111   .     S
C170   H50     1.111   1_655 S
C171   C173    1.408   .     A
C171   Cl184   1.762   .     S
C172   N205    1.365   .     A
C172   H200    1.081   .     S
C173   H201    1.073   .     S
C173   N206    1.362   .     A
C174   C176    1.420   .     A
C174   N205    1.373   .     A
C174   O216    1.391   .     S
C175   N206    1.373   .     A
C175   O208    1.389   .     S
C176   H202    1.078   .     S
Cl177  C7      1.775   1_655 S
Cu185  Cu186   2.682   .     S
Cu185  O215    1.970   .     S
Cu185  O211    1.951   .     S
Cu185  N206    2.014   .     S
Cu185  O212    1.974   .     S
Cu185  O207    1.953   .     S
Cu186  N205    2.014   .     S
Cu186  O214    1.970   .     S
Cu186  O210    1.951   .     S
Cu186  O209    1.953   .     S
Cu186  O213    1.974   .     S
C217   C230    1.461   .     S
C217   O282    1.298   .     A
C217   O279    1.291   .     A
C218   C220    1.404   .     A
C218   H275    1.079   .     S
C218   C247    1.419   .     A
C219   C239    1.417   .     A
C219   C248    1.404   .     A
C219   C652    1.521   1_554 S
C220   C243    1.418   .     A
C220   C651    1.521   .     S
C221   C223    1.434   .     S
C221   O286    1.292   .     A
C221   O284    1.284   .     A
C222   O285    1.280   .     A
C222   O287    1.294   .     A
C222   C224    1.429   .     S
C223   C368    1.350   1_455 S
C223   Cl393   1.775   1_455 S
C224   C295    1.350   .     S
C224   Cl322   1.766   .     S
C225   C227    1.401   .     A
C225   C236    1.405   .     A
C225   Cl251   1.769   .     S
C226   Cl252   1.769   .     S
C226   C237    1.405   .     A
C226   C229    1.402   .     A
C227   C230    1.413   .     A
C227   Cl253   1.767   .     S
C228   C231    1.462   .     S
C228   O281    1.292   .     A
C228   O283    1.298   .     A
C229   Cl254   1.770   .     S
C229   C231    1.415   .     A
C230   C232    1.400   .     A
C231   C233    1.401   .     A
C232   C234    1.388   .     A
C232   H259    1.084   .     S
C233   C235    1.387   .     A
C233   H269    1.084   .     S
C234   C236    1.397   .     A
C234   H270    1.084   .     S
C235   H271    1.084   .     S
C235   C237    1.397   .     A
C237   C20     1.459   1_565 S
C238   C240    1.525   .     S
C238   H276    1.107   .     S
C238   O288    1.417   .     S
C238   H260    1.115   .     S
C239   Cl255   1.762   .     S
C239   C244    1.409   .     A
C240   H262    1.110   .     S
C240   H261    1.109   .     S
C240   H263    1.111   .     S
C241   H264    1.109   .     S
C241   H265    1.115   .     S
C241   C242    1.524   .     S
C241   O280    1.418   .     S
C242   H268    1.109   .     S
C242   H267    1.111   .     S
C242   H338    1.111   .     S
C243   C245    1.408   .     A
C243   Cl256   1.762   .     S
C244   N277    1.365   .     A
C244   H272    1.081   .     S
C245   H273    1.073   .     S
C245   N278    1.362   .     A
C246   C248    1.420   .     A
C246   N277    1.373   .     A
C246   O288    1.391   .     S
C247   N278    1.373   .     A
C247   O280    1.389   .     S
C248   H274    1.078   .     S
Cl249  C295    1.775   .     S
Cl250  C368    1.766   1_455 S
Cu257  Cu258   2.682   .     S
Cu257  O287    1.970   .     S
Cu257  O283    1.951   .     S
Cu257  N278    2.014   .     S
Cu257  O284    1.974   .     S
Cu257  O279    1.953   .     S
Cu258  N277    2.014   .     S
Cu258  O286    1.970   .     S
Cu258  O282    1.951   .     S
Cu258  O281    1.953   .     S
Cu258  O285    1.974   .     S
H266   C386    1.111   1_455 S
C289   C302    1.461   .     S
C289   O354    1.298   .     A
C289   O351    1.291   .     A
C290   C292    1.404   .     A
C290   H347    1.079   .     S
C290   C319    1.419   .     A
C291   C311    1.417   .     A
C291   C320    1.404   .     A
C291   C724    1.521   1_554 S
C292   C315    1.418   .     A
C292   C723    1.521   .     S
C293   C295    1.434   .     S
C293   O358    1.292   .     A
C293   O356    1.284   .     A
C294   O357    1.280   .     A
C294   O359    1.294   .     A
C294   C296    1.429   .     S
C296   C367    1.350   .     S
C296   Cl394   1.766   .     S
C297   C299    1.401   .     A
C297   C308    1.405   .     A
C297   Cl323   1.769   .     S
C298   Cl324   1.769   .     S
C298   C309    1.405   .     A
C298   C301    1.402   .     A
C299   C302    1.413   .     A
C299   Cl325   1.767   .     S
C300   C303    1.462   .     S
C300   O353    1.292   .     A
C300   O355    1.298   .     A
C301   Cl326   1.770   .     S
C301   C303    1.415   .     A
C302   C304    1.400   .     A
C303   C305    1.401   .     A
C304   C306    1.388   .     A
C304   H331    1.084   .     S
C305   C307    1.387   .     A
C305   H341    1.084   .     S
C306   C308    1.397   .     A
C306   H342    1.084   .     S
C307   H343    1.084   .     S
C307   C309    1.397   .     A
C309   C92     1.459   1_565 S
C310   C312    1.525   .     S
C310   H348    1.107   .     S
C310   O360    1.417   .     S
C310   H332    1.115   .     S
C311   Cl327   1.762   .     S
C311   C316    1.409   .     A
C312   H334    1.110   .     S
C312   H333    1.109   .     S
C312   H335    1.111   .     S
C313   H336    1.109   .     S
C313   H337    1.115   .     S
C313   C314    1.524   .     S
C313   O352    1.418   .     S
C314   H340    1.109   .     S
C314   H339    1.111   .     S
C314   H410    1.111   .     S
C315   C317    1.408   .     A
C315   Cl328   1.762   .     S
C316   N349    1.365   .     A
C316   H344    1.081   .     S
C317   H345    1.073   .     S
C317   N350    1.362   .     A
C318   C320    1.420   .     A
C318   N349    1.373   .     A
C318   O360    1.391   .     S
C319   N350    1.373   .     A
C319   O352    1.389   .     S
C320   H346    1.078   .     S
Cl321  C367    1.775   .     S
Cu329  Cu330   2.682   .     S
Cu329  O359    1.970   .     S
Cu329  O355    1.951   .     S
Cu329  N350    2.014   .     S
Cu329  O356    1.974   .     S
Cu329  O351    1.953   .     S
Cu330  N349    2.014   .     S
Cu330  O358    1.970   .     S
Cu330  O354    1.951   .     S
Cu330  O353    1.953   .     S
Cu330  O357    1.974   .     S
C361   C374    1.461   .     S
C361   O426    1.298   .     A
C361   O423    1.291   .     A
C362   C364    1.404   .     A
C362   H419    1.079   .     S
C362   C391    1.419   .     A
C363   C383    1.417   .     A
C363   C392    1.404   .     A
C363   C796    1.521   1_554 S
C364   C387    1.418   .     A
C364   C795    1.521   .     S
C365   C367    1.434   .     S
C365   O430    1.292   .     A
C365   O428    1.284   .     A
C366   O429    1.280   .     A
C366   O431    1.294   .     A
C366   C368    1.429   .     S
C368   C223    1.350   1_655 S
C368   Cl250   1.766   1_655 S
C369   C371    1.401   .     A
C369   C380    1.405   .     A
C369   Cl395   1.769   .     S
C370   Cl396   1.769   .     S
C370   C381    1.405   .     A
C370   C373    1.402   .     A
C371   C374    1.413   .     A
C371   Cl397   1.767   .     S
C372   C375    1.462   .     S
C372   O425    1.292   .     A
C372   O427    1.298   .     A
C373   Cl398   1.770   .     S
C373   C375    1.415   .     A
C374   C376    1.400   .     A
C375   C377    1.401   .     A
C376   C378    1.388   .     A
C376   H403    1.084   .     S
C377   C379    1.387   .     A
C377   H413    1.084   .     S
C378   C380    1.397   .     A
C378   H414    1.084   .     S
C379   H415    1.084   .     S
C379   C381    1.397   .     A
C381   C164    1.459   1_565 S
C382   C384    1.525   .     S
C382   H420    1.107   .     S
C382   O432    1.417   .     S
C382   H404    1.115   .     S
C383   Cl399   1.762   .     S
C383   C388    1.409   .     A
C384   H406    1.110   .     S
C384   H405    1.109   .     S
C384   H407    1.111   .     S
C385   H408    1.109   .     S
C385   H409    1.115   .     S
C385   C386    1.524   .     S
C385   O424    1.418   .     S
C386   H412    1.109   .     S
C386   H411    1.111   .     S
C386   H266    1.111   1_655 S
C387   C389    1.408   .     A
C387   Cl400   1.762   .     S
C388   N421    1.365   .     A
C388   H416    1.081   .     S
C389   H417    1.073   .     S
C389   N422    1.362   .     A
C390   C392    1.420   .     A
C390   N421    1.373   .     A
C390   O432    1.391   .     S
C391   N422    1.373   .     A
C391   O424    1.389   .     S
C392   H418    1.078   .     S
Cl393  C223    1.775   1_655 S
Cu401  Cu402   2.682   .     S
Cu401  O431    1.970   .     S
Cu401  O427    1.951   .     S
Cu401  N422    2.014   .     S
Cu401  O428    1.974   .     S
Cu401  O423    1.953   .     S
Cu402  N421    2.014   .     S
Cu402  O430    1.970   .     S
Cu402  O426    1.951   .     S
Cu402  O425    1.953   .     S
Cu402  O429    1.974   .     S
C433   C446    1.461   .     S
C433   O498    1.298   .     A
C433   O495    1.291   .     A
C434   C436    1.404   .     A
C434   H491    1.079   .     S
C434   C463    1.419   .     A
C435   C455    1.417   .     A
C435   C464    1.404   .     A
C436   C459    1.418   .     A
C436   C3      1.521   1_556 S
C437   C439    1.434   .     S
C437   O502    1.292   .     A
C437   O500    1.284   .     A
C438   O501    1.280   .     A
C438   O503    1.294   .     A
C438   C440    1.429   .     S
C439   C584    1.350   1_455 S
C439   Cl609   1.775   1_455 S
C440   C511    1.350   .     S
C440   Cl538   1.766   .     S
C441   C443    1.401   .     A
C441   C452    1.405   .     A
C441   Cl467   1.769   .     S
C442   Cl468   1.769   .     S
C442   C453    1.405   .     A
C442   C445    1.402   .     A
C443   C446    1.413   .     A
C443   Cl469   1.767   .     S
C444   C447    1.462   .     S
C444   O497    1.292   .     A
C444   O499    1.298   .     A
C445   Cl470   1.770   .     S
C445   C447    1.415   .     A
C446   C448    1.400   .     A
C447   C449    1.401   .     A
C448   C450    1.388   .     A
C448   H475    1.084   .     S
C449   C451    1.387   .     A
C449   H485    1.084   .     S
C450   C452    1.397   .     A
C450   H486    1.084   .     S
C451   H487    1.084   .     S
C451   C453    1.397   .     A
C452   C669    1.459   1_545 S
C453   C668    1.459   .     S
C454   C456    1.525   .     S
C454   H492    1.107   .     S
C454   O504    1.417   .     S
C454   H476    1.115   .     S
C455   Cl471   1.762   .     S
C455   C460    1.409   .     A
C456   H478    1.110   .     S
C456   H477    1.109   .     S
C456   H479    1.111   .     S
C457   H480    1.109   .     S
C457   H481    1.115   .     S
C457   C458    1.524   .     S
C457   O496    1.418   .     S
C458   H484    1.109   .     S
C458   H483    1.111   .     S
C458   H554    1.111   .     S
C459   C461    1.408   .     A
C459   Cl472   1.762   .     S
C460   N493    1.365   .     A
C460   H488    1.081   .     S
C461   H489    1.073   .     S
C461   N494    1.362   .     A
C462   C464    1.420   .     A
C462   N493    1.373   .     A
C462   O504    1.391   .     S
C463   N494    1.373   .     A
C463   O496    1.389   .     S
C464   H490    1.078   .     S
Cl465  C511    1.775   .     S
Cl466  C584    1.766   1_455 S
Cu473  Cu474   2.682   .     S
Cu473  O503    1.970   .     S
Cu473  O499    1.951   .     S
Cu473  N494    2.014   .     S
Cu473  O500    1.974   .     S
Cu473  O495    1.953   .     S
Cu474  N493    2.014   .     S
Cu474  O502    1.970   .     S
Cu474  O498    1.951   .     S
Cu474  O497    1.953   .     S
Cu474  O501    1.974   .     S
H482   C602    1.111   1_455 S
C505   C518    1.461   .     S
C505   O570    1.298   .     A
C505   O567    1.291   .     A
C506   C508    1.404   .     A
C506   H563    1.079   .     S
C506   C535    1.419   .     A
C507   C527    1.417   .     A
C507   C536    1.404   .     A
C508   C531    1.418   .     A
C508   C75     1.521   1_556 S
C509   C511    1.434   .     S
C509   O574    1.292   .     A
C509   O572    1.284   .     A
C510   O573    1.280   .     A
C510   O575    1.294   .     A
C510   C512    1.429   .     S
C512   C583    1.350   .     S
C512   Cl610   1.766   .     S
C513   C515    1.401   .     A
C513   C524    1.405   .     A
C513   Cl539   1.769   .     S
C514   Cl540   1.769   .     S
C514   C525    1.405   .     A
C514   C517    1.402   .     A
C515   C518    1.413   .     A
C515   Cl541   1.767   .     S
C516   C519    1.462   .     S
C516   O569    1.292   .     A
C516   O571    1.298   .     A
C517   Cl542   1.770   .     S
C517   C519    1.415   .     A
C518   C520    1.400   .     A
C519   C521    1.401   .     A
C520   C522    1.388   .     A
C520   H547    1.084   .     S
C521   C523    1.387   .     A
C521   H557    1.084   .     S
C522   C524    1.397   .     A
C522   H558    1.084   .     S
C523   H559    1.084   .     S
C523   C525    1.397   .     A
C524   C741    1.459   1_545 S
C525   C740    1.459   .     S
C526   C528    1.525   .     S
C526   H564    1.107   .     S
C526   O576    1.417   .     S
C526   H548    1.115   .     S
C527   Cl543   1.762   .     S
C527   C532    1.409   .     A
C528   H550    1.110   .     S
C528   H549    1.109   .     S
C528   H551    1.111   .     S
C529   H552    1.109   .     S
C529   H553    1.115   .     S
C529   C530    1.524   .     S
C529   O568    1.418   .     S
C530   H556    1.109   .     S
C530   H555    1.111   .     S
C530   H626    1.111   .     S
C531   C533    1.408   .     A
C531   Cl544   1.762   .     S
C532   N565    1.365   .     A
C532   H560    1.081   .     S
C533   H561    1.073   .     S
C533   N566    1.362   .     A
C534   C536    1.420   .     A
C534   N565    1.373   .     A
C534   O576    1.391   .     S
C535   N566    1.373   .     A
C535   O568    1.389   .     S
C536   H562    1.078   .     S
Cl537  C583    1.775   .     S
Cu545  Cu546   2.682   .     S
Cu545  O575    1.970   .     S
Cu545  O571    1.951   .     S
Cu545  N566    2.014   .     S
Cu545  O572    1.974   .     S
Cu545  O567    1.953   .     S
Cu546  N565    2.014   .     S
Cu546  O574    1.970   .     S
Cu546  O570    1.951   .     S
Cu546  O569    1.953   .     S
Cu546  O573    1.974   .     S
C577   C590    1.461   .     S
C577   O642    1.298   .     A
C577   O639    1.291   .     A
C578   C580    1.404   .     A
C578   H635    1.079   .     S
C578   C607    1.419   .     A
C579   C599    1.417   .     A
C579   C608    1.404   .     A
C580   C603    1.418   .     A
C580   C147    1.521   1_556 S
C581   C583    1.434   .     S
C581   O646    1.292   .     A
C581   O644    1.284   .     A
C582   O645    1.280   .     A
C582   O647    1.294   .     A
C582   C584    1.429   .     S
C584   C439    1.350   1_655 S
C584   Cl466   1.766   1_655 S
C585   C587    1.401   .     A
C585   C596    1.405   .     A
C585   Cl611   1.769   .     S
C586   Cl612   1.769   .     S
C586   C597    1.405   .     A
C586   C589    1.402   .     A
C587   C590    1.413   .     A
C587   Cl613   1.767   .     S
C588   C591    1.462   .     S
C588   O641    1.292   .     A
C588   O643    1.298   .     A
C589   Cl614   1.770   .     S
C589   C591    1.415   .     A
C590   C592    1.400   .     A
C591   C593    1.401   .     A
C592   C594    1.388   .     A
C592   H619    1.084   .     S
C593   C595    1.387   .     A
C593   H629    1.084   .     S
C594   C596    1.397   .     A
C594   H630    1.084   .     S
C595   H631    1.084   .     S
C595   C597    1.397   .     A
C596   C813    1.459   1_545 S
C597   C812    1.459   .     S
C598   C600    1.525   .     S
C598   H636    1.107   .     S
C598   O648    1.417   .     S
C598   H620    1.115   .     S
C599   Cl615   1.762   .     S
C599   C604    1.409   .     A
C600   H622    1.110   .     S
C600   H621    1.109   .     S
C600   H623    1.111   .     S
C601   H624    1.109   .     S
C601   H625    1.115   .     S
C601   C602    1.524   .     S
C601   O640    1.418   .     S
C602   H628    1.109   .     S
C602   H627    1.111   .     S
C602   H482    1.111   1_655 S
C603   C605    1.408   .     A
C603   Cl616   1.762   .     S
C604   N637    1.365   .     A
C604   H632    1.081   .     S
C605   H633    1.073   .     S
C605   N638    1.362   .     A
C606   C608    1.420   .     A
C606   N637    1.373   .     A
C606   O648    1.391   .     S
C607   N638    1.373   .     A
C607   O640    1.389   .     S
C608   H634    1.078   .     S
Cl609  C439    1.775   1_655 S
Cu617  Cu618   2.682   .     S
Cu617  O647    1.970   .     S
Cu617  O643    1.951   .     S
Cu617  N638    2.014   .     S
Cu617  O644    1.974   .     S
Cu617  O639    1.953   .     S
Cu618  N637    2.014   .     S
Cu618  O646    1.970   .     S
Cu618  O642    1.951   .     S
Cu618  O641    1.953   .     S
Cu618  O645    1.974   .     S
C649   C662    1.461   .     S
C649   O714    1.298   .     A
C649   O711    1.291   .     A
C650   C652    1.404   .     A
C650   H707    1.079   .     S
C650   C679    1.419   .     A
C651   C671    1.417   .     A
C651   C680    1.404   .     A
C652   C675    1.418   .     A
C652   C219    1.521   1_556 S
C653   C655    1.434   .     S
C653   O718    1.292   .     A
C653   O716    1.284   .     A
C654   O717    1.280   .     A
C654   O719    1.294   .     A
C654   C656    1.429   .     S
C655   C800    1.350   1_455 S
C655   Cl825   1.775   1_455 S
C656   C727    1.350   .     S
C656   Cl754   1.766   .     S
C657   C659    1.401   .     A
C657   C668    1.405   .     A
C657   Cl683   1.769   .     S
C658   Cl684   1.769   .     S
C658   C669    1.405   .     A
C658   C661    1.402   .     A
C659   C662    1.413   .     A
C659   Cl685   1.767   .     S
C660   C663    1.462   .     S
C660   O713    1.292   .     A
C660   O715    1.298   .     A
C661   Cl686   1.770   .     S
C661   C663    1.415   .     A
C662   C664    1.400   .     A
C663   C665    1.401   .     A
C664   C666    1.388   .     A
C664   H691    1.084   .     S
C665   C667    1.387   .     A
C665   H701    1.084   .     S
C666   C668    1.397   .     A
C666   H702    1.084   .     S
C667   H703    1.084   .     S
C667   C669    1.397   .     A
C669   C452    1.459   1_565 S
C670   C672    1.525   .     S
C670   H708    1.107   .     S
C670   O720    1.417   .     S
C670   H692    1.115   .     S
C671   Cl687   1.762   .     S
C671   C676    1.409   .     A
C672   H694    1.110   .     S
C672   H693    1.109   .     S
C672   H695    1.111   .     S
C673   H696    1.109   .     S
C673   H697    1.115   .     S
C673   C674    1.524   .     S
C673   O712    1.418   .     S
C674   H700    1.109   .     S
C674   H699    1.111   .     S
C674   H770    1.111   .     S
C675   C677    1.408   .     A
C675   Cl688   1.762   .     S
C676   N709    1.365   .     A
C676   H704    1.081   .     S
C677   H705    1.073   .     S
C677   N710    1.362   .     A
C678   C680    1.420   .     A
C678   N709    1.373   .     A
C678   O720    1.391   .     S
C679   N710    1.373   .     A
C679   O712    1.389   .     S
C680   H706    1.078   .     S
Cl681  C727    1.775   .     S
Cl682  C800    1.766   1_455 S
Cu689  Cu690   2.682   .     S
Cu689  O719    1.970   .     S
Cu689  O715    1.951   .     S
Cu689  N710    2.014   .     S
Cu689  O716    1.974   .     S
Cu689  O711    1.953   .     S
Cu690  N709    2.014   .     S
Cu690  O718    1.970   .     S
Cu690  O714    1.951   .     S
Cu690  O713    1.953   .     S
Cu690  O717    1.974   .     S
H698   C818    1.111   1_455 S
C721   C734    1.461   .     S
C721   O786    1.298   .     A
C721   O783    1.291   .     A
C722   C724    1.404   .     A
C722   H779    1.079   .     S
C722   C751    1.419   .     A
C723   C743    1.417   .     A
C723   C752    1.404   .     A
C724   C747    1.418   .     A
C724   C291    1.521   1_556 S
C725   C727    1.434   .     S
C725   O790    1.292   .     A
C725   O788    1.284   .     A
C726   O789    1.280   .     A
C726   O791    1.294   .     A
C726   C728    1.429   .     S
C728   C799    1.350   .     S
C728   Cl826   1.766   .     S
C729   C731    1.401   .     A
C729   C740    1.405   .     A
C729   Cl755   1.769   .     S
C730   Cl756   1.769   .     S
C730   C741    1.405   .     A
C730   C733    1.402   .     A
C731   C734    1.413   .     A
C731   Cl757   1.767   .     S
C732   C735    1.462   .     S
C732   O785    1.292   .     A
C732   O787    1.298   .     A
C733   Cl758   1.770   .     S
C733   C735    1.415   .     A
C734   C736    1.400   .     A
C735   C737    1.401   .     A
C736   C738    1.388   .     A
C736   H763    1.084   .     S
C737   C739    1.387   .     A
C737   H773    1.084   .     S
C738   C740    1.397   .     A
C738   H774    1.084   .     S
C739   H775    1.084   .     S
C739   C741    1.397   .     A
C741   C524    1.459   1_565 S
C742   C744    1.525   .     S
C742   H780    1.107   .     S
C742   O792    1.417   .     S
C742   H764    1.115   .     S
C743   Cl759   1.762   .     S
C743   C748    1.409   .     A
C744   H766    1.110   .     S
C744   H765    1.109   .     S
C744   H767    1.111   .     S
C745   H768    1.109   .     S
C745   H769    1.115   .     S
C745   C746    1.524   .     S
C745   O784    1.418   .     S
C746   H772    1.109   .     S
C746   H771    1.111   .     S
C746   H842    1.111   .     S
C747   C749    1.408   .     A
C747   Cl760   1.762   .     S
C748   N781    1.365   .     A
C748   H776    1.081   .     S
C749   H777    1.073   .     S
C749   N782    1.362   .     A
C750   C752    1.420   .     A
C750   N781    1.373   .     A
C750   O792    1.391   .     S
C751   N782    1.373   .     A
C751   O784    1.389   .     S
C752   H778    1.078   .     S
Cl753  C799    1.775   .     S
Cu761  Cu762   2.682   .     S
Cu761  O791    1.970   .     S
Cu761  O787    1.951   .     S
Cu761  N782    2.014   .     S
Cu761  O788    1.974   .     S
Cu761  O783    1.953   .     S
Cu762  N781    2.014   .     S
Cu762  O790    1.970   .     S
Cu762  O786    1.951   .     S
Cu762  O785    1.953   .     S
Cu762  O789    1.974   .     S
C793   C806    1.461   .     S
C793   O858    1.298   .     A
C793   O855    1.291   .     A
C794   C796    1.404   .     A
C794   H851    1.079   .     S
C794   C823    1.419   .     A
C795   C815    1.417   .     A
C795   C824    1.404   .     A
C796   C819    1.418   .     A
C796   C363    1.521   1_556 S
C797   C799    1.434   .     S
C797   O862    1.292   .     A
C797   O860    1.284   .     A
C798   O861    1.280   .     A
C798   O863    1.294   .     A
C798   C800    1.429   .     S
C800   C655    1.350   1_655 S
C800   Cl682   1.766   1_655 S
C801   C803    1.401   .     A
C801   C812    1.405   .     A
C801   Cl827   1.769   .     S
C802   Cl828   1.769   .     S
C802   C813    1.405   .     A
C802   C805    1.402   .     A
C803   C806    1.413   .     A
C803   Cl829   1.767   .     S
C804   C807    1.462   .     S
C804   O857    1.292   .     A
C804   O859    1.298   .     A
C805   Cl830   1.770   .     S
C805   C807    1.415   .     A
C806   C808    1.400   .     A
C807   C809    1.401   .     A
C808   C810    1.388   .     A
C808   H835    1.084   .     S
C809   C811    1.387   .     A
C809   H845    1.084   .     S
C810   C812    1.397   .     A
C810   H846    1.084   .     S
C811   H847    1.084   .     S
C811   C813    1.397   .     A
C813   C596    1.459   1_565 S
C814   C816    1.525   .     S
C814   H852    1.107   .     S
C814   O864    1.417   .     S
C814   H836    1.115   .     S
C815   Cl831   1.762   .     S
C815   C820    1.409   .     A
C816   H838    1.110   .     S
C816   H837    1.109   .     S
C816   H839    1.111   .     S
C817   H840    1.109   .     S
C817   H841    1.115   .     S
C817   C818    1.524   .     S
C817   O856    1.418   .     S
C818   H844    1.109   .     S
C818   H843    1.111   .     S
C818   H698    1.111   1_655 S
C819   C821    1.408   .     A
C819   Cl832   1.762   .     S
C820   N853    1.365   .     A
C820   H848    1.081   .     S
C821   H849    1.073   .     S
C821   N854    1.362   .     A
C822   C824    1.420   .     A
C822   N853    1.373   .     A
C822   O864    1.391   .     S
C823   N854    1.373   .     A
C823   O856    1.389   .     S
C824   H850    1.078   .     S
Cl825  C655    1.775   1_655 S
Cu833  Cu834   2.682   .     S
Cu833  O863    1.970   .     S
Cu833  O859    1.951   .     S
Cu833  N854    2.014   .     S
Cu833  O860    1.974   .     S
Cu833  O855    1.953   .     S
Cu834  N853    2.014   .     S
Cu834  O862    1.970   .     S
Cu834  O858    1.951   .     S
Cu834  O857    1.953   .     S
Cu834  O861    1.974   .     S
