data_str_m3_o5_o17_pcu_sym.18
_audit_creation_date              2020-01-03
_audit_creation_method            'Materials Studio'
_symmetry_space_group_name_H-M    'P1'
_symmetry_Int_Tables_number       1
_symmetry_cell_setting            triclinic
loop_
_symmetry_equiv_pos_as_xyz
  x,y,z
_cell_length_a                    30.0254
_cell_length_b                    26.7598
_cell_length_c                    24.3599
_cell_angle_alpha                 89.8596
_cell_angle_beta                  90.0000
_cell_angle_gamma                 90.0000
loop_
_atom_site_label
_atom_site_type_symbol
_atom_site_fract_x
_atom_site_fract_y
_atom_site_fract_z
_atom_site_U_iso_or_equiv
_atom_site_adp_type
_atom_site_occupancy
O1     O     0.25000   0.09512   0.21228   0.00000  Uiso   1.00
O2     O     0.25000   0.23822   0.12105   0.00000  Uiso   1.00
O3     O     0.25000   0.23822   0.21228   0.00000  Uiso   1.00
O4     O     0.25000   0.09512   0.12105   0.00000  Uiso   1.00
C5     C     0.25000   0.07269   0.16671   0.00000  Uiso   1.00
C6     C     0.25000   0.26064   0.16663   0.00000  Uiso   1.00
O7     O     0.18392   0.16667   0.21230   0.00000  Uiso   1.00
O8     O     0.31607   0.16667   0.12104   0.00000  Uiso   1.00
O9     O     0.31607   0.16667   0.21230   0.00000  Uiso   1.00
O10    O     0.18392   0.16667   0.12104   0.00000  Uiso   1.00
C11    C     0.16349   0.16667   0.16667   0.00000  Uiso   1.00
C12    C     0.33651   0.16667   0.16667   0.00000  Uiso   1.00
Zn13   Zn    0.25000   0.16667   0.22759   0.00000  Uiso   1.00
Zn14   Zn    0.25000   0.16667   0.10574   0.00000  Uiso   1.00
N15    N     0.25000   0.16667   0.02455   0.00000  Uiso   1.00
N16    N     0.25000   0.16667   0.30879   0.00000  Uiso   1.00
C17    C     0.40643   0.21227   0.17384   0.00000  Uiso   1.00
C18    C     0.09358   0.12106   0.15950   0.00000  Uiso   1.00
C19    C     0.40642   0.12106   0.15950   0.00000  Uiso   1.00
C20    C     0.09357   0.21227   0.17384   0.00000  Uiso   1.00
C21    C     0.38403   0.16667   0.16667   0.00000  Uiso   1.00
C22    C     0.11597   0.16667   0.16667   0.00000  Uiso   1.00
C23    C     0.45306   0.12184   0.15466   0.00000  Uiso   1.00
C24    C     0.04693   0.21149   0.17868   0.00000  Uiso   1.00
C25    C     0.45307   0.21149   0.17868   0.00000  Uiso   1.00
C26    C     0.04693   0.12184   0.15466   0.00000  Uiso   1.00
C27    C     0.47649   0.16666   0.16667   0.00000  Uiso   1.00
C28    C     0.02351   0.16666   0.16667   0.00000  Uiso   1.00
C29    C     0.47705   0.07917   0.13825   0.00000  Uiso   1.00
C30    C     0.02295   0.25416   0.19510   0.00000  Uiso   1.00
C31    C     0.47705   0.25416   0.19510   0.00000  Uiso   1.00
C32    C     0.02295   0.07917   0.13825   0.00000  Uiso   1.00
C33    C     0.25000   0.02174   0.16672   0.00000  Uiso   1.00
C34    C     0.25000   0.31159   0.16661   0.00000  Uiso   1.00
F35    F     0.45681   0.03726   0.11929   0.00000  Uiso   1.00
F36    F     0.04319   0.29606   0.21407   0.00000  Uiso   1.00
F37    F     0.45681   0.29606   0.21406   0.00000  Uiso   1.00
F38    F     0.04319   0.03726   0.11929   0.00000  Uiso   1.00
C39    C     0.38063   0.26134   0.17436   0.00000  Uiso   1.00
H40    H     0.34627   0.25818   0.15835   0.00000  Uiso   1.00
H41    H     0.37840   0.27598   0.21686   0.00000  Uiso   1.00
H42    H     0.39712   0.28891   0.14696   0.00000  Uiso   1.00
C43    C     0.11937   0.07199   0.15897   0.00000  Uiso   1.00
H44    H     0.15374   0.07515   0.17497   0.00000  Uiso   1.00
H45    H     0.10289   0.04442   0.18638   0.00000  Uiso   1.00
H46    H     0.12159   0.05735   0.11647   0.00000  Uiso   1.00
C47    C     0.38063   0.07199   0.15897   0.00000  Uiso   1.00
H48    H     0.34626   0.07515   0.17497   0.00000  Uiso   1.00
H49    H     0.37840   0.05735   0.11647   0.00000  Uiso   1.00
H50    H     0.39711   0.04442   0.18638   0.00000  Uiso   1.00
C51    C     0.11937   0.26134   0.17436   0.00000  Uiso   1.00
H52    H     0.15373   0.25818   0.15834   0.00000  Uiso   1.00
H53    H     0.10288   0.28891   0.14697   0.00000  Uiso   1.00
H54    H     0.12160   0.27598   0.21686   0.00000  Uiso   1.00
O55    O     0.75000   0.09512   0.21228   0.00000  Uiso   1.00
O56    O     0.75000   0.23822   0.12105   0.00000  Uiso   1.00
O57    O     0.75000   0.23822   0.21228   0.00000  Uiso   1.00
O58    O     0.75000   0.09512   0.12105   0.00000  Uiso   1.00
C59    C     0.75000   0.07269   0.16671   0.00000  Uiso   1.00
C60    C     0.75000   0.26064   0.16663   0.00000  Uiso   1.00
O61    O     0.68392   0.16667   0.21230   0.00000  Uiso   1.00
O62    O     0.81607   0.16667   0.12104   0.00000  Uiso   1.00
O63    O     0.81607   0.16667   0.21230   0.00000  Uiso   1.00
O64    O     0.68392   0.16667   0.12104   0.00000  Uiso   1.00
C65    C     0.66349   0.16667   0.16667   0.00000  Uiso   1.00
C66    C     0.83651   0.16667   0.16667   0.00000  Uiso   1.00
Zn67   Zn    0.75000   0.16667   0.22759   0.00000  Uiso   1.00
Zn68   Zn    0.75000   0.16667   0.10574   0.00000  Uiso   1.00
N69    N     0.75000   0.16667   0.02455   0.00000  Uiso   1.00
N70    N     0.75000   0.16667   0.30879   0.00000  Uiso   1.00
C71    C     0.90643   0.21227   0.17384   0.00000  Uiso   1.00
C72    C     0.59358   0.12106   0.15950   0.00000  Uiso   1.00
C73    C     0.90642   0.12106   0.15950   0.00000  Uiso   1.00
C74    C     0.59357   0.21227   0.17384   0.00000  Uiso   1.00
C75    C     0.88403   0.16667   0.16667   0.00000  Uiso   1.00
C76    C     0.61597   0.16667   0.16667   0.00000  Uiso   1.00
C77    C     0.95306   0.12184   0.15466   0.00000  Uiso   1.00
C78    C     0.54693   0.21149   0.17868   0.00000  Uiso   1.00
C79    C     0.95307   0.21149   0.17868   0.00000  Uiso   1.00
C80    C     0.54693   0.12184   0.15466   0.00000  Uiso   1.00
C81    C     0.97649   0.16666   0.16667   0.00000  Uiso   1.00
C82    C     0.52351   0.16666   0.16667   0.00000  Uiso   1.00
C83    C     0.97705   0.07917   0.13825   0.00000  Uiso   1.00
C84    C     0.52295   0.25416   0.19510   0.00000  Uiso   1.00
C85    C     0.97705   0.25416   0.19510   0.00000  Uiso   1.00
C86    C     0.52295   0.07917   0.13825   0.00000  Uiso   1.00
C87    C     0.75000   0.02174   0.16672   0.00000  Uiso   1.00
C88    C     0.75000   0.31159   0.16661   0.00000  Uiso   1.00
F89    F     0.95681   0.03726   0.11929   0.00000  Uiso   1.00
F90    F     0.54319   0.29606   0.21407   0.00000  Uiso   1.00
F91    F     0.95681   0.29606   0.21406   0.00000  Uiso   1.00
F92    F     0.54319   0.03726   0.11929   0.00000  Uiso   1.00
C93    C     0.88063   0.26134   0.17436   0.00000  Uiso   1.00
H94    H     0.84627   0.25818   0.15835   0.00000  Uiso   1.00
H95    H     0.87840   0.27598   0.21686   0.00000  Uiso   1.00
H96    H     0.89712   0.28891   0.14696   0.00000  Uiso   1.00
C97    C     0.61937   0.07199   0.15897   0.00000  Uiso   1.00
H98    H     0.65374   0.07515   0.17497   0.00000  Uiso   1.00
H99    H     0.60289   0.04442   0.18638   0.00000  Uiso   1.00
H100   H     0.62159   0.05735   0.11647   0.00000  Uiso   1.00
C101   C     0.88063   0.07199   0.15897   0.00000  Uiso   1.00
H102   H     0.84626   0.07515   0.17497   0.00000  Uiso   1.00
H103   H     0.87840   0.05735   0.11647   0.00000  Uiso   1.00
H104   H     0.89711   0.04442   0.18638   0.00000  Uiso   1.00
C105   C     0.61937   0.26134   0.17436   0.00000  Uiso   1.00
H106   H     0.65373   0.25818   0.15834   0.00000  Uiso   1.00
H107   H     0.60288   0.28891   0.14697   0.00000  Uiso   1.00
H108   H     0.62160   0.27598   0.21686   0.00000  Uiso   1.00
O109   O     0.25000   0.42845   0.21228   0.00000  Uiso   1.00
O110   O     0.25000   0.57155   0.12105   0.00000  Uiso   1.00
O111   O     0.25000   0.57155   0.21228   0.00000  Uiso   1.00
O112   O     0.25000   0.42845   0.12105   0.00000  Uiso   1.00
C113   C     0.25000   0.40602   0.16671   0.00000  Uiso   1.00
C114   C     0.25000   0.59398   0.16663   0.00000  Uiso   1.00
O115   O     0.18392   0.50000   0.21230   0.00000  Uiso   1.00
O116   O     0.31607   0.50000   0.12104   0.00000  Uiso   1.00
O117   O     0.31607   0.50000   0.21230   0.00000  Uiso   1.00
O118   O     0.18392   0.50000   0.12104   0.00000  Uiso   1.00
C119   C     0.16349   0.50000   0.16667   0.00000  Uiso   1.00
C120   C     0.33651   0.50000   0.16667   0.00000  Uiso   1.00
Zn121  Zn    0.25000   0.50000   0.22759   0.00000  Uiso   1.00
Zn122  Zn    0.25000   0.50000   0.10574   0.00000  Uiso   1.00
N123   N     0.25000   0.50000   0.02455   0.00000  Uiso   1.00
N124   N     0.25000   0.50000   0.30879   0.00000  Uiso   1.00
C125   C     0.40643   0.54561   0.17384   0.00000  Uiso   1.00
C126   C     0.09358   0.45439   0.15950   0.00000  Uiso   1.00
C127   C     0.40642   0.45439   0.15950   0.00000  Uiso   1.00
C128   C     0.09357   0.54561   0.17384   0.00000  Uiso   1.00
C129   C     0.38403   0.50000   0.16667   0.00000  Uiso   1.00
C130   C     0.11597   0.50000   0.16667   0.00000  Uiso   1.00
C131   C     0.45306   0.45517   0.15466   0.00000  Uiso   1.00
C132   C     0.04693   0.54482   0.17868   0.00000  Uiso   1.00
C133   C     0.45307   0.54482   0.17868   0.00000  Uiso   1.00
C134   C     0.04693   0.45517   0.15466   0.00000  Uiso   1.00
C135   C     0.47649   0.50000   0.16667   0.00000  Uiso   1.00
C136   C     0.02351   0.50000   0.16667   0.00000  Uiso   1.00
C137   C     0.47705   0.41250   0.13825   0.00000  Uiso   1.00
C138   C     0.02295   0.58749   0.19510   0.00000  Uiso   1.00
C139   C     0.47705   0.58749   0.19510   0.00000  Uiso   1.00
C140   C     0.02295   0.41250   0.13825   0.00000  Uiso   1.00
C141   C     0.25000   0.35508   0.16672   0.00000  Uiso   1.00
C142   C     0.25000   0.64492   0.16661   0.00000  Uiso   1.00
F143   F     0.45681   0.37060   0.11929   0.00000  Uiso   1.00
F144   F     0.04319   0.62939   0.21407   0.00000  Uiso   1.00
F145   F     0.45681   0.62939   0.21406   0.00000  Uiso   1.00
F146   F     0.04319   0.37060   0.11929   0.00000  Uiso   1.00
C147   C     0.38063   0.59467   0.17436   0.00000  Uiso   1.00
H148   H     0.34627   0.59151   0.15835   0.00000  Uiso   1.00
H149   H     0.37840   0.60931   0.21686   0.00000  Uiso   1.00
H150   H     0.39712   0.62224   0.14696   0.00000  Uiso   1.00
C151   C     0.11937   0.40532   0.15897   0.00000  Uiso   1.00
H152   H     0.15374   0.40849   0.17497   0.00000  Uiso   1.00
H153   H     0.10289   0.37776   0.18638   0.00000  Uiso   1.00
H154   H     0.12159   0.39068   0.11647   0.00000  Uiso   1.00
C155   C     0.38063   0.40532   0.15897   0.00000  Uiso   1.00
H156   H     0.34626   0.40849   0.17497   0.00000  Uiso   1.00
H157   H     0.37840   0.39068   0.11647   0.00000  Uiso   1.00
H158   H     0.39711   0.37776   0.18638   0.00000  Uiso   1.00
C159   C     0.11937   0.59467   0.17436   0.00000  Uiso   1.00
H160   H     0.15373   0.59151   0.15834   0.00000  Uiso   1.00
H161   H     0.10288   0.62224   0.14697   0.00000  Uiso   1.00
H162   H     0.12160   0.60931   0.21686   0.00000  Uiso   1.00
O163   O     0.75000   0.42845   0.21228   0.00000  Uiso   1.00
O164   O     0.75000   0.57155   0.12105   0.00000  Uiso   1.00
O165   O     0.75000   0.57155   0.21228   0.00000  Uiso   1.00
O166   O     0.75000   0.42845   0.12105   0.00000  Uiso   1.00
C167   C     0.75000   0.40602   0.16671   0.00000  Uiso   1.00
C168   C     0.75000   0.59398   0.16663   0.00000  Uiso   1.00
O169   O     0.68392   0.50000   0.21230   0.00000  Uiso   1.00
O170   O     0.81607   0.50000   0.12104   0.00000  Uiso   1.00
O171   O     0.81607   0.50000   0.21230   0.00000  Uiso   1.00
O172   O     0.68392   0.50000   0.12104   0.00000  Uiso   1.00
C173   C     0.66349   0.50000   0.16667   0.00000  Uiso   1.00
C174   C     0.83651   0.50000   0.16667   0.00000  Uiso   1.00
Zn175  Zn    0.75000   0.50000   0.22759   0.00000  Uiso   1.00
Zn176  Zn    0.75000   0.50000   0.10574   0.00000  Uiso   1.00
N177   N     0.75000   0.50000   0.02455   0.00000  Uiso   1.00
N178   N     0.75000   0.50000   0.30879   0.00000  Uiso   1.00
C179   C     0.90643   0.54561   0.17384   0.00000  Uiso   1.00
C180   C     0.59358   0.45439   0.15950   0.00000  Uiso   1.00
C181   C     0.90642   0.45439   0.15950   0.00000  Uiso   1.00
C182   C     0.59357   0.54561   0.17384   0.00000  Uiso   1.00
C183   C     0.88403   0.50000   0.16667   0.00000  Uiso   1.00
C184   C     0.61597   0.50000   0.16667   0.00000  Uiso   1.00
C185   C     0.95306   0.45517   0.15466   0.00000  Uiso   1.00
C186   C     0.54693   0.54482   0.17868   0.00000  Uiso   1.00
C187   C     0.95307   0.54482   0.17868   0.00000  Uiso   1.00
C188   C     0.54693   0.45517   0.15466   0.00000  Uiso   1.00
C189   C     0.97649   0.50000   0.16667   0.00000  Uiso   1.00
C190   C     0.52351   0.50000   0.16667   0.00000  Uiso   1.00
C191   C     0.97705   0.41250   0.13825   0.00000  Uiso   1.00
C192   C     0.52295   0.58749   0.19510   0.00000  Uiso   1.00
C193   C     0.97705   0.58749   0.19510   0.00000  Uiso   1.00
C194   C     0.52295   0.41250   0.13825   0.00000  Uiso   1.00
C195   C     0.75000   0.35508   0.16672   0.00000  Uiso   1.00
C196   C     0.75000   0.64492   0.16661   0.00000  Uiso   1.00
F197   F     0.95681   0.37060   0.11929   0.00000  Uiso   1.00
F198   F     0.54319   0.62939   0.21407   0.00000  Uiso   1.00
F199   F     0.95681   0.62939   0.21406   0.00000  Uiso   1.00
F200   F     0.54319   0.37060   0.11929   0.00000  Uiso   1.00
C201   C     0.88063   0.59467   0.17436   0.00000  Uiso   1.00
H202   H     0.84627   0.59151   0.15835   0.00000  Uiso   1.00
H203   H     0.87840   0.60931   0.21686   0.00000  Uiso   1.00
H204   H     0.89712   0.62224   0.14696   0.00000  Uiso   1.00
C205   C     0.61937   0.40532   0.15897   0.00000  Uiso   1.00
H206   H     0.65374   0.40849   0.17497   0.00000  Uiso   1.00
H207   H     0.60289   0.37776   0.18638   0.00000  Uiso   1.00
H208   H     0.62159   0.39068   0.11647   0.00000  Uiso   1.00
C209   C     0.88063   0.40532   0.15897   0.00000  Uiso   1.00
H210   H     0.84626   0.40849   0.17497   0.00000  Uiso   1.00
H211   H     0.87840   0.39068   0.11647   0.00000  Uiso   1.00
H212   H     0.89711   0.37776   0.18638   0.00000  Uiso   1.00
C213   C     0.61937   0.59467   0.17436   0.00000  Uiso   1.00
H214   H     0.65373   0.59151   0.15834   0.00000  Uiso   1.00
H215   H     0.60288   0.62224   0.14697   0.00000  Uiso   1.00
H216   H     0.62160   0.60931   0.21686   0.00000  Uiso   1.00
O217   O     0.25000   0.76178   0.21228   0.00000  Uiso   1.00
O218   O     0.25000   0.90488   0.12105   0.00000  Uiso   1.00
O219   O     0.25000   0.90488   0.21228   0.00000  Uiso   1.00
O220   O     0.25000   0.76178   0.12105   0.00000  Uiso   1.00
C221   C     0.25000   0.73936   0.16671   0.00000  Uiso   1.00
C222   C     0.25000   0.92731   0.16663   0.00000  Uiso   1.00
O223   O     0.18392   0.83333   0.21230   0.00000  Uiso   1.00
O224   O     0.31607   0.83333   0.12104   0.00000  Uiso   1.00
O225   O     0.31607   0.83333   0.21230   0.00000  Uiso   1.00
O226   O     0.18392   0.83333   0.12104   0.00000  Uiso   1.00
C227   C     0.16349   0.83333   0.16667   0.00000  Uiso   1.00
C228   C     0.33651   0.83333   0.16667   0.00000  Uiso   1.00
Zn229  Zn    0.25000   0.83333   0.22759   0.00000  Uiso   1.00
Zn230  Zn    0.25000   0.83333   0.10574   0.00000  Uiso   1.00
N231   N     0.25000   0.83333   0.02455   0.00000  Uiso   1.00
N232   N     0.25000   0.83333   0.30879   0.00000  Uiso   1.00
C233   C     0.40643   0.87894   0.17384   0.00000  Uiso   1.00
C234   C     0.09358   0.78772   0.15950   0.00000  Uiso   1.00
C235   C     0.40642   0.78772   0.15950   0.00000  Uiso   1.00
C236   C     0.09357   0.87894   0.17384   0.00000  Uiso   1.00
C237   C     0.38403   0.83333   0.16667   0.00000  Uiso   1.00
C238   C     0.11597   0.83333   0.16667   0.00000  Uiso   1.00
C239   C     0.45306   0.78850   0.15466   0.00000  Uiso   1.00
C240   C     0.04693   0.87816   0.17868   0.00000  Uiso   1.00
C241   C     0.45307   0.87816   0.17868   0.00000  Uiso   1.00
C242   C     0.04693   0.78850   0.15466   0.00000  Uiso   1.00
C243   C     0.47649   0.83333   0.16667   0.00000  Uiso   1.00
C244   C     0.02351   0.83333   0.16667   0.00000  Uiso   1.00
C245   C     0.47705   0.74583   0.13825   0.00000  Uiso   1.00
C246   C     0.02295   0.92082   0.19510   0.00000  Uiso   1.00
C247   C     0.47705   0.92083   0.19510   0.00000  Uiso   1.00
C248   C     0.02295   0.74583   0.13825   0.00000  Uiso   1.00
C249   C     0.25000   0.68841   0.16672   0.00000  Uiso   1.00
C250   C     0.25000   0.97826   0.16661   0.00000  Uiso   1.00
F251   F     0.45681   0.70393   0.11929   0.00000  Uiso   1.00
F252   F     0.04319   0.96272   0.21407   0.00000  Uiso   1.00
F253   F     0.45681   0.96273   0.21406   0.00000  Uiso   1.00
F254   F     0.04319   0.70393   0.11929   0.00000  Uiso   1.00
C255   C     0.38063   0.92801   0.17436   0.00000  Uiso   1.00
H256   H     0.34627   0.92485   0.15835   0.00000  Uiso   1.00
H257   H     0.37840   0.94265   0.21686   0.00000  Uiso   1.00
H258   H     0.39712   0.95558   0.14696   0.00000  Uiso   1.00
C259   C     0.11937   0.73866   0.15897   0.00000  Uiso   1.00
H260   H     0.15374   0.74182   0.17497   0.00000  Uiso   1.00
H261   H     0.10289   0.71109   0.18638   0.00000  Uiso   1.00
H262   H     0.12159   0.72402   0.11647   0.00000  Uiso   1.00
C263   C     0.38063   0.73866   0.15897   0.00000  Uiso   1.00
H264   H     0.34626   0.74182   0.17497   0.00000  Uiso   1.00
H265   H     0.37840   0.72402   0.11647   0.00000  Uiso   1.00
H266   H     0.39711   0.71109   0.18638   0.00000  Uiso   1.00
C267   C     0.11937   0.92801   0.17436   0.00000  Uiso   1.00
H268   H     0.15373   0.92485   0.15834   0.00000  Uiso   1.00
H269   H     0.10288   0.95558   0.14697   0.00000  Uiso   1.00
H270   H     0.12160   0.94264   0.21686   0.00000  Uiso   1.00
O271   O     0.75000   0.76178   0.21228   0.00000  Uiso   1.00
O272   O     0.75000   0.90488   0.12105   0.00000  Uiso   1.00
O273   O     0.75000   0.90488   0.21228   0.00000  Uiso   1.00
O274   O     0.75000   0.76178   0.12105   0.00000  Uiso   1.00
C275   C     0.75000   0.73936   0.16671   0.00000  Uiso   1.00
C276   C     0.75000   0.92731   0.16663   0.00000  Uiso   1.00
O277   O     0.68392   0.83333   0.21230   0.00000  Uiso   1.00
O278   O     0.81607   0.83333   0.12104   0.00000  Uiso   1.00
O279   O     0.81607   0.83333   0.21230   0.00000  Uiso   1.00
O280   O     0.68392   0.83333   0.12104   0.00000  Uiso   1.00
C281   C     0.66349   0.83333   0.16667   0.00000  Uiso   1.00
C282   C     0.83651   0.83333   0.16667   0.00000  Uiso   1.00
Zn283  Zn    0.75000   0.83333   0.22759   0.00000  Uiso   1.00
Zn284  Zn    0.75000   0.83333   0.10574   0.00000  Uiso   1.00
N285   N     0.75000   0.83333   0.02455   0.00000  Uiso   1.00
N286   N     0.75000   0.83333   0.30879   0.00000  Uiso   1.00
C287   C     0.90643   0.87894   0.17384   0.00000  Uiso   1.00
C288   C     0.59358   0.78772   0.15950   0.00000  Uiso   1.00
C289   C     0.90642   0.78772   0.15950   0.00000  Uiso   1.00
C290   C     0.59357   0.87894   0.17384   0.00000  Uiso   1.00
C291   C     0.88403   0.83333   0.16667   0.00000  Uiso   1.00
C292   C     0.61597   0.83333   0.16667   0.00000  Uiso   1.00
C293   C     0.95306   0.78850   0.15466   0.00000  Uiso   1.00
C294   C     0.54693   0.87816   0.17868   0.00000  Uiso   1.00
C295   C     0.95307   0.87816   0.17868   0.00000  Uiso   1.00
C296   C     0.54693   0.78850   0.15466   0.00000  Uiso   1.00
C297   C     0.97649   0.83333   0.16667   0.00000  Uiso   1.00
C298   C     0.52351   0.83333   0.16667   0.00000  Uiso   1.00
C299   C     0.97705   0.74583   0.13825   0.00000  Uiso   1.00
C300   C     0.52295   0.92082   0.19510   0.00000  Uiso   1.00
C301   C     0.97705   0.92083   0.19510   0.00000  Uiso   1.00
C302   C     0.52295   0.74583   0.13825   0.00000  Uiso   1.00
C303   C     0.75000   0.68841   0.16672   0.00000  Uiso   1.00
C304   C     0.75000   0.97826   0.16661   0.00000  Uiso   1.00
F305   F     0.95681   0.70393   0.11929   0.00000  Uiso   1.00
F306   F     0.54319   0.96272   0.21407   0.00000  Uiso   1.00
F307   F     0.95681   0.96273   0.21406   0.00000  Uiso   1.00
F308   F     0.54319   0.70393   0.11929   0.00000  Uiso   1.00
C309   C     0.88063   0.92801   0.17436   0.00000  Uiso   1.00
H310   H     0.84627   0.92485   0.15835   0.00000  Uiso   1.00
H311   H     0.87840   0.94265   0.21686   0.00000  Uiso   1.00
H312   H     0.89712   0.95558   0.14696   0.00000  Uiso   1.00
C313   C     0.61937   0.73866   0.15897   0.00000  Uiso   1.00
H314   H     0.65374   0.74182   0.17497   0.00000  Uiso   1.00
H315   H     0.60289   0.71109   0.18638   0.00000  Uiso   1.00
H316   H     0.62159   0.72402   0.11647   0.00000  Uiso   1.00
C317   C     0.88063   0.73866   0.15897   0.00000  Uiso   1.00
H318   H     0.84626   0.74182   0.17497   0.00000  Uiso   1.00
H319   H     0.87840   0.72402   0.11647   0.00000  Uiso   1.00
H320   H     0.89711   0.71109   0.18638   0.00000  Uiso   1.00
C321   C     0.61937   0.92801   0.17436   0.00000  Uiso   1.00
H322   H     0.65373   0.92485   0.15834   0.00000  Uiso   1.00
H323   H     0.60288   0.95558   0.14697   0.00000  Uiso   1.00
H324   H     0.62160   0.94264   0.21686   0.00000  Uiso   1.00
O325   O     0.25000   0.09512   0.54562   0.00000  Uiso   1.00
O326   O     0.25000   0.23822   0.45438   0.00000  Uiso   1.00
O327   O     0.25000   0.23822   0.54562   0.00000  Uiso   1.00
O328   O     0.25000   0.09512   0.45438   0.00000  Uiso   1.00
C329   C     0.25000   0.07269   0.50004   0.00000  Uiso   1.00
C330   C     0.25000   0.26064   0.49996   0.00000  Uiso   1.00
O331   O     0.18392   0.16667   0.54563   0.00000  Uiso   1.00
O332   O     0.31607   0.16667   0.45437   0.00000  Uiso   1.00
O333   O     0.31607   0.16667   0.54563   0.00000  Uiso   1.00
O334   O     0.18392   0.16667   0.45437   0.00000  Uiso   1.00
C335   C     0.16349   0.16667   0.50000   0.00000  Uiso   1.00
C336   C     0.33651   0.16667   0.50000   0.00000  Uiso   1.00
Zn337  Zn    0.25000   0.16667   0.56093   0.00000  Uiso   1.00
Zn338  Zn    0.25000   0.16667   0.43907   0.00000  Uiso   1.00
N339   N     0.25000   0.16667   0.35788   0.00000  Uiso   1.00
N340   N     0.25000   0.16667   0.64212   0.00000  Uiso   1.00
C341   C     0.40643   0.21227   0.50717   0.00000  Uiso   1.00
C342   C     0.09358   0.12106   0.49283   0.00000  Uiso   1.00
C343   C     0.40642   0.12106   0.49283   0.00000  Uiso   1.00
C344   C     0.09357   0.21227   0.50717   0.00000  Uiso   1.00
C345   C     0.38403   0.16667   0.50000   0.00000  Uiso   1.00
C346   C     0.11597   0.16667   0.50000   0.00000  Uiso   1.00
C347   C     0.45306   0.12184   0.48800   0.00000  Uiso   1.00
C348   C     0.04693   0.21149   0.51201   0.00000  Uiso   1.00
C349   C     0.45307   0.21149   0.51201   0.00000  Uiso   1.00
C350   C     0.04693   0.12184   0.48799   0.00000  Uiso   1.00
C351   C     0.47649   0.16666   0.50000   0.00000  Uiso   1.00
C352   C     0.02351   0.16666   0.50000   0.00000  Uiso   1.00
C353   C     0.47705   0.07917   0.47159   0.00000  Uiso   1.00
C354   C     0.02295   0.25416   0.52843   0.00000  Uiso   1.00
C355   C     0.47705   0.25416   0.52843   0.00000  Uiso   1.00
C356   C     0.02295   0.07917   0.47158   0.00000  Uiso   1.00
C357   C     0.25000   0.02174   0.50006   0.00000  Uiso   1.00
C358   C     0.25000   0.31159   0.49994   0.00000  Uiso   1.00
F359   F     0.45681   0.03726   0.45263   0.00000  Uiso   1.00
F360   F     0.04319   0.29606   0.54740   0.00000  Uiso   1.00
F361   F     0.45681   0.29606   0.54739   0.00000  Uiso   1.00
F362   F     0.04319   0.03726   0.45263   0.00000  Uiso   1.00
C363   C     0.38063   0.26134   0.50769   0.00000  Uiso   1.00
H364   H     0.34627   0.25818   0.49168   0.00000  Uiso   1.00
H365   H     0.37840   0.27598   0.55020   0.00000  Uiso   1.00
H366   H     0.39712   0.28891   0.48030   0.00000  Uiso   1.00
C367   C     0.11937   0.07199   0.49230   0.00000  Uiso   1.00
H368   H     0.15374   0.07515   0.50830   0.00000  Uiso   1.00
H369   H     0.10289   0.04442   0.51971   0.00000  Uiso   1.00
H370   H     0.12159   0.05735   0.44980   0.00000  Uiso   1.00
C371   C     0.38063   0.07199   0.49230   0.00000  Uiso   1.00
H372   H     0.34626   0.07515   0.50830   0.00000  Uiso   1.00
H373   H     0.37840   0.05735   0.44980   0.00000  Uiso   1.00
H374   H     0.39711   0.04442   0.51971   0.00000  Uiso   1.00
C375   C     0.11937   0.26134   0.50769   0.00000  Uiso   1.00
H376   H     0.15373   0.25818   0.49168   0.00000  Uiso   1.00
H377   H     0.10288   0.28891   0.48030   0.00000  Uiso   1.00
H378   H     0.12160   0.27598   0.55020   0.00000  Uiso   1.00
O379   O     0.75000   0.09512   0.54562   0.00000  Uiso   1.00
O380   O     0.75000   0.23822   0.45438   0.00000  Uiso   1.00
O381   O     0.75000   0.23822   0.54562   0.00000  Uiso   1.00
O382   O     0.75000   0.09512   0.45438   0.00000  Uiso   1.00
C383   C     0.75000   0.07269   0.50004   0.00000  Uiso   1.00
C384   C     0.75000   0.26064   0.49996   0.00000  Uiso   1.00
O385   O     0.68392   0.16667   0.54563   0.00000  Uiso   1.00
O386   O     0.81607   0.16667   0.45437   0.00000  Uiso   1.00
O387   O     0.81607   0.16667   0.54563   0.00000  Uiso   1.00
O388   O     0.68392   0.16667   0.45437   0.00000  Uiso   1.00
C389   C     0.66349   0.16667   0.50000   0.00000  Uiso   1.00
C390   C     0.83651   0.16667   0.50000   0.00000  Uiso   1.00
Zn391  Zn    0.75000   0.16667   0.56093   0.00000  Uiso   1.00
Zn392  Zn    0.75000   0.16667   0.43907   0.00000  Uiso   1.00
N393   N     0.75000   0.16667   0.35788   0.00000  Uiso   1.00
N394   N     0.75000   0.16667   0.64212   0.00000  Uiso   1.00
C395   C     0.90643   0.21227   0.50717   0.00000  Uiso   1.00
C396   C     0.59358   0.12106   0.49283   0.00000  Uiso   1.00
C397   C     0.90642   0.12106   0.49283   0.00000  Uiso   1.00
C398   C     0.59357   0.21227   0.50717   0.00000  Uiso   1.00
C399   C     0.88403   0.16667   0.50000   0.00000  Uiso   1.00
C400   C     0.61597   0.16667   0.50000   0.00000  Uiso   1.00
C401   C     0.95306   0.12184   0.48800   0.00000  Uiso   1.00
C402   C     0.54693   0.21149   0.51201   0.00000  Uiso   1.00
C403   C     0.95307   0.21149   0.51201   0.00000  Uiso   1.00
C404   C     0.54693   0.12184   0.48799   0.00000  Uiso   1.00
C405   C     0.97649   0.16666   0.50000   0.00000  Uiso   1.00
C406   C     0.52351   0.16666   0.50000   0.00000  Uiso   1.00
C407   C     0.97705   0.07917   0.47159   0.00000  Uiso   1.00
C408   C     0.52295   0.25416   0.52843   0.00000  Uiso   1.00
C409   C     0.97705   0.25416   0.52843   0.00000  Uiso   1.00
C410   C     0.52295   0.07917   0.47158   0.00000  Uiso   1.00
C411   C     0.75000   0.02174   0.50006   0.00000  Uiso   1.00
C412   C     0.75000   0.31159   0.49994   0.00000  Uiso   1.00
F413   F     0.95681   0.03726   0.45263   0.00000  Uiso   1.00
F414   F     0.54319   0.29606   0.54740   0.00000  Uiso   1.00
F415   F     0.95681   0.29606   0.54739   0.00000  Uiso   1.00
F416   F     0.54319   0.03726   0.45263   0.00000  Uiso   1.00
C417   C     0.88063   0.26134   0.50769   0.00000  Uiso   1.00
H418   H     0.84627   0.25818   0.49168   0.00000  Uiso   1.00
H419   H     0.87840   0.27598   0.55020   0.00000  Uiso   1.00
H420   H     0.89712   0.28891   0.48030   0.00000  Uiso   1.00
C421   C     0.61937   0.07199   0.49230   0.00000  Uiso   1.00
H422   H     0.65374   0.07515   0.50830   0.00000  Uiso   1.00
H423   H     0.60289   0.04442   0.51971   0.00000  Uiso   1.00
H424   H     0.62159   0.05735   0.44980   0.00000  Uiso   1.00
C425   C     0.88063   0.07199   0.49230   0.00000  Uiso   1.00
H426   H     0.84626   0.07515   0.50830   0.00000  Uiso   1.00
H427   H     0.87840   0.05735   0.44980   0.00000  Uiso   1.00
H428   H     0.89711   0.04442   0.51971   0.00000  Uiso   1.00
C429   C     0.61937   0.26134   0.50769   0.00000  Uiso   1.00
H430   H     0.65373   0.25818   0.49168   0.00000  Uiso   1.00
H431   H     0.60288   0.28891   0.48030   0.00000  Uiso   1.00
H432   H     0.62160   0.27598   0.55020   0.00000  Uiso   1.00
O433   O     0.25000   0.42845   0.54562   0.00000  Uiso   1.00
O434   O     0.25000   0.57155   0.45438   0.00000  Uiso   1.00
O435   O     0.25000   0.57155   0.54562   0.00000  Uiso   1.00
O436   O     0.25000   0.42845   0.45438   0.00000  Uiso   1.00
C437   C     0.25000   0.40602   0.50004   0.00000  Uiso   1.00
C438   C     0.25000   0.59398   0.49996   0.00000  Uiso   1.00
O439   O     0.18392   0.50000   0.54563   0.00000  Uiso   1.00
O440   O     0.31607   0.50000   0.45437   0.00000  Uiso   1.00
O441   O     0.31607   0.50000   0.54563   0.00000  Uiso   1.00
O442   O     0.18392   0.50000   0.45437   0.00000  Uiso   1.00
C443   C     0.16349   0.50000   0.50000   0.00000  Uiso   1.00
C444   C     0.33651   0.50000   0.50000   0.00000  Uiso   1.00
Zn445  Zn    0.25000   0.50000   0.56093   0.00000  Uiso   1.00
Zn446  Zn    0.25000   0.50000   0.43907   0.00000  Uiso   1.00
N447   N     0.25000   0.50000   0.35788   0.00000  Uiso   1.00
N448   N     0.25000   0.50000   0.64212   0.00000  Uiso   1.00
C449   C     0.40643   0.54561   0.50717   0.00000  Uiso   1.00
C450   C     0.09358   0.45439   0.49283   0.00000  Uiso   1.00
C451   C     0.40642   0.45439   0.49283   0.00000  Uiso   1.00
C452   C     0.09357   0.54561   0.50717   0.00000  Uiso   1.00
C453   C     0.38403   0.50000   0.50000   0.00000  Uiso   1.00
C454   C     0.11597   0.50000   0.50000   0.00000  Uiso   1.00
C455   C     0.45306   0.45517   0.48800   0.00000  Uiso   1.00
C456   C     0.04693   0.54482   0.51201   0.00000  Uiso   1.00
C457   C     0.45307   0.54482   0.51201   0.00000  Uiso   1.00
C458   C     0.04693   0.45517   0.48799   0.00000  Uiso   1.00
C459   C     0.47649   0.50000   0.50000   0.00000  Uiso   1.00
C460   C     0.02351   0.50000   0.50000   0.00000  Uiso   1.00
C461   C     0.47705   0.41250   0.47159   0.00000  Uiso   1.00
C462   C     0.02295   0.58749   0.52843   0.00000  Uiso   1.00
C463   C     0.47705   0.58749   0.52843   0.00000  Uiso   1.00
C464   C     0.02295   0.41250   0.47158   0.00000  Uiso   1.00
C465   C     0.25000   0.35508   0.50006   0.00000  Uiso   1.00
C466   C     0.25000   0.64492   0.49994   0.00000  Uiso   1.00
F467   F     0.45681   0.37060   0.45263   0.00000  Uiso   1.00
F468   F     0.04319   0.62939   0.54740   0.00000  Uiso   1.00
F469   F     0.45681   0.62939   0.54739   0.00000  Uiso   1.00
F470   F     0.04319   0.37060   0.45263   0.00000  Uiso   1.00
C471   C     0.38063   0.59467   0.50769   0.00000  Uiso   1.00
H472   H     0.34627   0.59151   0.49168   0.00000  Uiso   1.00
H473   H     0.37840   0.60931   0.55020   0.00000  Uiso   1.00
H474   H     0.39712   0.62224   0.48030   0.00000  Uiso   1.00
C475   C     0.11937   0.40532   0.49230   0.00000  Uiso   1.00
H476   H     0.15374   0.40849   0.50830   0.00000  Uiso   1.00
H477   H     0.10289   0.37776   0.51971   0.00000  Uiso   1.00
H478   H     0.12159   0.39068   0.44980   0.00000  Uiso   1.00
C479   C     0.38063   0.40532   0.49230   0.00000  Uiso   1.00
H480   H     0.34626   0.40849   0.50830   0.00000  Uiso   1.00
H481   H     0.37840   0.39068   0.44980   0.00000  Uiso   1.00
H482   H     0.39711   0.37776   0.51971   0.00000  Uiso   1.00
C483   C     0.11937   0.59467   0.50769   0.00000  Uiso   1.00
H484   H     0.15373   0.59151   0.49168   0.00000  Uiso   1.00
H485   H     0.10288   0.62224   0.48030   0.00000  Uiso   1.00
H486   H     0.12160   0.60931   0.55020   0.00000  Uiso   1.00
O487   O     0.75000   0.42845   0.54562   0.00000  Uiso   1.00
O488   O     0.75000   0.57155   0.45438   0.00000  Uiso   1.00
O489   O     0.75000   0.57155   0.54562   0.00000  Uiso   1.00
O490   O     0.75000   0.42845   0.45438   0.00000  Uiso   1.00
C491   C     0.75000   0.40602   0.50004   0.00000  Uiso   1.00
C492   C     0.75000   0.59398   0.49996   0.00000  Uiso   1.00
O493   O     0.68392   0.50000   0.54563   0.00000  Uiso   1.00
O494   O     0.81607   0.50000   0.45437   0.00000  Uiso   1.00
O495   O     0.81607   0.50000   0.54563   0.00000  Uiso   1.00
O496   O     0.68392   0.50000   0.45437   0.00000  Uiso   1.00
C497   C     0.66349   0.50000   0.50000   0.00000  Uiso   1.00
C498   C     0.83651   0.50000   0.50000   0.00000  Uiso   1.00
Zn499  Zn    0.75000   0.50000   0.56093   0.00000  Uiso   1.00
Zn500  Zn    0.75000   0.50000   0.43907   0.00000  Uiso   1.00
N501   N     0.75000   0.50000   0.35788   0.00000  Uiso   1.00
N502   N     0.75000   0.50000   0.64212   0.00000  Uiso   1.00
C503   C     0.90643   0.54561   0.50717   0.00000  Uiso   1.00
C504   C     0.59358   0.45439   0.49283   0.00000  Uiso   1.00
C505   C     0.90642   0.45439   0.49283   0.00000  Uiso   1.00
C506   C     0.59357   0.54561   0.50717   0.00000  Uiso   1.00
C507   C     0.88403   0.50000   0.50000   0.00000  Uiso   1.00
C508   C     0.61597   0.50000   0.50000   0.00000  Uiso   1.00
C509   C     0.95306   0.45517   0.48800   0.00000  Uiso   1.00
C510   C     0.54693   0.54482   0.51201   0.00000  Uiso   1.00
C511   C     0.95307   0.54482   0.51201   0.00000  Uiso   1.00
C512   C     0.54693   0.45517   0.48799   0.00000  Uiso   1.00
C513   C     0.97649   0.50000   0.50000   0.00000  Uiso   1.00
C514   C     0.52351   0.50000   0.50000   0.00000  Uiso   1.00
C515   C     0.97705   0.41250   0.47159   0.00000  Uiso   1.00
C516   C     0.52295   0.58749   0.52843   0.00000  Uiso   1.00
C517   C     0.97705   0.58749   0.52843   0.00000  Uiso   1.00
C518   C     0.52295   0.41250   0.47158   0.00000  Uiso   1.00
C519   C     0.75000   0.35508   0.50006   0.00000  Uiso   1.00
C520   C     0.75000   0.64492   0.49994   0.00000  Uiso   1.00
F521   F     0.95681   0.37060   0.45263   0.00000  Uiso   1.00
F522   F     0.54319   0.62939   0.54740   0.00000  Uiso   1.00
F523   F     0.95681   0.62939   0.54739   0.00000  Uiso   1.00
F524   F     0.54319   0.37060   0.45263   0.00000  Uiso   1.00
C525   C     0.88063   0.59467   0.50769   0.00000  Uiso   1.00
H526   H     0.84627   0.59151   0.49168   0.00000  Uiso   1.00
H527   H     0.87840   0.60931   0.55020   0.00000  Uiso   1.00
H528   H     0.89712   0.62224   0.48030   0.00000  Uiso   1.00
C529   C     0.61937   0.40532   0.49230   0.00000  Uiso   1.00
H530   H     0.65374   0.40849   0.50830   0.00000  Uiso   1.00
H531   H     0.60289   0.37776   0.51971   0.00000  Uiso   1.00
H532   H     0.62159   0.39068   0.44980   0.00000  Uiso   1.00
C533   C     0.88063   0.40532   0.49230   0.00000  Uiso   1.00
H534   H     0.84626   0.40849   0.50830   0.00000  Uiso   1.00
H535   H     0.87840   0.39068   0.44980   0.00000  Uiso   1.00
H536   H     0.89711   0.37776   0.51971   0.00000  Uiso   1.00
C537   C     0.61937   0.59467   0.50769   0.00000  Uiso   1.00
H538   H     0.65373   0.59151   0.49168   0.00000  Uiso   1.00
H539   H     0.60288   0.62224   0.48030   0.00000  Uiso   1.00
H540   H     0.62160   0.60931   0.55020   0.00000  Uiso   1.00
O541   O     0.25000   0.76178   0.54562   0.00000  Uiso   1.00
O542   O     0.25000   0.90488   0.45438   0.00000  Uiso   1.00
O543   O     0.25000   0.90488   0.54562   0.00000  Uiso   1.00
O544   O     0.25000   0.76178   0.45438   0.00000  Uiso   1.00
C545   C     0.25000   0.73936   0.50004   0.00000  Uiso   1.00
C546   C     0.25000   0.92731   0.49996   0.00000  Uiso   1.00
O547   O     0.18392   0.83333   0.54563   0.00000  Uiso   1.00
O548   O     0.31607   0.83333   0.45437   0.00000  Uiso   1.00
O549   O     0.31607   0.83333   0.54563   0.00000  Uiso   1.00
O550   O     0.18392   0.83333   0.45437   0.00000  Uiso   1.00
C551   C     0.16349   0.83333   0.50000   0.00000  Uiso   1.00
C552   C     0.33651   0.83333   0.50000   0.00000  Uiso   1.00
Zn553  Zn    0.25000   0.83333   0.56093   0.00000  Uiso   1.00
Zn554  Zn    0.25000   0.83333   0.43907   0.00000  Uiso   1.00
N555   N     0.25000   0.83333   0.35788   0.00000  Uiso   1.00
N556   N     0.25000   0.83333   0.64212   0.00000  Uiso   1.00
C557   C     0.40643   0.87894   0.50717   0.00000  Uiso   1.00
C558   C     0.09358   0.78772   0.49283   0.00000  Uiso   1.00
C559   C     0.40642   0.78772   0.49283   0.00000  Uiso   1.00
C560   C     0.09357   0.87894   0.50717   0.00000  Uiso   1.00
C561   C     0.38403   0.83333   0.50000   0.00000  Uiso   1.00
C562   C     0.11597   0.83333   0.50000   0.00000  Uiso   1.00
C563   C     0.45306   0.78850   0.48800   0.00000  Uiso   1.00
C564   C     0.04693   0.87816   0.51201   0.00000  Uiso   1.00
C565   C     0.45307   0.87816   0.51201   0.00000  Uiso   1.00
C566   C     0.04693   0.78850   0.48799   0.00000  Uiso   1.00
C567   C     0.47649   0.83333   0.50000   0.00000  Uiso   1.00
C568   C     0.02351   0.83333   0.50000   0.00000  Uiso   1.00
C569   C     0.47705   0.74583   0.47159   0.00000  Uiso   1.00
C570   C     0.02295   0.92082   0.52843   0.00000  Uiso   1.00
C571   C     0.47705   0.92083   0.52843   0.00000  Uiso   1.00
C572   C     0.02295   0.74583   0.47158   0.00000  Uiso   1.00
C573   C     0.25000   0.68841   0.50006   0.00000  Uiso   1.00
C574   C     0.25000   0.97826   0.49994   0.00000  Uiso   1.00
F575   F     0.45681   0.70393   0.45263   0.00000  Uiso   1.00
F576   F     0.04319   0.96272   0.54740   0.00000  Uiso   1.00
F577   F     0.45681   0.96273   0.54739   0.00000  Uiso   1.00
F578   F     0.04319   0.70393   0.45263   0.00000  Uiso   1.00
C579   C     0.38063   0.92801   0.50769   0.00000  Uiso   1.00
H580   H     0.34627   0.92485   0.49168   0.00000  Uiso   1.00
H581   H     0.37840   0.94265   0.55020   0.00000  Uiso   1.00
H582   H     0.39712   0.95558   0.48030   0.00000  Uiso   1.00
C583   C     0.11937   0.73866   0.49230   0.00000  Uiso   1.00
H584   H     0.15374   0.74182   0.50830   0.00000  Uiso   1.00
H585   H     0.10289   0.71109   0.51971   0.00000  Uiso   1.00
H586   H     0.12159   0.72402   0.44980   0.00000  Uiso   1.00
C587   C     0.38063   0.73866   0.49230   0.00000  Uiso   1.00
H588   H     0.34626   0.74182   0.50830   0.00000  Uiso   1.00
H589   H     0.37840   0.72402   0.44980   0.00000  Uiso   1.00
H590   H     0.39711   0.71109   0.51971   0.00000  Uiso   1.00
C591   C     0.11937   0.92801   0.50769   0.00000  Uiso   1.00
H592   H     0.15373   0.92485   0.49168   0.00000  Uiso   1.00
H593   H     0.10288   0.95558   0.48030   0.00000  Uiso   1.00
H594   H     0.12160   0.94264   0.55020   0.00000  Uiso   1.00
O595   O     0.75000   0.76178   0.54562   0.00000  Uiso   1.00
O596   O     0.75000   0.90488   0.45438   0.00000  Uiso   1.00
O597   O     0.75000   0.90488   0.54562   0.00000  Uiso   1.00
O598   O     0.75000   0.76178   0.45438   0.00000  Uiso   1.00
C599   C     0.75000   0.73936   0.50004   0.00000  Uiso   1.00
C600   C     0.75000   0.92731   0.49996   0.00000  Uiso   1.00
O601   O     0.68392   0.83333   0.54563   0.00000  Uiso   1.00
O602   O     0.81607   0.83333   0.45437   0.00000  Uiso   1.00
O603   O     0.81607   0.83333   0.54563   0.00000  Uiso   1.00
O604   O     0.68392   0.83333   0.45437   0.00000  Uiso   1.00
C605   C     0.66349   0.83333   0.50000   0.00000  Uiso   1.00
C606   C     0.83651   0.83333   0.50000   0.00000  Uiso   1.00
Zn607  Zn    0.75000   0.83333   0.56093   0.00000  Uiso   1.00
Zn608  Zn    0.75000   0.83333   0.43907   0.00000  Uiso   1.00
N609   N     0.75000   0.83333   0.35788   0.00000  Uiso   1.00
N610   N     0.75000   0.83333   0.64212   0.00000  Uiso   1.00
C611   C     0.90643   0.87894   0.50717   0.00000  Uiso   1.00
C612   C     0.59358   0.78772   0.49283   0.00000  Uiso   1.00
C613   C     0.90642   0.78772   0.49283   0.00000  Uiso   1.00
C614   C     0.59357   0.87894   0.50717   0.00000  Uiso   1.00
C615   C     0.88403   0.83333   0.50000   0.00000  Uiso   1.00
C616   C     0.61597   0.83333   0.50000   0.00000  Uiso   1.00
C617   C     0.95306   0.78850   0.48800   0.00000  Uiso   1.00
C618   C     0.54693   0.87816   0.51201   0.00000  Uiso   1.00
C619   C     0.95307   0.87816   0.51201   0.00000  Uiso   1.00
C620   C     0.54693   0.78850   0.48799   0.00000  Uiso   1.00
C621   C     0.97649   0.83333   0.50000   0.00000  Uiso   1.00
C622   C     0.52351   0.83333   0.50000   0.00000  Uiso   1.00
C623   C     0.97705   0.74583   0.47159   0.00000  Uiso   1.00
C624   C     0.52295   0.92082   0.52843   0.00000  Uiso   1.00
C625   C     0.97705   0.92083   0.52843   0.00000  Uiso   1.00
C626   C     0.52295   0.74583   0.47158   0.00000  Uiso   1.00
C627   C     0.75000   0.68841   0.50006   0.00000  Uiso   1.00
C628   C     0.75000   0.97826   0.49994   0.00000  Uiso   1.00
F629   F     0.95681   0.70393   0.45263   0.00000  Uiso   1.00
F630   F     0.54319   0.96272   0.54740   0.00000  Uiso   1.00
F631   F     0.95681   0.96273   0.54739   0.00000  Uiso   1.00
F632   F     0.54319   0.70393   0.45263   0.00000  Uiso   1.00
C633   C     0.88063   0.92801   0.50769   0.00000  Uiso   1.00
H634   H     0.84627   0.92485   0.49168   0.00000  Uiso   1.00
H635   H     0.87840   0.94265   0.55020   0.00000  Uiso   1.00
H636   H     0.89712   0.95558   0.48030   0.00000  Uiso   1.00
C637   C     0.61937   0.73866   0.49230   0.00000  Uiso   1.00
H638   H     0.65374   0.74182   0.50830   0.00000  Uiso   1.00
H639   H     0.60289   0.71109   0.51971   0.00000  Uiso   1.00
H640   H     0.62159   0.72402   0.44980   0.00000  Uiso   1.00
C641   C     0.88063   0.73866   0.49230   0.00000  Uiso   1.00
H642   H     0.84626   0.74182   0.50830   0.00000  Uiso   1.00
H643   H     0.87840   0.72402   0.44980   0.00000  Uiso   1.00
H644   H     0.89711   0.71109   0.51971   0.00000  Uiso   1.00
C645   C     0.61937   0.92801   0.50769   0.00000  Uiso   1.00
H646   H     0.65373   0.92485   0.49168   0.00000  Uiso   1.00
H647   H     0.60288   0.95558   0.48030   0.00000  Uiso   1.00
H648   H     0.62160   0.94264   0.55020   0.00000  Uiso   1.00
O649   O     0.25000   0.09512   0.87895   0.00000  Uiso   1.00
O650   O     0.25000   0.23822   0.78772   0.00000  Uiso   1.00
O651   O     0.25000   0.23822   0.87895   0.00000  Uiso   1.00
O652   O     0.25000   0.09512   0.78772   0.00000  Uiso   1.00
C653   C     0.25000   0.07269   0.83337   0.00000  Uiso   1.00
C654   C     0.25000   0.26064   0.83329   0.00000  Uiso   1.00
O655   O     0.18392   0.16667   0.87896   0.00000  Uiso   1.00
O656   O     0.31607   0.16667   0.78770   0.00000  Uiso   1.00
O657   O     0.31607   0.16667   0.87896   0.00000  Uiso   1.00
O658   O     0.18392   0.16667   0.78770   0.00000  Uiso   1.00
C659   C     0.16349   0.16667   0.83333   0.00000  Uiso   1.00
C660   C     0.33651   0.16667   0.83333   0.00000  Uiso   1.00
Zn661  Zn    0.25000   0.16667   0.89426   0.00000  Uiso   1.00
Zn662  Zn    0.25000   0.16667   0.77241   0.00000  Uiso   1.00
N663   N     0.25000   0.16667   0.69121   0.00000  Uiso   1.00
N664   N     0.25000   0.16667   0.97545   0.00000  Uiso   1.00
C665   C     0.40643   0.21227   0.84051   0.00000  Uiso   1.00
C666   C     0.09358   0.12106   0.82616   0.00000  Uiso   1.00
C667   C     0.40642   0.12106   0.82616   0.00000  Uiso   1.00
C668   C     0.09357   0.21227   0.84051   0.00000  Uiso   1.00
C669   C     0.38403   0.16667   0.83333   0.00000  Uiso   1.00
C670   C     0.11597   0.16667   0.83333   0.00000  Uiso   1.00
C671   C     0.45306   0.12184   0.82133   0.00000  Uiso   1.00
C672   C     0.04693   0.21149   0.84535   0.00000  Uiso   1.00
C673   C     0.45307   0.21149   0.84535   0.00000  Uiso   1.00
C674   C     0.04693   0.12184   0.82133   0.00000  Uiso   1.00
C675   C     0.47649   0.16666   0.83334   0.00000  Uiso   1.00
C676   C     0.02351   0.16666   0.83334   0.00000  Uiso   1.00
C677   C     0.47705   0.07917   0.80492   0.00000  Uiso   1.00
C678   C     0.02295   0.25416   0.86176   0.00000  Uiso   1.00
C679   C     0.47705   0.25416   0.86176   0.00000  Uiso   1.00
C680   C     0.02295   0.07917   0.80492   0.00000  Uiso   1.00
C681   C     0.25000   0.02174   0.83339   0.00000  Uiso   1.00
C682   C     0.25000   0.31159   0.83328   0.00000  Uiso   1.00
F683   F     0.45681   0.03726   0.78596   0.00000  Uiso   1.00
F684   F     0.04319   0.29606   0.88073   0.00000  Uiso   1.00
F685   F     0.45681   0.29606   0.88073   0.00000  Uiso   1.00
F686   F     0.04319   0.03726   0.78596   0.00000  Uiso   1.00
C687   C     0.38063   0.26134   0.84103   0.00000  Uiso   1.00
H688   H     0.34627   0.25818   0.82502   0.00000  Uiso   1.00
H689   H     0.37840   0.27598   0.88353   0.00000  Uiso   1.00
H690   H     0.39712   0.28891   0.81363   0.00000  Uiso   1.00
C691   C     0.11937   0.07199   0.82564   0.00000  Uiso   1.00
H692   H     0.15374   0.07515   0.84163   0.00000  Uiso   1.00
H693   H     0.10289   0.04442   0.85304   0.00000  Uiso   1.00
H694   H     0.12159   0.05735   0.78313   0.00000  Uiso   1.00
C695   C     0.38063   0.07199   0.82564   0.00000  Uiso   1.00
H696   H     0.34626   0.07515   0.84164   0.00000  Uiso   1.00
H697   H     0.37840   0.05735   0.78313   0.00000  Uiso   1.00
H698   H     0.39711   0.04442   0.85304   0.00000  Uiso   1.00
C699   C     0.11937   0.26134   0.84103   0.00000  Uiso   1.00
H700   H     0.15373   0.25818   0.82501   0.00000  Uiso   1.00
H701   H     0.10288   0.28891   0.81363   0.00000  Uiso   1.00
H702   H     0.12160   0.27598   0.88353   0.00000  Uiso   1.00
O703   O     0.75000   0.09512   0.87895   0.00000  Uiso   1.00
O704   O     0.75000   0.23822   0.78772   0.00000  Uiso   1.00
O705   O     0.75000   0.23822   0.87895   0.00000  Uiso   1.00
O706   O     0.75000   0.09512   0.78772   0.00000  Uiso   1.00
C707   C     0.75000   0.07269   0.83337   0.00000  Uiso   1.00
C708   C     0.75000   0.26064   0.83329   0.00000  Uiso   1.00
O709   O     0.68392   0.16667   0.87896   0.00000  Uiso   1.00
O710   O     0.81607   0.16667   0.78770   0.00000  Uiso   1.00
O711   O     0.81607   0.16667   0.87896   0.00000  Uiso   1.00
O712   O     0.68392   0.16667   0.78770   0.00000  Uiso   1.00
C713   C     0.66349   0.16667   0.83333   0.00000  Uiso   1.00
C714   C     0.83651   0.16667   0.83333   0.00000  Uiso   1.00
Zn715  Zn    0.75000   0.16667   0.89426   0.00000  Uiso   1.00
Zn716  Zn    0.75000   0.16667   0.77241   0.00000  Uiso   1.00
N717   N     0.75000   0.16667   0.69121   0.00000  Uiso   1.00
N718   N     0.75000   0.16667   0.97545   0.00000  Uiso   1.00
C719   C     0.90643   0.21227   0.84051   0.00000  Uiso   1.00
C720   C     0.59358   0.12106   0.82616   0.00000  Uiso   1.00
C721   C     0.90642   0.12106   0.82616   0.00000  Uiso   1.00
C722   C     0.59357   0.21227   0.84051   0.00000  Uiso   1.00
C723   C     0.88403   0.16667   0.83333   0.00000  Uiso   1.00
C724   C     0.61597   0.16667   0.83333   0.00000  Uiso   1.00
C725   C     0.95306   0.12184   0.82133   0.00000  Uiso   1.00
C726   C     0.54693   0.21149   0.84535   0.00000  Uiso   1.00
C727   C     0.95307   0.21149   0.84535   0.00000  Uiso   1.00
C728   C     0.54693   0.12184   0.82133   0.00000  Uiso   1.00
C729   C     0.97649   0.16666   0.83334   0.00000  Uiso   1.00
C730   C     0.52351   0.16666   0.83334   0.00000  Uiso   1.00
C731   C     0.97705   0.07917   0.80492   0.00000  Uiso   1.00
C732   C     0.52295   0.25416   0.86176   0.00000  Uiso   1.00
C733   C     0.97705   0.25416   0.86176   0.00000  Uiso   1.00
C734   C     0.52295   0.07917   0.80492   0.00000  Uiso   1.00
C735   C     0.75000   0.02174   0.83339   0.00000  Uiso   1.00
C736   C     0.75000   0.31159   0.83328   0.00000  Uiso   1.00
F737   F     0.95681   0.03726   0.78596   0.00000  Uiso   1.00
F738   F     0.54319   0.29606   0.88073   0.00000  Uiso   1.00
F739   F     0.95681   0.29606   0.88073   0.00000  Uiso   1.00
F740   F     0.54319   0.03726   0.78596   0.00000  Uiso   1.00
C741   C     0.88063   0.26134   0.84103   0.00000  Uiso   1.00
H742   H     0.84627   0.25818   0.82502   0.00000  Uiso   1.00
H743   H     0.87840   0.27598   0.88353   0.00000  Uiso   1.00
H744   H     0.89712   0.28891   0.81363   0.00000  Uiso   1.00
C745   C     0.61937   0.07199   0.82564   0.00000  Uiso   1.00
H746   H     0.65374   0.07515   0.84163   0.00000  Uiso   1.00
H747   H     0.60289   0.04442   0.85304   0.00000  Uiso   1.00
H748   H     0.62159   0.05735   0.78313   0.00000  Uiso   1.00
C749   C     0.88063   0.07199   0.82564   0.00000  Uiso   1.00
H750   H     0.84626   0.07515   0.84164   0.00000  Uiso   1.00
H751   H     0.87840   0.05735   0.78313   0.00000  Uiso   1.00
H752   H     0.89711   0.04442   0.85304   0.00000  Uiso   1.00
C753   C     0.61937   0.26134   0.84103   0.00000  Uiso   1.00
H754   H     0.65373   0.25818   0.82501   0.00000  Uiso   1.00
H755   H     0.60288   0.28891   0.81363   0.00000  Uiso   1.00
H756   H     0.62160   0.27598   0.88353   0.00000  Uiso   1.00
O757   O     0.25000   0.42845   0.87895   0.00000  Uiso   1.00
O758   O     0.25000   0.57155   0.78772   0.00000  Uiso   1.00
O759   O     0.25000   0.57155   0.87895   0.00000  Uiso   1.00
O760   O     0.25000   0.42845   0.78772   0.00000  Uiso   1.00
C761   C     0.25000   0.40602   0.83337   0.00000  Uiso   1.00
C762   C     0.25000   0.59398   0.83329   0.00000  Uiso   1.00
O763   O     0.18392   0.50000   0.87896   0.00000  Uiso   1.00
O764   O     0.31607   0.50000   0.78770   0.00000  Uiso   1.00
O765   O     0.31607   0.50000   0.87896   0.00000  Uiso   1.00
O766   O     0.18392   0.50000   0.78770   0.00000  Uiso   1.00
C767   C     0.16349   0.50000   0.83333   0.00000  Uiso   1.00
C768   C     0.33651   0.50000   0.83333   0.00000  Uiso   1.00
Zn769  Zn    0.25000   0.50000   0.89426   0.00000  Uiso   1.00
Zn770  Zn    0.25000   0.50000   0.77241   0.00000  Uiso   1.00
N771   N     0.25000   0.50000   0.69121   0.00000  Uiso   1.00
N772   N     0.25000   0.50000   0.97545   0.00000  Uiso   1.00
C773   C     0.40643   0.54561   0.84051   0.00000  Uiso   1.00
C774   C     0.09358   0.45439   0.82616   0.00000  Uiso   1.00
C775   C     0.40642   0.45439   0.82616   0.00000  Uiso   1.00
C776   C     0.09357   0.54561   0.84051   0.00000  Uiso   1.00
C777   C     0.38403   0.50000   0.83333   0.00000  Uiso   1.00
C778   C     0.11597   0.50000   0.83333   0.00000  Uiso   1.00
C779   C     0.45306   0.45517   0.82133   0.00000  Uiso   1.00
C780   C     0.04693   0.54482   0.84535   0.00000  Uiso   1.00
C781   C     0.45307   0.54482   0.84535   0.00000  Uiso   1.00
C782   C     0.04693   0.45517   0.82133   0.00000  Uiso   1.00
C783   C     0.47649   0.50000   0.83334   0.00000  Uiso   1.00
C784   C     0.02351   0.50000   0.83334   0.00000  Uiso   1.00
C785   C     0.47705   0.41250   0.80492   0.00000  Uiso   1.00
C786   C     0.02295   0.58749   0.86176   0.00000  Uiso   1.00
C787   C     0.47705   0.58749   0.86176   0.00000  Uiso   1.00
C788   C     0.02295   0.41250   0.80492   0.00000  Uiso   1.00
C789   C     0.25000   0.35508   0.83339   0.00000  Uiso   1.00
C790   C     0.25000   0.64492   0.83328   0.00000  Uiso   1.00
F791   F     0.45681   0.37060   0.78596   0.00000  Uiso   1.00
F792   F     0.04319   0.62939   0.88073   0.00000  Uiso   1.00
F793   F     0.45681   0.62939   0.88073   0.00000  Uiso   1.00
F794   F     0.04319   0.37060   0.78596   0.00000  Uiso   1.00
C795   C     0.38063   0.59467   0.84103   0.00000  Uiso   1.00
H796   H     0.34627   0.59151   0.82502   0.00000  Uiso   1.00
H797   H     0.37840   0.60931   0.88353   0.00000  Uiso   1.00
H798   H     0.39712   0.62224   0.81363   0.00000  Uiso   1.00
C799   C     0.11937   0.40532   0.82564   0.00000  Uiso   1.00
H800   H     0.15374   0.40849   0.84163   0.00000  Uiso   1.00
H801   H     0.10289   0.37776   0.85304   0.00000  Uiso   1.00
H802   H     0.12159   0.39068   0.78313   0.00000  Uiso   1.00
C803   C     0.38063   0.40532   0.82564   0.00000  Uiso   1.00
H804   H     0.34626   0.40849   0.84164   0.00000  Uiso   1.00
H805   H     0.37840   0.39068   0.78313   0.00000  Uiso   1.00
H806   H     0.39711   0.37776   0.85304   0.00000  Uiso   1.00
C807   C     0.11937   0.59467   0.84103   0.00000  Uiso   1.00
H808   H     0.15373   0.59151   0.82501   0.00000  Uiso   1.00
H809   H     0.10288   0.62224   0.81363   0.00000  Uiso   1.00
H810   H     0.12160   0.60931   0.88353   0.00000  Uiso   1.00
O811   O     0.75000   0.42845   0.87895   0.00000  Uiso   1.00
O812   O     0.75000   0.57155   0.78772   0.00000  Uiso   1.00
O813   O     0.75000   0.57155   0.87895   0.00000  Uiso   1.00
O814   O     0.75000   0.42845   0.78772   0.00000  Uiso   1.00
C815   C     0.75000   0.40602   0.83337   0.00000  Uiso   1.00
C816   C     0.75000   0.59398   0.83329   0.00000  Uiso   1.00
O817   O     0.68392   0.50000   0.87896   0.00000  Uiso   1.00
O818   O     0.81607   0.50000   0.78770   0.00000  Uiso   1.00
O819   O     0.81607   0.50000   0.87896   0.00000  Uiso   1.00
O820   O     0.68392   0.50000   0.78770   0.00000  Uiso   1.00
C821   C     0.66349   0.50000   0.83333   0.00000  Uiso   1.00
C822   C     0.83651   0.50000   0.83333   0.00000  Uiso   1.00
Zn823  Zn    0.75000   0.50000   0.89426   0.00000  Uiso   1.00
Zn824  Zn    0.75000   0.50000   0.77241   0.00000  Uiso   1.00
N825   N     0.75000   0.50000   0.69121   0.00000  Uiso   1.00
N826   N     0.75000   0.50000   0.97545   0.00000  Uiso   1.00
C827   C     0.90643   0.54561   0.84051   0.00000  Uiso   1.00
C828   C     0.59358   0.45439   0.82616   0.00000  Uiso   1.00
C829   C     0.90642   0.45439   0.82616   0.00000  Uiso   1.00
C830   C     0.59357   0.54561   0.84051   0.00000  Uiso   1.00
C831   C     0.88403   0.50000   0.83333   0.00000  Uiso   1.00
C832   C     0.61597   0.50000   0.83333   0.00000  Uiso   1.00
C833   C     0.95306   0.45517   0.82133   0.00000  Uiso   1.00
C834   C     0.54693   0.54482   0.84535   0.00000  Uiso   1.00
C835   C     0.95307   0.54482   0.84535   0.00000  Uiso   1.00
C836   C     0.54693   0.45517   0.82133   0.00000  Uiso   1.00
C837   C     0.97649   0.50000   0.83334   0.00000  Uiso   1.00
C838   C     0.52351   0.50000   0.83334   0.00000  Uiso   1.00
C839   C     0.97705   0.41250   0.80492   0.00000  Uiso   1.00
C840   C     0.52295   0.58749   0.86176   0.00000  Uiso   1.00
C841   C     0.97705   0.58749   0.86176   0.00000  Uiso   1.00
C842   C     0.52295   0.41250   0.80492   0.00000  Uiso   1.00
C843   C     0.75000   0.35508   0.83339   0.00000  Uiso   1.00
C844   C     0.75000   0.64492   0.83328   0.00000  Uiso   1.00
F845   F     0.95681   0.37060   0.78596   0.00000  Uiso   1.00
F846   F     0.54319   0.62939   0.88073   0.00000  Uiso   1.00
F847   F     0.95681   0.62939   0.88073   0.00000  Uiso   1.00
F848   F     0.54319   0.37060   0.78596   0.00000  Uiso   1.00
C849   C     0.88063   0.59467   0.84103   0.00000  Uiso   1.00
H850   H     0.84627   0.59151   0.82502   0.00000  Uiso   1.00
H851   H     0.87840   0.60931   0.88353   0.00000  Uiso   1.00
H852   H     0.89712   0.62224   0.81363   0.00000  Uiso   1.00
C853   C     0.61937   0.40532   0.82564   0.00000  Uiso   1.00
H854   H     0.65374   0.40849   0.84163   0.00000  Uiso   1.00
H855   H     0.60289   0.37776   0.85304   0.00000  Uiso   1.00
H856   H     0.62159   0.39068   0.78313   0.00000  Uiso   1.00
C857   C     0.88063   0.40532   0.82564   0.00000  Uiso   1.00
H858   H     0.84626   0.40849   0.84164   0.00000  Uiso   1.00
H859   H     0.87840   0.39068   0.78313   0.00000  Uiso   1.00
H860   H     0.89711   0.37776   0.85304   0.00000  Uiso   1.00
C861   C     0.61937   0.59467   0.84103   0.00000  Uiso   1.00
H862   H     0.65373   0.59151   0.82501   0.00000  Uiso   1.00
H863   H     0.60288   0.62224   0.81363   0.00000  Uiso   1.00
H864   H     0.62160   0.60931   0.88353   0.00000  Uiso   1.00
O865   O     0.25000   0.76178   0.87895   0.00000  Uiso   1.00
O866   O     0.25000   0.90488   0.78772   0.00000  Uiso   1.00
O867   O     0.25000   0.90488   0.87895   0.00000  Uiso   1.00
O868   O     0.25000   0.76178   0.78772   0.00000  Uiso   1.00
C869   C     0.25000   0.73936   0.83337   0.00000  Uiso   1.00
C870   C     0.25000   0.92731   0.83329   0.00000  Uiso   1.00
O871   O     0.18392   0.83333   0.87896   0.00000  Uiso   1.00
O872   O     0.31607   0.83333   0.78770   0.00000  Uiso   1.00
O873   O     0.31607   0.83333   0.87896   0.00000  Uiso   1.00
O874   O     0.18392   0.83333   0.78770   0.00000  Uiso   1.00
C875   C     0.16349   0.83333   0.83333   0.00000  Uiso   1.00
C876   C     0.33651   0.83333   0.83333   0.00000  Uiso   1.00
Zn877  Zn    0.25000   0.83333   0.89426   0.00000  Uiso   1.00
Zn878  Zn    0.25000   0.83333   0.77241   0.00000  Uiso   1.00
N879   N     0.25000   0.83333   0.69121   0.00000  Uiso   1.00
N880   N     0.25000   0.83333   0.97545   0.00000  Uiso   1.00
C881   C     0.40643   0.87894   0.84051   0.00000  Uiso   1.00
C882   C     0.09358   0.78772   0.82616   0.00000  Uiso   1.00
C883   C     0.40642   0.78772   0.82616   0.00000  Uiso   1.00
C884   C     0.09357   0.87894   0.84051   0.00000  Uiso   1.00
C885   C     0.38403   0.83333   0.83333   0.00000  Uiso   1.00
C886   C     0.11597   0.83333   0.83333   0.00000  Uiso   1.00
C887   C     0.45306   0.78850   0.82133   0.00000  Uiso   1.00
C888   C     0.04693   0.87816   0.84535   0.00000  Uiso   1.00
C889   C     0.45307   0.87816   0.84535   0.00000  Uiso   1.00
C890   C     0.04693   0.78850   0.82133   0.00000  Uiso   1.00
C891   C     0.47649   0.83333   0.83334   0.00000  Uiso   1.00
C892   C     0.02351   0.83333   0.83334   0.00000  Uiso   1.00
C893   C     0.47705   0.74583   0.80492   0.00000  Uiso   1.00
C894   C     0.02295   0.92082   0.86176   0.00000  Uiso   1.00
C895   C     0.47705   0.92083   0.86176   0.00000  Uiso   1.00
C896   C     0.02295   0.74583   0.80492   0.00000  Uiso   1.00
C897   C     0.25000   0.68841   0.83339   0.00000  Uiso   1.00
C898   C     0.25000   0.97826   0.83328   0.00000  Uiso   1.00
F899   F     0.45681   0.70393   0.78596   0.00000  Uiso   1.00
F900   F     0.04319   0.96272   0.88073   0.00000  Uiso   1.00
F901   F     0.45681   0.96273   0.88073   0.00000  Uiso   1.00
F902   F     0.04319   0.70393   0.78596   0.00000  Uiso   1.00
C903   C     0.38063   0.92801   0.84103   0.00000  Uiso   1.00
H904   H     0.34627   0.92485   0.82502   0.00000  Uiso   1.00
H905   H     0.37840   0.94265   0.88353   0.00000  Uiso   1.00
H906   H     0.39712   0.95558   0.81363   0.00000  Uiso   1.00
C907   C     0.11937   0.73866   0.82564   0.00000  Uiso   1.00
H908   H     0.15374   0.74182   0.84163   0.00000  Uiso   1.00
H909   H     0.10289   0.71109   0.85304   0.00000  Uiso   1.00
H910   H     0.12159   0.72402   0.78313   0.00000  Uiso   1.00
C911   C     0.38063   0.73866   0.82564   0.00000  Uiso   1.00
H912   H     0.34626   0.74182   0.84164   0.00000  Uiso   1.00
H913   H     0.37840   0.72402   0.78313   0.00000  Uiso   1.00
H914   H     0.39711   0.71109   0.85304   0.00000  Uiso   1.00
C915   C     0.11937   0.92801   0.84103   0.00000  Uiso   1.00
H916   H     0.15373   0.92485   0.82501   0.00000  Uiso   1.00
H917   H     0.10288   0.95558   0.81363   0.00000  Uiso   1.00
H918   H     0.12160   0.94264   0.88353   0.00000  Uiso   1.00
O919   O     0.75000   0.76178   0.87895   0.00000  Uiso   1.00
O920   O     0.75000   0.90488   0.78772   0.00000  Uiso   1.00
O921   O     0.75000   0.90488   0.87895   0.00000  Uiso   1.00
O922   O     0.75000   0.76178   0.78772   0.00000  Uiso   1.00
C923   C     0.75000   0.73936   0.83337   0.00000  Uiso   1.00
C924   C     0.75000   0.92731   0.83329   0.00000  Uiso   1.00
O925   O     0.68392   0.83333   0.87896   0.00000  Uiso   1.00
O926   O     0.81607   0.83333   0.78770   0.00000  Uiso   1.00
O927   O     0.81607   0.83333   0.87896   0.00000  Uiso   1.00
O928   O     0.68392   0.83333   0.78770   0.00000  Uiso   1.00
C929   C     0.66349   0.83333   0.83333   0.00000  Uiso   1.00
C930   C     0.83651   0.83333   0.83333   0.00000  Uiso   1.00
Zn931  Zn    0.75000   0.83333   0.89426   0.00000  Uiso   1.00
Zn932  Zn    0.75000   0.83333   0.77241   0.00000  Uiso   1.00
N933   N     0.75000   0.83333   0.69121   0.00000  Uiso   1.00
N934   N     0.75000   0.83333   0.97545   0.00000  Uiso   1.00
C935   C     0.90643   0.87894   0.84051   0.00000  Uiso   1.00
C936   C     0.59358   0.78772   0.82616   0.00000  Uiso   1.00
C937   C     0.90642   0.78772   0.82616   0.00000  Uiso   1.00
C938   C     0.59357   0.87894   0.84051   0.00000  Uiso   1.00
C939   C     0.88403   0.83333   0.83333   0.00000  Uiso   1.00
C940   C     0.61597   0.83333   0.83333   0.00000  Uiso   1.00
C941   C     0.95306   0.78850   0.82133   0.00000  Uiso   1.00
C942   C     0.54693   0.87816   0.84535   0.00000  Uiso   1.00
C943   C     0.95307   0.87816   0.84535   0.00000  Uiso   1.00
C944   C     0.54693   0.78850   0.82133   0.00000  Uiso   1.00
C945   C     0.97649   0.83333   0.83334   0.00000  Uiso   1.00
C946   C     0.52351   0.83333   0.83334   0.00000  Uiso   1.00
C947   C     0.97705   0.74583   0.80492   0.00000  Uiso   1.00
C948   C     0.52295   0.92082   0.86176   0.00000  Uiso   1.00
C949   C     0.97705   0.92083   0.86176   0.00000  Uiso   1.00
C950   C     0.52295   0.74583   0.80492   0.00000  Uiso   1.00
C951   C     0.75000   0.68841   0.83339   0.00000  Uiso   1.00
C952   C     0.75000   0.97826   0.83328   0.00000  Uiso   1.00
F953   F     0.95681   0.70393   0.78596   0.00000  Uiso   1.00
F954   F     0.54319   0.96272   0.88073   0.00000  Uiso   1.00
F955   F     0.95681   0.96273   0.88073   0.00000  Uiso   1.00
F956   F     0.54319   0.70393   0.78596   0.00000  Uiso   1.00
C957   C     0.88063   0.92801   0.84103   0.00000  Uiso   1.00
H958   H     0.84627   0.92485   0.82502   0.00000  Uiso   1.00
H959   H     0.87840   0.94265   0.88353   0.00000  Uiso   1.00
H960   H     0.89712   0.95558   0.81363   0.00000  Uiso   1.00
C961   C     0.61937   0.73866   0.82564   0.00000  Uiso   1.00
H962   H     0.65374   0.74182   0.84163   0.00000  Uiso   1.00
H963   H     0.60289   0.71109   0.85304   0.00000  Uiso   1.00
H964   H     0.62159   0.72402   0.78313   0.00000  Uiso   1.00
C965   C     0.88063   0.73866   0.82564   0.00000  Uiso   1.00
H966   H     0.84626   0.74182   0.84164   0.00000  Uiso   1.00
H967   H     0.87840   0.72402   0.78313   0.00000  Uiso   1.00
H968   H     0.89711   0.71109   0.85304   0.00000  Uiso   1.00
C969   C     0.61937   0.92801   0.84103   0.00000  Uiso   1.00
H970   H     0.65373   0.92485   0.82501   0.00000  Uiso   1.00
H971   H     0.60288   0.95558   0.81363   0.00000  Uiso   1.00
H972   H     0.62160   0.94264   0.88353   0.00000  Uiso   1.00
loop_
_geom_bond_atom_site_label_1
_geom_bond_atom_site_label_2
_geom_bond_distance
_geom_bond_site_symmetry_2
_ccdc_geom_bond_type
O1     C5      1.263   .     A
O1     Zn13    1.952   .     S
O2     C6      1.263   .     A
O2     Zn14    1.952   .     S
O3     Zn13    1.950   .     S
O3     C6      1.262   .     A
O4     Zn14    1.950   .     S
O4     C5      1.262   .     A
C5     C33     1.363   .     S
C6     C34     1.363   .     S
O7     C11     1.270   .     A
O7     Zn13    2.019   .     S
O8     C12     1.270   .     A
O8     Zn14    2.019   .     S
O9     C12     1.270   .     A
O9     Zn13    2.019   .     S
O10    C11     1.270   .     A
O10    Zn14    2.019   .     S
C11    C22     1.427   .     S
C12    C21     1.427   .     S
Zn13   N16     1.978   .     S
Zn14   N15     1.978   .     S
N15    N664    1.196   1_554 S
N16    N339    1.196   .     S
C17    C25     1.405   .     A
C17    C39     1.525   .     S
C17    C21     1.405   .     A
C18    C22     1.405   .     A
C18    C43     1.525   .     S
C18    C26     1.405   .     A
C19    C23     1.405   .     A
C19    C21     1.405   .     A
C19    C47     1.525   .     S
C20    C51     1.525   .     S
C20    C22     1.405   .     A
C20    C24     1.405   .     A
C23    C27     1.422   .     A
C23    C29     1.409   .     A
C24    C30     1.409   .     A
C24    C28     1.422   .     A
C25    C31     1.409   .     A
C25    C27     1.422   .     A
C26    C32     1.409   .     A
C26    C28     1.422   .     A
C27    C82     1.412   .     S
C28    C81     1.412   1_455 S
C29    F35     1.357   .     S
C29    C86     1.378   .     S
C30    F36     1.357   .     S
C30    C85     1.378   1_455 S
C31    F37     1.357   .     S
C31    C84     1.378   .     S
C32    F38     1.357   .     S
C32    C83     1.378   1_455 S
C33    C250    1.164   1_545 S
C34    C141    1.164   .     S
C39    H41     1.110   .     S
C39    H40     1.106   .     S
C39    H42     1.110   .     S
C43    H44     1.106   .     S
C43    H45     1.110   .     S
C43    H46     1.110   .     S
C47    H48     1.106   .     S
C47    H50     1.110   .     S
C47    H49     1.110   .     S
C51    H54     1.110   .     S
C51    H52     1.106   .     S
C51    H53     1.110   .     S
O55    C59     1.263   .     A
O55    Zn67    1.952   .     S
O56    C60     1.263   .     A
O56    Zn68    1.952   .     S
O57    Zn67    1.950   .     S
O57    C60     1.262   .     A
O58    Zn68    1.950   .     S
O58    C59     1.262   .     A
C59    C87     1.363   .     S
C60    C88     1.363   .     S
O61    C65     1.270   .     A
O61    Zn67    2.019   .     S
O62    C66     1.270   .     A
O62    Zn68    2.019   .     S
O63    C66     1.270   .     A
O63    Zn67    2.019   .     S
O64    C65     1.270   .     A
O64    Zn68    2.019   .     S
C65    C76     1.427   .     S
C66    C75     1.427   .     S
Zn67   N70     1.978   .     S
Zn68   N69     1.978   .     S
N69    N718    1.196   1_554 S
N70    N393    1.196   .     S
C71    C79     1.405   .     A
C71    C93     1.525   .     S
C71    C75     1.405   .     A
C72    C76     1.405   .     A
C72    C97     1.525   .     S
C72    C80     1.405   .     A
C73    C77     1.405   .     A
C73    C75     1.405   .     A
C73    C101    1.525   .     S
C74    C105    1.525   .     S
C74    C76     1.405   .     A
C74    C78     1.405   .     A
C77    C81     1.422   .     A
C77    C83     1.409   .     A
C78    C84     1.409   .     A
C78    C82     1.422   .     A
C79    C85     1.409   .     A
C79    C81     1.422   .     A
C80    C86     1.409   .     A
C80    C82     1.422   .     A
C81    C28     1.412   1_655 S
C83    F89     1.357   .     S
C83    C32     1.378   1_655 S
C84    F90     1.357   .     S
C85    F91     1.357   .     S
C85    C30     1.378   1_655 S
C86    F92     1.357   .     S
C87    C304    1.164   1_545 S
C88    C195    1.164   .     S
C93    H95     1.110   .     S
C93    H94     1.106   .     S
C93    H96     1.110   .     S
C97    H98     1.106   .     S
C97    H99     1.110   .     S
C97    H100    1.110   .     S
C101   H102    1.106   .     S
C101   H104    1.110   .     S
C101   H103    1.110   .     S
C105   H108    1.110   .     S
C105   H106    1.106   .     S
C105   H107    1.110   .     S
O109   C113    1.263   .     A
O109   Zn121   1.952   .     S
O110   C114    1.263   .     A
O110   Zn122   1.952   .     S
O111   Zn121   1.950   .     S
O111   C114    1.262   .     A
O112   Zn122   1.950   .     S
O112   C113    1.262   .     A
C113   C141    1.363   .     S
C114   C142    1.363   .     S
O115   C119    1.270   .     A
O115   Zn121   2.019   .     S
O116   C120    1.270   .     A
O116   Zn122   2.019   .     S
O117   C120    1.270   .     A
O117   Zn121   2.019   .     S
O118   C119    1.270   .     A
O118   Zn122   2.019   .     S
C119   C130    1.427   .     S
C120   C129    1.427   .     S
Zn121  N124    1.978   .     S
Zn122  N123    1.978   .     S
N123   N772    1.196   1_554 S
N124   N447    1.196   .     S
C125   C133    1.405   .     A
C125   C147    1.525   .     S
C125   C129    1.405   .     A
C126   C130    1.405   .     A
C126   C151    1.525   .     S
C126   C134    1.405   .     A
C127   C131    1.405   .     A
C127   C129    1.405   .     A
C127   C155    1.525   .     S
C128   C159    1.525   .     S
C128   C130    1.405   .     A
C128   C132    1.405   .     A
C131   C135    1.422   .     A
C131   C137    1.409   .     A
C132   C138    1.409   .     A
C132   C136    1.422   .     A
C133   C139    1.409   .     A
C133   C135    1.422   .     A
C134   C140    1.409   .     A
C134   C136    1.422   .     A
C135   C190    1.412   .     S
C136   C189    1.412   1_455 S
C137   F143    1.357   .     S
C137   C194    1.378   .     S
C138   F144    1.357   .     S
C138   C193    1.378   1_455 S
C139   F145    1.357   .     S
C139   C192    1.378   .     S
C140   F146    1.357   .     S
C140   C191    1.378   1_455 S
C142   C249    1.164   .     S
C147   H149    1.110   .     S
C147   H148    1.106   .     S
C147   H150    1.110   .     S
C151   H152    1.106   .     S
C151   H153    1.110   .     S
C151   H154    1.110   .     S
C155   H156    1.106   .     S
C155   H158    1.110   .     S
C155   H157    1.110   .     S
C159   H162    1.110   .     S
C159   H160    1.106   .     S
C159   H161    1.110   .     S
O163   C167    1.263   .     A
O163   Zn175   1.952   .     S
O164   C168    1.263   .     A
O164   Zn176   1.952   .     S
O165   Zn175   1.950   .     S
O165   C168    1.262   .     A
O166   Zn176   1.950   .     S
O166   C167    1.262   .     A
C167   C195    1.363   .     S
C168   C196    1.363   .     S
O169   C173    1.270   .     A
O169   Zn175   2.019   .     S
O170   C174    1.270   .     A
O170   Zn176   2.019   .     S
O171   C174    1.270   .     A
O171   Zn175   2.019   .     S
O172   C173    1.270   .     A
O172   Zn176   2.019   .     S
C173   C184    1.427   .     S
C174   C183    1.427   .     S
Zn175  N178    1.978   .     S
Zn176  N177    1.978   .     S
N177   N826    1.196   1_554 S
N178   N501    1.196   .     S
C179   C187    1.405   .     A
C179   C201    1.525   .     S
C179   C183    1.405   .     A
C180   C184    1.405   .     A
C180   C205    1.525   .     S
C180   C188    1.405   .     A
C181   C185    1.405   .     A
C181   C183    1.405   .     A
C181   C209    1.525   .     S
C182   C213    1.525   .     S
C182   C184    1.405   .     A
C182   C186    1.405   .     A
C185   C189    1.422   .     A
C185   C191    1.409   .     A
C186   C192    1.409   .     A
C186   C190    1.422   .     A
C187   C193    1.409   .     A
C187   C189    1.422   .     A
C188   C194    1.409   .     A
C188   C190    1.422   .     A
C189   C136    1.412   1_655 S
C191   F197    1.357   .     S
C191   C140    1.378   1_655 S
C192   F198    1.357   .     S
C193   F199    1.357   .     S
C193   C138    1.378   1_655 S
C194   F200    1.357   .     S
C196   C303    1.164   .     S
C201   H203    1.110   .     S
C201   H202    1.106   .     S
C201   H204    1.110   .     S
C205   H206    1.106   .     S
C205   H207    1.110   .     S
C205   H208    1.110   .     S
C209   H210    1.106   .     S
C209   H212    1.110   .     S
C209   H211    1.110   .     S
C213   H216    1.110   .     S
C213   H214    1.106   .     S
C213   H215    1.110   .     S
O217   C221    1.263   .     A
O217   Zn229   1.952   .     S
O218   C222    1.263   .     A
O218   Zn230   1.952   .     S
O219   Zn229   1.950   .     S
O219   C222    1.262   .     A
O220   Zn230   1.950   .     S
O220   C221    1.262   .     A
C221   C249    1.363   .     S
C222   C250    1.363   .     S
O223   C227    1.270   .     A
O223   Zn229   2.019   .     S
O224   C228    1.270   .     A
O224   Zn230   2.019   .     S
O225   C228    1.270   .     A
O225   Zn229   2.019   .     S
O226   C227    1.270   .     A
O226   Zn230   2.019   .     S
C227   C238    1.427   .     S
C228   C237    1.427   .     S
Zn229  N232    1.978   .     S
Zn230  N231    1.978   .     S
N231   N880    1.196   1_554 S
N232   N555    1.196   .     S
C233   C241    1.405   .     A
C233   C255    1.525   .     S
C233   C237    1.405   .     A
C234   C238    1.405   .     A
C234   C259    1.525   .     S
C234   C242    1.405   .     A
C235   C239    1.405   .     A
C235   C237    1.405   .     A
C235   C263    1.525   .     S
C236   C267    1.525   .     S
C236   C238    1.405   .     A
C236   C240    1.405   .     A
C239   C243    1.422   .     A
C239   C245    1.409   .     A
C240   C246    1.409   .     A
C240   C244    1.422   .     A
C241   C247    1.409   .     A
C241   C243    1.422   .     A
C242   C248    1.409   .     A
C242   C244    1.422   .     A
C243   C298    1.412   .     S
C244   C297    1.412   1_455 S
C245   F251    1.357   .     S
C245   C302    1.378   .     S
C246   F252    1.357   .     S
C246   C301    1.378   1_455 S
C247   F253    1.357   .     S
C247   C300    1.378   .     S
C248   F254    1.357   .     S
C248   C299    1.378   1_455 S
C250   C33     1.164   1_565 S
C255   H257    1.110   .     S
C255   H256    1.106   .     S
C255   H258    1.110   .     S
C259   H260    1.106   .     S
C259   H261    1.110   .     S
C259   H262    1.110   .     S
C263   H264    1.106   .     S
C263   H266    1.110   .     S
C263   H265    1.110   .     S
C267   H270    1.110   .     S
C267   H268    1.106   .     S
C267   H269    1.110   .     S
O271   C275    1.263   .     A
O271   Zn283   1.952   .     S
O272   C276    1.263   .     A
O272   Zn284   1.952   .     S
O273   Zn283   1.950   .     S
O273   C276    1.262   .     A
O274   Zn284   1.950   .     S
O274   C275    1.262   .     A
C275   C303    1.363   .     S
C276   C304    1.363   .     S
O277   C281    1.270   .     A
O277   Zn283   2.019   .     S
O278   C282    1.270   .     A
O278   Zn284   2.019   .     S
O279   C282    1.270   .     A
O279   Zn283   2.019   .     S
O280   C281    1.270   .     A
O280   Zn284   2.019   .     S
C281   C292    1.427   .     S
C282   C291    1.427   .     S
Zn283  N286    1.978   .     S
Zn284  N285    1.978   .     S
N285   N934    1.196   1_554 S
N286   N609    1.196   .     S
C287   C295    1.405   .     A
C287   C309    1.525   .     S
C287   C291    1.405   .     A
C288   C292    1.405   .     A
C288   C313    1.525   .     S
C288   C296    1.405   .     A
C289   C293    1.405   .     A
C289   C291    1.405   .     A
C289   C317    1.525   .     S
C290   C321    1.525   .     S
C290   C292    1.405   .     A
C290   C294    1.405   .     A
C293   C297    1.422   .     A
C293   C299    1.409   .     A
C294   C300    1.409   .     A
C294   C298    1.422   .     A
C295   C301    1.409   .     A
C295   C297    1.422   .     A
C296   C302    1.409   .     A
C296   C298    1.422   .     A
C297   C244    1.412   1_655 S
C299   F305    1.357   .     S
C299   C248    1.378   1_655 S
C300   F306    1.357   .     S
C301   F307    1.357   .     S
C301   C246    1.378   1_655 S
C302   F308    1.357   .     S
C304   C87     1.164   1_565 S
C309   H311    1.110   .     S
C309   H310    1.106   .     S
C309   H312    1.110   .     S
C313   H314    1.106   .     S
C313   H315    1.110   .     S
C313   H316    1.110   .     S
C317   H318    1.106   .     S
C317   H320    1.110   .     S
C317   H319    1.110   .     S
C321   H324    1.110   .     S
C321   H322    1.106   .     S
C321   H323    1.110   .     S
O325   C329    1.263   .     A
O325   Zn337   1.952   .     S
O326   C330    1.263   .     A
O326   Zn338   1.952   .     S
O327   Zn337   1.950   .     S
O327   C330    1.262   .     A
O328   Zn338   1.950   .     S
O328   C329    1.262   .     A
C329   C357    1.363   .     S
C330   C358    1.363   .     S
O331   C335    1.270   .     A
O331   Zn337   2.019   .     S
O332   C336    1.270   .     A
O332   Zn338   2.019   .     S
O333   C336    1.270   .     A
O333   Zn337   2.019   .     S
O334   C335    1.270   .     A
O334   Zn338   2.019   .     S
C335   C346    1.427   .     S
C336   C345    1.427   .     S
Zn337  N340    1.978   .     S
Zn338  N339    1.978   .     S
N340   N663    1.196   .     S
C341   C349    1.405   .     A
C341   C363    1.525   .     S
C341   C345    1.405   .     A
C342   C346    1.405   .     A
C342   C367    1.525   .     S
C342   C350    1.405   .     A
C343   C347    1.405   .     A
C343   C345    1.405   .     A
C343   C371    1.525   .     S
C344   C375    1.525   .     S
C344   C346    1.405   .     A
C344   C348    1.405   .     A
C347   C351    1.422   .     A
C347   C353    1.409   .     A
C348   C354    1.409   .     A
C348   C352    1.422   .     A
C349   C355    1.409   .     A
C349   C351    1.422   .     A
C350   C356    1.409   .     A
C350   C352    1.422   .     A
C351   C406    1.412   .     S
C352   C405    1.412   1_455 S
C353   F359    1.357   .     S
C353   C410    1.378   .     S
C354   F360    1.357   .     S
C354   C409    1.378   1_455 S
C355   F361    1.357   .     S
C355   C408    1.378   .     S
C356   F362    1.357   .     S
C356   C407    1.378   1_455 S
C357   C574    1.164   1_545 S
C358   C465    1.164   .     S
C363   H365    1.110   .     S
C363   H364    1.106   .     S
C363   H366    1.110   .     S
C367   H368    1.106   .     S
C367   H369    1.110   .     S
C367   H370    1.110   .     S
C371   H372    1.106   .     S
C371   H374    1.110   .     S
C371   H373    1.110   .     S
C375   H378    1.110   .     S
C375   H376    1.106   .     S
C375   H377    1.110   .     S
O379   C383    1.263   .     A
O379   Zn391   1.952   .     S
O380   C384    1.263   .     A
O380   Zn392   1.952   .     S
O381   Zn391   1.950   .     S
O381   C384    1.262   .     A
O382   Zn392   1.950   .     S
O382   C383    1.262   .     A
C383   C411    1.363   .     S
C384   C412    1.363   .     S
O385   C389    1.270   .     A
O385   Zn391   2.019   .     S
O386   C390    1.270   .     A
O386   Zn392   2.019   .     S
O387   C390    1.270   .     A
O387   Zn391   2.019   .     S
O388   C389    1.270   .     A
O388   Zn392   2.019   .     S
C389   C400    1.427   .     S
C390   C399    1.427   .     S
Zn391  N394    1.978   .     S
Zn392  N393    1.978   .     S
N394   N717    1.196   .     S
C395   C403    1.405   .     A
C395   C417    1.525   .     S
C395   C399    1.405   .     A
C396   C400    1.405   .     A
C396   C421    1.525   .     S
C396   C404    1.405   .     A
C397   C401    1.405   .     A
C397   C399    1.405   .     A
C397   C425    1.525   .     S
C398   C429    1.525   .     S
C398   C400    1.405   .     A
C398   C402    1.405   .     A
C401   C405    1.422   .     A
C401   C407    1.409   .     A
C402   C408    1.409   .     A
C402   C406    1.422   .     A
C403   C409    1.409   .     A
C403   C405    1.422   .     A
C404   C410    1.409   .     A
C404   C406    1.422   .     A
C405   C352    1.412   1_655 S
C407   F413    1.357   .     S
C407   C356    1.378   1_655 S
C408   F414    1.357   .     S
C409   F415    1.357   .     S
C409   C354    1.378   1_655 S
C410   F416    1.357   .     S
C411   C628    1.164   1_545 S
C412   C519    1.164   .     S
C417   H419    1.110   .     S
C417   H418    1.106   .     S
C417   H420    1.110   .     S
C421   H422    1.106   .     S
C421   H423    1.110   .     S
C421   H424    1.110   .     S
C425   H426    1.106   .     S
C425   H428    1.110   .     S
C425   H427    1.110   .     S
C429   H432    1.110   .     S
C429   H430    1.106   .     S
C429   H431    1.110   .     S
O433   C437    1.263   .     A
O433   Zn445   1.952   .     S
O434   C438    1.263   .     A
O434   Zn446   1.952   .     S
O435   Zn445   1.950   .     S
O435   C438    1.262   .     A
O436   Zn446   1.950   .     S
O436   C437    1.262   .     A
C437   C465    1.363   .     S
C438   C466    1.363   .     S
O439   C443    1.270   .     A
O439   Zn445   2.019   .     S
O440   C444    1.270   .     A
O440   Zn446   2.019   .     S
O441   C444    1.270   .     A
O441   Zn445   2.019   .     S
O442   C443    1.270   .     A
O442   Zn446   2.019   .     S
C443   C454    1.427   .     S
C444   C453    1.427   .     S
Zn445  N448    1.978   .     S
Zn446  N447    1.978   .     S
N448   N771    1.196   .     S
C449   C457    1.405   .     A
C449   C471    1.525   .     S
C449   C453    1.405   .     A
C450   C454    1.405   .     A
C450   C475    1.525   .     S
C450   C458    1.405   .     A
C451   C455    1.405   .     A
C451   C453    1.405   .     A
C451   C479    1.525   .     S
C452   C483    1.525   .     S
C452   C454    1.405   .     A
C452   C456    1.405   .     A
C455   C459    1.422   .     A
C455   C461    1.409   .     A
C456   C462    1.409   .     A
C456   C460    1.422   .     A
C457   C463    1.409   .     A
C457   C459    1.422   .     A
C458   C464    1.409   .     A
C458   C460    1.422   .     A
C459   C514    1.412   .     S
C460   C513    1.412   1_455 S
C461   F467    1.357   .     S
C461   C518    1.378   .     S
C462   F468    1.357   .     S
C462   C517    1.378   1_455 S
C463   F469    1.357   .     S
C463   C516    1.378   .     S
C464   F470    1.357   .     S
C464   C515    1.378   1_455 S
C466   C573    1.164   .     S
C471   H473    1.110   .     S
C471   H472    1.106   .     S
C471   H474    1.110   .     S
C475   H476    1.106   .     S
C475   H477    1.110   .     S
C475   H478    1.110   .     S
C479   H480    1.106   .     S
C479   H482    1.110   .     S
C479   H481    1.110   .     S
C483   H486    1.110   .     S
C483   H484    1.106   .     S
C483   H485    1.110   .     S
O487   C491    1.263   .     A
O487   Zn499   1.952   .     S
O488   C492    1.263   .     A
O488   Zn500   1.952   .     S
O489   Zn499   1.950   .     S
O489   C492    1.262   .     A
O490   Zn500   1.950   .     S
O490   C491    1.262   .     A
C491   C519    1.363   .     S
C492   C520    1.363   .     S
O493   C497    1.270   .     A
O493   Zn499   2.019   .     S
O494   C498    1.270   .     A
O494   Zn500   2.019   .     S
O495   C498    1.270   .     A
O495   Zn499   2.019   .     S
O496   C497    1.270   .     A
O496   Zn500   2.019   .     S
C497   C508    1.427   .     S
C498   C507    1.427   .     S
Zn499  N502    1.978   .     S
Zn500  N501    1.978   .     S
N502   N825    1.196   .     S
C503   C511    1.405   .     A
C503   C525    1.525   .     S
C503   C507    1.405   .     A
C504   C508    1.405   .     A
C504   C529    1.525   .     S
C504   C512    1.405   .     A
C505   C509    1.405   .     A
C505   C507    1.405   .     A
C505   C533    1.525   .     S
C506   C537    1.525   .     S
C506   C508    1.405   .     A
C506   C510    1.405   .     A
C509   C513    1.422   .     A
C509   C515    1.409   .     A
C510   C516    1.409   .     A
C510   C514    1.422   .     A
C511   C517    1.409   .     A
C511   C513    1.422   .     A
C512   C518    1.409   .     A
C512   C514    1.422   .     A
C513   C460    1.412   1_655 S
C515   F521    1.357   .     S
C515   C464    1.378   1_655 S
C516   F522    1.357   .     S
C517   F523    1.357   .     S
C517   C462    1.378   1_655 S
C518   F524    1.357   .     S
C520   C627    1.164   .     S
C525   H527    1.110   .     S
C525   H526    1.106   .     S
C525   H528    1.110   .     S
C529   H530    1.106   .     S
C529   H531    1.110   .     S
C529   H532    1.110   .     S
C533   H534    1.106   .     S
C533   H536    1.110   .     S
C533   H535    1.110   .     S
C537   H540    1.110   .     S
C537   H538    1.106   .     S
C537   H539    1.110   .     S
O541   C545    1.263   .     A
O541   Zn553   1.952   .     S
O542   C546    1.263   .     A
O542   Zn554   1.952   .     S
O543   Zn553   1.950   .     S
O543   C546    1.262   .     A
O544   Zn554   1.950   .     S
O544   C545    1.262   .     A
C545   C573    1.363   .     S
C546   C574    1.363   .     S
O547   C551    1.270   .     A
O547   Zn553   2.019   .     S
O548   C552    1.270   .     A
O548   Zn554   2.019   .     S
O549   C552    1.270   .     A
O549   Zn553   2.019   .     S
O550   C551    1.270   .     A
O550   Zn554   2.019   .     S
C551   C562    1.427   .     S
C552   C561    1.427   .     S
Zn553  N556    1.978   .     S
Zn554  N555    1.978   .     S
N556   N879    1.196   .     S
C557   C565    1.405   .     A
C557   C579    1.525   .     S
C557   C561    1.405   .     A
C558   C562    1.405   .     A
C558   C583    1.525   .     S
C558   C566    1.405   .     A
C559   C563    1.405   .     A
C559   C561    1.405   .     A
C559   C587    1.525   .     S
C560   C591    1.525   .     S
C560   C562    1.405   .     A
C560   C564    1.405   .     A
C563   C567    1.422   .     A
C563   C569    1.409   .     A
C564   C570    1.409   .     A
C564   C568    1.422   .     A
C565   C571    1.409   .     A
C565   C567    1.422   .     A
C566   C572    1.409   .     A
C566   C568    1.422   .     A
C567   C622    1.412   .     S
C568   C621    1.412   1_455 S
C569   F575    1.357   .     S
C569   C626    1.378   .     S
C570   F576    1.357   .     S
C570   C625    1.378   1_455 S
C571   F577    1.357   .     S
C571   C624    1.378   .     S
C572   F578    1.357   .     S
C572   C623    1.378   1_455 S
C574   C357    1.164   1_565 S
C579   H581    1.110   .     S
C579   H580    1.106   .     S
C579   H582    1.110   .     S
C583   H584    1.106   .     S
C583   H585    1.110   .     S
C583   H586    1.110   .     S
C587   H588    1.106   .     S
C587   H590    1.110   .     S
C587   H589    1.110   .     S
C591   H594    1.110   .     S
C591   H592    1.106   .     S
C591   H593    1.110   .     S
O595   C599    1.263   .     A
O595   Zn607   1.952   .     S
O596   C600    1.263   .     A
O596   Zn608   1.952   .     S
O597   Zn607   1.950   .     S
O597   C600    1.262   .     A
O598   Zn608   1.950   .     S
O598   C599    1.262   .     A
C599   C627    1.363   .     S
C600   C628    1.363   .     S
O601   C605    1.270   .     A
O601   Zn607   2.019   .     S
O602   C606    1.270   .     A
O602   Zn608   2.019   .     S
O603   C606    1.270   .     A
O603   Zn607   2.019   .     S
O604   C605    1.270   .     A
O604   Zn608   2.019   .     S
C605   C616    1.427   .     S
C606   C615    1.427   .     S
Zn607  N610    1.978   .     S
Zn608  N609    1.978   .     S
N610   N933    1.196   .     S
C611   C619    1.405   .     A
C611   C633    1.525   .     S
C611   C615    1.405   .     A
C612   C616    1.405   .     A
C612   C637    1.525   .     S
C612   C620    1.405   .     A
C613   C617    1.405   .     A
C613   C615    1.405   .     A
C613   C641    1.525   .     S
C614   C645    1.525   .     S
C614   C616    1.405   .     A
C614   C618    1.405   .     A
C617   C621    1.422   .     A
C617   C623    1.409   .     A
C618   C624    1.409   .     A
C618   C622    1.422   .     A
C619   C625    1.409   .     A
C619   C621    1.422   .     A
C620   C626    1.409   .     A
C620   C622    1.422   .     A
C621   C568    1.412   1_655 S
C623   F629    1.357   .     S
C623   C572    1.378   1_655 S
C624   F630    1.357   .     S
C625   F631    1.357   .     S
C625   C570    1.378   1_655 S
C626   F632    1.357   .     S
C628   C411    1.164   1_565 S
C633   H635    1.110   .     S
C633   H634    1.106   .     S
C633   H636    1.110   .     S
C637   H638    1.106   .     S
C637   H639    1.110   .     S
C637   H640    1.110   .     S
C641   H642    1.106   .     S
C641   H644    1.110   .     S
C641   H643    1.110   .     S
C645   H648    1.110   .     S
C645   H646    1.106   .     S
C645   H647    1.110   .     S
O649   C653    1.263   .     A
O649   Zn661   1.952   .     S
O650   C654    1.263   .     A
O650   Zn662   1.952   .     S
O651   Zn661   1.950   .     S
O651   C654    1.262   .     A
O652   Zn662   1.950   .     S
O652   C653    1.262   .     A
C653   C681    1.363   .     S
C654   C682    1.363   .     S
O655   C659    1.270   .     A
O655   Zn661   2.019   .     S
O656   C660    1.270   .     A
O656   Zn662   2.019   .     S
O657   C660    1.270   .     A
O657   Zn661   2.019   .     S
O658   C659    1.270   .     A
O658   Zn662   2.019   .     S
C659   C670    1.427   .     S
C660   C669    1.427   .     S
Zn661  N664    1.978   .     S
Zn662  N663    1.978   .     S
N664   N15     1.196   1_556 S
C665   C673    1.405   .     A
C665   C687    1.525   .     S
C665   C669    1.405   .     A
C666   C670    1.405   .     A
C666   C691    1.525   .     S
C666   C674    1.405   .     A
C667   C671    1.405   .     A
C667   C669    1.405   .     A
C667   C695    1.525   .     S
C668   C699    1.525   .     S
C668   C670    1.405   .     A
C668   C672    1.405   .     A
C671   C675    1.422   .     A
C671   C677    1.409   .     A
C672   C678    1.409   .     A
C672   C676    1.422   .     A
C673   C679    1.409   .     A
C673   C675    1.422   .     A
C674   C680    1.409   .     A
C674   C676    1.422   .     A
C675   C730    1.412   .     S
C676   C729    1.412   1_455 S
C677   F683    1.357   .     S
C677   C734    1.378   .     S
C678   F684    1.357   .     S
C678   C733    1.378   1_455 S
C679   F685    1.357   .     S
C679   C732    1.378   .     S
C680   F686    1.357   .     S
C680   C731    1.378   1_455 S
C681   C898    1.164   1_545 S
C682   C789    1.164   .     S
C687   H689    1.110   .     S
C687   H688    1.106   .     S
C687   H690    1.110   .     S
C691   H692    1.106   .     S
C691   H693    1.110   .     S
C691   H694    1.110   .     S
C695   H696    1.106   .     S
C695   H698    1.110   .     S
C695   H697    1.110   .     S
C699   H702    1.110   .     S
C699   H700    1.106   .     S
C699   H701    1.110   .     S
O703   C707    1.263   .     A
O703   Zn715   1.952   .     S
O704   C708    1.263   .     A
O704   Zn716   1.952   .     S
O705   Zn715   1.950   .     S
O705   C708    1.262   .     A
O706   Zn716   1.950   .     S
O706   C707    1.262   .     A
C707   C735    1.363   .     S
C708   C736    1.363   .     S
O709   C713    1.270   .     A
O709   Zn715   2.019   .     S
O710   C714    1.270   .     A
O710   Zn716   2.019   .     S
O711   C714    1.270   .     A
O711   Zn715   2.019   .     S
O712   C713    1.270   .     A
O712   Zn716   2.019   .     S
C713   C724    1.427   .     S
C714   C723    1.427   .     S
Zn715  N718    1.978   .     S
Zn716  N717    1.978   .     S
N718   N69     1.196   1_556 S
C719   C727    1.405   .     A
C719   C741    1.525   .     S
C719   C723    1.405   .     A
C720   C724    1.405   .     A
C720   C745    1.525   .     S
C720   C728    1.405   .     A
C721   C725    1.405   .     A
C721   C723    1.405   .     A
C721   C749    1.525   .     S
C722   C753    1.525   .     S
C722   C724    1.405   .     A
C722   C726    1.405   .     A
C725   C729    1.422   .     A
C725   C731    1.409   .     A
C726   C732    1.409   .     A
C726   C730    1.422   .     A
C727   C733    1.409   .     A
C727   C729    1.422   .     A
C728   C734    1.409   .     A
C728   C730    1.422   .     A
C729   C676    1.412   1_655 S
C731   F737    1.357   .     S
C731   C680    1.378   1_655 S
C732   F738    1.357   .     S
C733   F739    1.357   .     S
C733   C678    1.378   1_655 S
C734   F740    1.357   .     S
C735   C952    1.164   1_545 S
C736   C843    1.164   .     S
C741   H743    1.110   .     S
C741   H742    1.106   .     S
C741   H744    1.110   .     S
C745   H746    1.106   .     S
C745   H747    1.110   .     S
C745   H748    1.110   .     S
C749   H750    1.106   .     S
C749   H752    1.110   .     S
C749   H751    1.110   .     S
C753   H756    1.110   .     S
C753   H754    1.106   .     S
C753   H755    1.110   .     S
O757   C761    1.263   .     A
O757   Zn769   1.952   .     S
O758   C762    1.263   .     A
O758   Zn770   1.952   .     S
O759   Zn769   1.950   .     S
O759   C762    1.262   .     A
O760   Zn770   1.950   .     S
O760   C761    1.262   .     A
C761   C789    1.363   .     S
C762   C790    1.363   .     S
O763   C767    1.270   .     A
O763   Zn769   2.019   .     S
O764   C768    1.270   .     A
O764   Zn770   2.019   .     S
O765   C768    1.270   .     A
O765   Zn769   2.019   .     S
O766   C767    1.270   .     A
O766   Zn770   2.019   .     S
C767   C778    1.427   .     S
C768   C777    1.427   .     S
Zn769  N772    1.978   .     S
Zn770  N771    1.978   .     S
N772   N123    1.196   1_556 S
C773   C781    1.405   .     A
C773   C795    1.525   .     S
C773   C777    1.405   .     A
C774   C778    1.405   .     A
C774   C799    1.525   .     S
C774   C782    1.405   .     A
C775   C779    1.405   .     A
C775   C777    1.405   .     A
C775   C803    1.525   .     S
C776   C807    1.525   .     S
C776   C778    1.405   .     A
C776   C780    1.405   .     A
C779   C783    1.422   .     A
C779   C785    1.409   .     A
C780   C786    1.409   .     A
C780   C784    1.422   .     A
C781   C787    1.409   .     A
C781   C783    1.422   .     A
C782   C788    1.409   .     A
C782   C784    1.422   .     A
C783   C838    1.412   .     S
C784   C837    1.412   1_455 S
C785   F791    1.357   .     S
C785   C842    1.378   .     S
C786   F792    1.357   .     S
C786   C841    1.378   1_455 S
C787   F793    1.357   .     S
C787   C840    1.378   .     S
C788   F794    1.357   .     S
C788   C839    1.378   1_455 S
C790   C897    1.164   .     S
C795   H797    1.110   .     S
C795   H796    1.106   .     S
C795   H798    1.110   .     S
C799   H800    1.106   .     S
C799   H801    1.110   .     S
C799   H802    1.110   .     S
C803   H804    1.106   .     S
C803   H806    1.110   .     S
C803   H805    1.110   .     S
C807   H810    1.110   .     S
C807   H808    1.106   .     S
C807   H809    1.110   .     S
O811   C815    1.263   .     A
O811   Zn823   1.952   .     S
O812   C816    1.263   .     A
O812   Zn824   1.952   .     S
O813   Zn823   1.950   .     S
O813   C816    1.262   .     A
O814   Zn824   1.950   .     S
O814   C815    1.262   .     A
C815   C843    1.363   .     S
C816   C844    1.363   .     S
O817   C821    1.270   .     A
O817   Zn823   2.019   .     S
O818   C822    1.270   .     A
O818   Zn824   2.019   .     S
O819   C822    1.270   .     A
O819   Zn823   2.019   .     S
O820   C821    1.270   .     A
O820   Zn824   2.019   .     S
C821   C832    1.427   .     S
C822   C831    1.427   .     S
Zn823  N826    1.978   .     S
Zn824  N825    1.978   .     S
N826   N177    1.196   1_556 S
C827   C835    1.405   .     A
C827   C849    1.525   .     S
C827   C831    1.405   .     A
C828   C832    1.405   .     A
C828   C853    1.525   .     S
C828   C836    1.405   .     A
C829   C833    1.405   .     A
C829   C831    1.405   .     A
C829   C857    1.525   .     S
C830   C861    1.525   .     S
C830   C832    1.405   .     A
C830   C834    1.405   .     A
C833   C837    1.422   .     A
C833   C839    1.409   .     A
C834   C840    1.409   .     A
C834   C838    1.422   .     A
C835   C841    1.409   .     A
C835   C837    1.422   .     A
C836   C842    1.409   .     A
C836   C838    1.422   .     A
C837   C784    1.412   1_655 S
C839   F845    1.357   .     S
C839   C788    1.378   1_655 S
C840   F846    1.357   .     S
C841   F847    1.357   .     S
C841   C786    1.378   1_655 S
C842   F848    1.357   .     S
C844   C951    1.164   .     S
C849   H851    1.110   .     S
C849   H850    1.106   .     S
C849   H852    1.110   .     S
C853   H854    1.106   .     S
C853   H855    1.110   .     S
C853   H856    1.110   .     S
C857   H858    1.106   .     S
C857   H860    1.110   .     S
C857   H859    1.110   .     S
C861   H864    1.110   .     S
C861   H862    1.106   .     S
C861   H863    1.110   .     S
O865   C869    1.263   .     A
O865   Zn877   1.952   .     S
O866   C870    1.263   .     A
O866   Zn878   1.952   .     S
O867   Zn877   1.950   .     S
O867   C870    1.262   .     A
O868   Zn878   1.950   .     S
O868   C869    1.262   .     A
C869   C897    1.363   .     S
C870   C898    1.363   .     S
O871   C875    1.270   .     A
O871   Zn877   2.019   .     S
O872   C876    1.270   .     A
O872   Zn878   2.019   .     S
O873   C876    1.270   .     A
O873   Zn877   2.019   .     S
O874   C875    1.270   .     A
O874   Zn878   2.019   .     S
C875   C886    1.427   .     S
C876   C885    1.427   .     S
Zn877  N880    1.978   .     S
Zn878  N879    1.978   .     S
N880   N231    1.196   1_556 S
C881   C889    1.405   .     A
C881   C903    1.525   .     S
C881   C885    1.405   .     A
C882   C886    1.405   .     A
C882   C907    1.525   .     S
C882   C890    1.405   .     A
C883   C887    1.405   .     A
C883   C885    1.405   .     A
C883   C911    1.525   .     S
C884   C915    1.525   .     S
C884   C886    1.405   .     A
C884   C888    1.405   .     A
C887   C891    1.422   .     A
C887   C893    1.409   .     A
C888   C894    1.409   .     A
C888   C892    1.422   .     A
C889   C895    1.409   .     A
C889   C891    1.422   .     A
C890   C896    1.409   .     A
C890   C892    1.422   .     A
C891   C946    1.412   .     S
C892   C945    1.412   1_455 S
C893   F899    1.357   .     S
C893   C950    1.378   .     S
C894   F900    1.357   .     S
C894   C949    1.378   1_455 S
C895   F901    1.357   .     S
C895   C948    1.378   .     S
C896   F902    1.357   .     S
C896   C947    1.378   1_455 S
C898   C681    1.164   1_565 S
C903   H905    1.110   .     S
C903   H904    1.106   .     S
C903   H906    1.110   .     S
C907   H908    1.106   .     S
C907   H909    1.110   .     S
C907   H910    1.110   .     S
C911   H912    1.106   .     S
C911   H914    1.110   .     S
C911   H913    1.110   .     S
C915   H918    1.110   .     S
C915   H916    1.106   .     S
C915   H917    1.110   .     S
O919   C923    1.263   .     A
O919   Zn931   1.952   .     S
O920   C924    1.263   .     A
O920   Zn932   1.952   .     S
O921   Zn931   1.950   .     S
O921   C924    1.262   .     A
O922   Zn932   1.950   .     S
O922   C923    1.262   .     A
C923   C951    1.363   .     S
C924   C952    1.363   .     S
O925   C929    1.270   .     A
O925   Zn931   2.019   .     S
O926   C930    1.270   .     A
O926   Zn932   2.019   .     S
O927   C930    1.270   .     A
O927   Zn931   2.019   .     S
O928   C929    1.270   .     A
O928   Zn932   2.019   .     S
C929   C940    1.427   .     S
C930   C939    1.427   .     S
Zn931  N934    1.978   .     S
Zn932  N933    1.978   .     S
N934   N285    1.196   1_556 S
C935   C943    1.405   .     A
C935   C957    1.525   .     S
C935   C939    1.405   .     A
C936   C940    1.405   .     A
C936   C961    1.525   .     S
C936   C944    1.405   .     A
C937   C941    1.405   .     A
C937   C939    1.405   .     A
C937   C965    1.525   .     S
C938   C969    1.525   .     S
C938   C940    1.405   .     A
C938   C942    1.405   .     A
C941   C945    1.422   .     A
C941   C947    1.409   .     A
C942   C948    1.409   .     A
C942   C946    1.422   .     A
C943   C949    1.409   .     A
C943   C945    1.422   .     A
C944   C950    1.409   .     A
C944   C946    1.422   .     A
C945   C892    1.412   1_655 S
C947   F953    1.357   .     S
C947   C896    1.378   1_655 S
C948   F954    1.357   .     S
C949   F955    1.357   .     S
C949   C894    1.378   1_655 S
C950   F956    1.357   .     S
C952   C735    1.164   1_565 S
C957   H959    1.110   .     S
C957   H958    1.106   .     S
C957   H960    1.110   .     S
C961   H962    1.106   .     S
C961   H963    1.110   .     S
C961   H964    1.110   .     S
C965   H966    1.106   .     S
C965   H968    1.110   .     S
C965   H967    1.110   .     S
C969   H972    1.110   .     S
C969   H970    1.106   .     S
C969   H971    1.110   .     S
