data_str_m2_o10_o16_pcu_sym.79
_audit_creation_date              2020-01-03
_audit_creation_method            'Materials Studio'
_symmetry_space_group_name_H-M    'P1'
_symmetry_Int_Tables_number       1
_symmetry_cell_setting            triclinic
loop_
_symmetry_equiv_pos_as_xyz
  x,y,z
_cell_length_a                    22.2770
_cell_length_b                    26.0635
_cell_length_c                    26.9094
_cell_angle_alpha                 94.1106
_cell_angle_beta                  77.4657
_cell_angle_gamma                 103.1479
loop_
_atom_site_label
_atom_site_type_symbol
_atom_site_fract_x
_atom_site_fract_y
_atom_site_fract_z
_atom_site_U_iso_or_equiv
_atom_site_adp_type
_atom_site_occupancy
C1     C     0.18177   0.26675   0.25154   0.00000  Uiso   1.00
C2     C     0.11272   0.16105   0.40295   0.00000  Uiso   1.00
C3     C     0.19030   0.32271   0.25231   0.00000  Uiso   1.00
C4     C     0.13321   0.16565   0.34721   0.00000  Uiso   1.00
C5     C     0.14300   0.01063   0.24778   0.00000  Uiso   1.00
C6     C     0.15154   0.06659   0.24851   0.00000  Uiso   1.00
C7     C     0.20046   0.16992   0.15300   0.00000  Uiso   1.00
C8     C     0.29724   0.20948   0.02340   0.00000  Uiso   1.00
C9     C     0.22049   0.17454   0.09764   0.00000  Uiso   1.00
C10    C     0.05204   0.13220   0.42239   0.00000  Uiso   1.00
C11    C     0.03766   0.11094   0.47035   0.00000  Uiso   1.00
C12    C     0.14234   0.15463   0.48484   0.00000  Uiso   1.00
C13    C     0.08341   0.11794   0.00005   0.00000  Uiso   1.00
C14    C     0.10289   0.03988   0.03094   0.00000  Uiso   1.00
C15    C     0.15648   0.17632   0.43552   0.00000  Uiso   1.00
C16    C     0.18854   0.16977   0.01579   0.00000  Uiso   1.00
C17    C     0.24998   0.19855   0.49465   0.00000  Uiso   1.00
C18    C     0.26213   0.21973   0.44666   0.00000  Uiso   1.00
C19    C     0.21472   0.21193   0.41929   0.00000  Uiso   1.00
C20    C     0.17422   0.16146   0.06821   0.00000  Uiso   1.00
C21    C     0.28284   0.19634   0.07454   0.00000  Uiso   1.00
Cu22   Cu    0.10710   0.16105   0.24436   0.00000  Uiso   1.00
Cu23   Cu    0.22623   0.17228   0.25565   0.00000  Uiso   1.00
H24    H     0.31925   0.20670   0.09668   0.00000  Uiso   1.00
H25    H     0.22464   0.23429   0.38504   0.00000  Uiso   1.00
H26    H     0.23586   0.01320   0.25660   0.00000  Uiso   1.00
H27    H     0.02454   0.07167   0.05850   0.00000  Uiso   1.00
H28    H     0.09391   0.01690   0.06598   0.00000  Uiso   1.00
H29    H     0.15461   0.05434   0.01856   0.00000  Uiso   1.00
H30    H     0.08458   0.01352   0.00072   0.00000  Uiso   1.00
H31    H     0.09743   0.32013   0.24350   0.00000  Uiso   1.00
H32    H     0.00367   0.20584   0.28967   0.00000  Uiso   1.00
H33    H     0.32964   0.12747   0.21036   0.00000  Uiso   1.00
H34    H     0.30745   0.24491   0.43140   0.00000  Uiso   1.00
H35    H     0.01137   0.23004   0.00684   0.00000  Uiso   1.00
H36    H     0.12599   0.14881   0.08764   0.00000  Uiso   1.00
H37    H     0.01735   0.12153   0.39865   0.00000  Uiso   1.00
H38    H     0.32552   0.08473   0.48254   0.00000  Uiso   1.00
N39    N     0.31574   0.18074   0.26416   0.00000  Uiso   1.00
N40    N     0.01759   0.15259   0.23584   0.00000  Uiso   1.00
N41    N     0.07153   0.08356   0.04157   0.00000  Uiso   1.00
O42    O     0.12797   0.23807   0.24633   0.00000  Uiso   1.00
O43    O     0.22858   0.24755   0.25587   0.00000  Uiso   1.00
O44    O     0.09181   0.15960   0.31840   0.00000  Uiso   1.00
O45    O     0.19242   0.16908   0.32793   0.00000  Uiso   1.00
O46    O     0.10476   0.08578   0.24414   0.00000  Uiso   1.00
O47    O     0.20536   0.09526   0.25367   0.00000  Uiso   1.00
O48    O     0.14092   0.16425   0.17207   0.00000  Uiso   1.00
O49    O     0.24152   0.17373   0.18161   0.00000  Uiso   1.00
C50    C     0.51511   0.26675   0.25154   0.00000  Uiso   1.00
C51    C     0.44605   0.16105   0.40295   0.00000  Uiso   1.00
C52    C     0.52363   0.32271   0.25231   0.00000  Uiso   1.00
C53    C     0.46654   0.16565   0.34721   0.00000  Uiso   1.00
C54    C     0.47634   0.01063   0.24778   0.00000  Uiso   1.00
C55    C     0.48487   0.06659   0.24851   0.00000  Uiso   1.00
C56    C     0.53379   0.16992   0.15300   0.00000  Uiso   1.00
C57    C     0.63058   0.20948   0.02340   0.00000  Uiso   1.00
C58    C     0.55382   0.17454   0.09764   0.00000  Uiso   1.00
C59    C     0.38538   0.13220   0.42239   0.00000  Uiso   1.00
C60    C     0.37100   0.11094   0.47035   0.00000  Uiso   1.00
C61    C     0.47567   0.15463   0.48484   0.00000  Uiso   1.00
C62    C     0.41675   0.11794   0.00005   0.00000  Uiso   1.00
C63    C     0.43622   0.03988   0.03094   0.00000  Uiso   1.00
C64    C     0.48981   0.17632   0.43552   0.00000  Uiso   1.00
C65    C     0.52188   0.16977   0.01579   0.00000  Uiso   1.00
C66    C     0.58331   0.19855   0.49465   0.00000  Uiso   1.00
C67    C     0.59547   0.21973   0.44666   0.00000  Uiso   1.00
C68    C     0.54805   0.21193   0.41929   0.00000  Uiso   1.00
C69    C     0.50755   0.16146   0.06821   0.00000  Uiso   1.00
C70    C     0.61617   0.19634   0.07454   0.00000  Uiso   1.00
Cu71   Cu    0.44043   0.16105   0.24436   0.00000  Uiso   1.00
Cu72   Cu    0.55957   0.17228   0.25565   0.00000  Uiso   1.00
H73    H     0.65259   0.20670   0.09668   0.00000  Uiso   1.00
H74    H     0.55798   0.23429   0.38504   0.00000  Uiso   1.00
H75    H     0.56920   0.01320   0.25660   0.00000  Uiso   1.00
H76    H     0.35787   0.07167   0.05850   0.00000  Uiso   1.00
H77    H     0.42724   0.01690   0.06598   0.00000  Uiso   1.00
H78    H     0.48794   0.05434   0.01856   0.00000  Uiso   1.00
H79    H     0.41791   0.01352   0.00072   0.00000  Uiso   1.00
H80    H     0.43077   0.32013   0.24350   0.00000  Uiso   1.00
H81    H     0.33700   0.20584   0.28967   0.00000  Uiso   1.00
H82    H     0.66298   0.12747   0.21036   0.00000  Uiso   1.00
H83    H     0.64078   0.24491   0.43140   0.00000  Uiso   1.00
H84    H     0.34470   0.23004   0.00684   0.00000  Uiso   1.00
H85    H     0.45932   0.14881   0.08764   0.00000  Uiso   1.00
H86    H     0.35068   0.12153   0.39865   0.00000  Uiso   1.00
H87    H     0.65885   0.08473   0.48254   0.00000  Uiso   1.00
N88    N     0.64908   0.18074   0.26416   0.00000  Uiso   1.00
N89    N     0.35092   0.15259   0.23584   0.00000  Uiso   1.00
N90    N     0.40487   0.08356   0.04157   0.00000  Uiso   1.00
O91    O     0.46131   0.23807   0.24633   0.00000  Uiso   1.00
O92    O     0.56191   0.24755   0.25587   0.00000  Uiso   1.00
O93    O     0.42515   0.15960   0.31840   0.00000  Uiso   1.00
O94    O     0.52575   0.16908   0.32793   0.00000  Uiso   1.00
O95    O     0.43809   0.08578   0.24414   0.00000  Uiso   1.00
O96    O     0.53869   0.09526   0.25367   0.00000  Uiso   1.00
O97    O     0.47425   0.16425   0.17207   0.00000  Uiso   1.00
O98    O     0.57485   0.17373   0.18161   0.00000  Uiso   1.00
C99    C     0.84844   0.26675   0.25154   0.00000  Uiso   1.00
C100   C     0.77939   0.16105   0.40295   0.00000  Uiso   1.00
C101   C     0.85696   0.32271   0.25231   0.00000  Uiso   1.00
C102   C     0.79987   0.16565   0.34721   0.00000  Uiso   1.00
C103   C     0.80967   0.01063   0.24778   0.00000  Uiso   1.00
C104   C     0.81821   0.06659   0.24851   0.00000  Uiso   1.00
C105   C     0.86712   0.16992   0.15300   0.00000  Uiso   1.00
C106   C     0.96391   0.20948   0.02340   0.00000  Uiso   1.00
C107   C     0.88715   0.17454   0.09764   0.00000  Uiso   1.00
C108   C     0.71871   0.13220   0.42239   0.00000  Uiso   1.00
C109   C     0.70433   0.11094   0.47035   0.00000  Uiso   1.00
C110   C     0.80901   0.15463   0.48484   0.00000  Uiso   1.00
C111   C     0.75008   0.11794   0.00005   0.00000  Uiso   1.00
C112   C     0.76956   0.03988   0.03094   0.00000  Uiso   1.00
C113   C     0.82315   0.17632   0.43552   0.00000  Uiso   1.00
C114   C     0.85521   0.16977   0.01579   0.00000  Uiso   1.00
C115   C     0.91664   0.19855   0.49465   0.00000  Uiso   1.00
C116   C     0.92880   0.21973   0.44666   0.00000  Uiso   1.00
C117   C     0.88139   0.21193   0.41929   0.00000  Uiso   1.00
C118   C     0.84088   0.16146   0.06821   0.00000  Uiso   1.00
C119   C     0.94950   0.19634   0.07454   0.00000  Uiso   1.00
Cu120  Cu    0.77377   0.16105   0.24436   0.00000  Uiso   1.00
Cu121  Cu    0.89290   0.17228   0.25565   0.00000  Uiso   1.00
H122   H     0.98592   0.20670   0.09668   0.00000  Uiso   1.00
H123   H     0.89131   0.23429   0.38504   0.00000  Uiso   1.00
H124   H     0.90253   0.01320   0.25660   0.00000  Uiso   1.00
H125   H     0.69121   0.07167   0.05850   0.00000  Uiso   1.00
H126   H     0.76058   0.01690   0.06598   0.00000  Uiso   1.00
H127   H     0.82128   0.05434   0.01856   0.00000  Uiso   1.00
H128   H     0.75124   0.01352   0.00072   0.00000  Uiso   1.00
H129   H     0.76410   0.32013   0.24350   0.00000  Uiso   1.00
H130   H     0.67034   0.20584   0.28967   0.00000  Uiso   1.00
H131   H     0.99631   0.12747   0.21036   0.00000  Uiso   1.00
H132   H     0.97411   0.24491   0.43140   0.00000  Uiso   1.00
H133   H     0.67804   0.23004   0.00684   0.00000  Uiso   1.00
H134   H     0.79266   0.14881   0.08764   0.00000  Uiso   1.00
H135   H     0.68401   0.12153   0.39865   0.00000  Uiso   1.00
H136   H     0.99218   0.08473   0.48254   0.00000  Uiso   1.00
N137   N     0.98241   0.18074   0.26416   0.00000  Uiso   1.00
N138   N     0.68426   0.15259   0.23584   0.00000  Uiso   1.00
N139   N     0.73820   0.08356   0.04157   0.00000  Uiso   1.00
O140   O     0.79464   0.23807   0.24633   0.00000  Uiso   1.00
O141   O     0.89524   0.24755   0.25587   0.00000  Uiso   1.00
O142   O     0.75848   0.15960   0.31840   0.00000  Uiso   1.00
O143   O     0.85908   0.16908   0.32793   0.00000  Uiso   1.00
O144   O     0.77142   0.08578   0.24414   0.00000  Uiso   1.00
O145   O     0.87203   0.09526   0.25367   0.00000  Uiso   1.00
O146   O     0.80758   0.16425   0.17207   0.00000  Uiso   1.00
O147   O     0.90819   0.17373   0.18161   0.00000  Uiso   1.00
C148   C     0.18177   0.60008   0.25154   0.00000  Uiso   1.00
C149   C     0.11272   0.49438   0.40295   0.00000  Uiso   1.00
C150   C     0.19030   0.65604   0.25231   0.00000  Uiso   1.00
C151   C     0.13321   0.49899   0.34721   0.00000  Uiso   1.00
C152   C     0.14300   0.34396   0.24778   0.00000  Uiso   1.00
C153   C     0.15154   0.39992   0.24851   0.00000  Uiso   1.00
C154   C     0.20046   0.50325   0.15300   0.00000  Uiso   1.00
C155   C     0.29724   0.54281   0.02340   0.00000  Uiso   1.00
C156   C     0.22049   0.50787   0.09764   0.00000  Uiso   1.00
C157   C     0.05204   0.46554   0.42239   0.00000  Uiso   1.00
C158   C     0.03766   0.44427   0.47035   0.00000  Uiso   1.00
C159   C     0.14234   0.48797   0.48484   0.00000  Uiso   1.00
C160   C     0.08341   0.45127   0.00005   0.00000  Uiso   1.00
C161   C     0.10289   0.37322   0.03094   0.00000  Uiso   1.00
C162   C     0.15648   0.50965   0.43552   0.00000  Uiso   1.00
C163   C     0.18854   0.50311   0.01579   0.00000  Uiso   1.00
C164   C     0.24998   0.53188   0.49465   0.00000  Uiso   1.00
C165   C     0.26213   0.55307   0.44666   0.00000  Uiso   1.00
C166   C     0.21472   0.54527   0.41929   0.00000  Uiso   1.00
C167   C     0.17422   0.49480   0.06821   0.00000  Uiso   1.00
C168   C     0.28284   0.52967   0.07454   0.00000  Uiso   1.00
Cu169  Cu    0.10710   0.49439   0.24436   0.00000  Uiso   1.00
Cu170  Cu    0.22623   0.50561   0.25565   0.00000  Uiso   1.00
H171   H     0.31925   0.54004   0.09668   0.00000  Uiso   1.00
H172   H     0.22464   0.56762   0.38504   0.00000  Uiso   1.00
H173   H     0.23586   0.34653   0.25660   0.00000  Uiso   1.00
H174   H     0.02454   0.40501   0.05850   0.00000  Uiso   1.00
H175   H     0.09391   0.35023   0.06598   0.00000  Uiso   1.00
H176   H     0.15461   0.38768   0.01856   0.00000  Uiso   1.00
H177   H     0.08458   0.34685   0.00072   0.00000  Uiso   1.00
H178   H     0.09743   0.65347   0.24350   0.00000  Uiso   1.00
H179   H     0.00367   0.53917   0.28967   0.00000  Uiso   1.00
H180   H     0.32964   0.46081   0.21036   0.00000  Uiso   1.00
H181   H     0.30745   0.57824   0.43140   0.00000  Uiso   1.00
H182   H     0.01137   0.56337   0.00684   0.00000  Uiso   1.00
H183   H     0.12599   0.48214   0.08764   0.00000  Uiso   1.00
H184   H     0.01735   0.45486   0.39865   0.00000  Uiso   1.00
H185   H     0.32552   0.41806   0.48254   0.00000  Uiso   1.00
N186   N     0.31574   0.51407   0.26416   0.00000  Uiso   1.00
N187   N     0.01759   0.48593   0.23584   0.00000  Uiso   1.00
N188   N     0.07153   0.41689   0.04157   0.00000  Uiso   1.00
O189   O     0.12797   0.57141   0.24633   0.00000  Uiso   1.00
O190   O     0.22858   0.58089   0.25587   0.00000  Uiso   1.00
O191   O     0.09181   0.49293   0.31840   0.00000  Uiso   1.00
O192   O     0.19242   0.50241   0.32793   0.00000  Uiso   1.00
O193   O     0.10476   0.41911   0.24414   0.00000  Uiso   1.00
O194   O     0.20536   0.42859   0.25367   0.00000  Uiso   1.00
O195   O     0.14092   0.49759   0.17207   0.00000  Uiso   1.00
O196   O     0.24152   0.50707   0.18161   0.00000  Uiso   1.00
C197   C     0.51511   0.60008   0.25154   0.00000  Uiso   1.00
C198   C     0.44605   0.49438   0.40295   0.00000  Uiso   1.00
C199   C     0.52363   0.65604   0.25231   0.00000  Uiso   1.00
C200   C     0.46654   0.49899   0.34721   0.00000  Uiso   1.00
C201   C     0.47634   0.34396   0.24778   0.00000  Uiso   1.00
C202   C     0.48487   0.39992   0.24851   0.00000  Uiso   1.00
C203   C     0.53379   0.50325   0.15300   0.00000  Uiso   1.00
C204   C     0.63058   0.54281   0.02340   0.00000  Uiso   1.00
C205   C     0.55382   0.50787   0.09764   0.00000  Uiso   1.00
C206   C     0.38538   0.46554   0.42239   0.00000  Uiso   1.00
C207   C     0.37100   0.44427   0.47035   0.00000  Uiso   1.00
C208   C     0.47567   0.48797   0.48484   0.00000  Uiso   1.00
C209   C     0.41675   0.45127   0.00005   0.00000  Uiso   1.00
C210   C     0.43622   0.37322   0.03094   0.00000  Uiso   1.00
C211   C     0.48981   0.50965   0.43552   0.00000  Uiso   1.00
C212   C     0.52188   0.50311   0.01579   0.00000  Uiso   1.00
C213   C     0.58331   0.53188   0.49465   0.00000  Uiso   1.00
C214   C     0.59547   0.55307   0.44666   0.00000  Uiso   1.00
C215   C     0.54805   0.54527   0.41929   0.00000  Uiso   1.00
C216   C     0.50755   0.49480   0.06821   0.00000  Uiso   1.00
C217   C     0.61617   0.52967   0.07454   0.00000  Uiso   1.00
Cu218  Cu    0.44043   0.49439   0.24436   0.00000  Uiso   1.00
Cu219  Cu    0.55957   0.50561   0.25565   0.00000  Uiso   1.00
H220   H     0.65259   0.54004   0.09668   0.00000  Uiso   1.00
H221   H     0.55798   0.56762   0.38504   0.00000  Uiso   1.00
H222   H     0.56920   0.34653   0.25660   0.00000  Uiso   1.00
H223   H     0.35787   0.40501   0.05850   0.00000  Uiso   1.00
H224   H     0.42724   0.35023   0.06598   0.00000  Uiso   1.00
H225   H     0.48794   0.38768   0.01856   0.00000  Uiso   1.00
H226   H     0.41791   0.34685   0.00072   0.00000  Uiso   1.00
H227   H     0.43077   0.65347   0.24350   0.00000  Uiso   1.00
H228   H     0.33700   0.53917   0.28967   0.00000  Uiso   1.00
H229   H     0.66298   0.46081   0.21036   0.00000  Uiso   1.00
H230   H     0.64078   0.57824   0.43140   0.00000  Uiso   1.00
H231   H     0.34470   0.56337   0.00684   0.00000  Uiso   1.00
H232   H     0.45932   0.48214   0.08764   0.00000  Uiso   1.00
H233   H     0.35068   0.45486   0.39865   0.00000  Uiso   1.00
H234   H     0.65885   0.41806   0.48254   0.00000  Uiso   1.00
N235   N     0.64908   0.51407   0.26416   0.00000  Uiso   1.00
N236   N     0.35092   0.48593   0.23584   0.00000  Uiso   1.00
N237   N     0.40487   0.41689   0.04157   0.00000  Uiso   1.00
O238   O     0.46131   0.57141   0.24633   0.00000  Uiso   1.00
O239   O     0.56191   0.58089   0.25587   0.00000  Uiso   1.00
O240   O     0.42515   0.49293   0.31840   0.00000  Uiso   1.00
O241   O     0.52575   0.50241   0.32793   0.00000  Uiso   1.00
O242   O     0.43809   0.41911   0.24414   0.00000  Uiso   1.00
O243   O     0.53869   0.42859   0.25367   0.00000  Uiso   1.00
O244   O     0.47425   0.49759   0.17207   0.00000  Uiso   1.00
O245   O     0.57485   0.50707   0.18161   0.00000  Uiso   1.00
C246   C     0.84844   0.60008   0.25154   0.00000  Uiso   1.00
C247   C     0.77939   0.49438   0.40295   0.00000  Uiso   1.00
C248   C     0.85696   0.65604   0.25231   0.00000  Uiso   1.00
C249   C     0.79987   0.49899   0.34721   0.00000  Uiso   1.00
C250   C     0.80967   0.34396   0.24778   0.00000  Uiso   1.00
C251   C     0.81821   0.39992   0.24851   0.00000  Uiso   1.00
C252   C     0.86712   0.50325   0.15300   0.00000  Uiso   1.00
C253   C     0.96391   0.54281   0.02340   0.00000  Uiso   1.00
C254   C     0.88715   0.50787   0.09764   0.00000  Uiso   1.00
C255   C     0.71871   0.46554   0.42239   0.00000  Uiso   1.00
C256   C     0.70433   0.44427   0.47035   0.00000  Uiso   1.00
C257   C     0.80901   0.48797   0.48484   0.00000  Uiso   1.00
C258   C     0.75008   0.45127   0.00005   0.00000  Uiso   1.00
C259   C     0.76956   0.37322   0.03094   0.00000  Uiso   1.00
C260   C     0.82315   0.50965   0.43552   0.00000  Uiso   1.00
C261   C     0.85521   0.50311   0.01579   0.00000  Uiso   1.00
C262   C     0.91664   0.53188   0.49465   0.00000  Uiso   1.00
C263   C     0.92880   0.55307   0.44666   0.00000  Uiso   1.00
C264   C     0.88139   0.54527   0.41929   0.00000  Uiso   1.00
C265   C     0.84088   0.49480   0.06821   0.00000  Uiso   1.00
C266   C     0.94950   0.52967   0.07454   0.00000  Uiso   1.00
Cu267  Cu    0.77377   0.49439   0.24436   0.00000  Uiso   1.00
Cu268  Cu    0.89290   0.50561   0.25565   0.00000  Uiso   1.00
H269   H     0.98592   0.54004   0.09668   0.00000  Uiso   1.00
H270   H     0.89131   0.56762   0.38504   0.00000  Uiso   1.00
H271   H     0.90253   0.34653   0.25660   0.00000  Uiso   1.00
H272   H     0.69121   0.40501   0.05850   0.00000  Uiso   1.00
H273   H     0.76058   0.35023   0.06598   0.00000  Uiso   1.00
H274   H     0.82128   0.38768   0.01856   0.00000  Uiso   1.00
H275   H     0.75124   0.34685   0.00072   0.00000  Uiso   1.00
H276   H     0.76410   0.65347   0.24350   0.00000  Uiso   1.00
H277   H     0.67034   0.53917   0.28967   0.00000  Uiso   1.00
H278   H     0.99631   0.46081   0.21036   0.00000  Uiso   1.00
H279   H     0.97411   0.57824   0.43140   0.00000  Uiso   1.00
H280   H     0.67804   0.56337   0.00684   0.00000  Uiso   1.00
H281   H     0.79266   0.48214   0.08764   0.00000  Uiso   1.00
H282   H     0.68401   0.45486   0.39865   0.00000  Uiso   1.00
H283   H     0.99218   0.41806   0.48254   0.00000  Uiso   1.00
N284   N     0.98241   0.51407   0.26416   0.00000  Uiso   1.00
N285   N     0.68426   0.48593   0.23584   0.00000  Uiso   1.00
N286   N     0.73820   0.41689   0.04157   0.00000  Uiso   1.00
O287   O     0.79464   0.57141   0.24633   0.00000  Uiso   1.00
O288   O     0.89524   0.58089   0.25587   0.00000  Uiso   1.00
O289   O     0.75848   0.49293   0.31840   0.00000  Uiso   1.00
O290   O     0.85908   0.50241   0.32793   0.00000  Uiso   1.00
O291   O     0.77142   0.41911   0.24414   0.00000  Uiso   1.00
O292   O     0.87203   0.42859   0.25367   0.00000  Uiso   1.00
O293   O     0.80758   0.49759   0.17207   0.00000  Uiso   1.00
O294   O     0.90819   0.50707   0.18161   0.00000  Uiso   1.00
C295   C     0.18177   0.93341   0.25154   0.00000  Uiso   1.00
C296   C     0.11272   0.82772   0.40295   0.00000  Uiso   1.00
C297   C     0.19030   0.98937   0.25231   0.00000  Uiso   1.00
C298   C     0.13321   0.83232   0.34721   0.00000  Uiso   1.00
C299   C     0.14300   0.67729   0.24778   0.00000  Uiso   1.00
C300   C     0.15154   0.73326   0.24851   0.00000  Uiso   1.00
C301   C     0.20046   0.83658   0.15300   0.00000  Uiso   1.00
C302   C     0.29724   0.87615   0.02340   0.00000  Uiso   1.00
C303   C     0.22049   0.84120   0.09764   0.00000  Uiso   1.00
C304   C     0.05204   0.79887   0.42239   0.00000  Uiso   1.00
C305   C     0.03766   0.77760   0.47035   0.00000  Uiso   1.00
C306   C     0.14234   0.82130   0.48484   0.00000  Uiso   1.00
C307   C     0.08341   0.78461   0.00005   0.00000  Uiso   1.00
C308   C     0.10289   0.70655   0.03094   0.00000  Uiso   1.00
C309   C     0.15648   0.84299   0.43552   0.00000  Uiso   1.00
C310   C     0.18854   0.83644   0.01579   0.00000  Uiso   1.00
C311   C     0.24998   0.86522   0.49465   0.00000  Uiso   1.00
C312   C     0.26213   0.88640   0.44666   0.00000  Uiso   1.00
C313   C     0.21472   0.87860   0.41929   0.00000  Uiso   1.00
C314   C     0.17422   0.82813   0.06821   0.00000  Uiso   1.00
C315   C     0.28284   0.86300   0.07454   0.00000  Uiso   1.00
Cu316  Cu    0.10710   0.82772   0.24436   0.00000  Uiso   1.00
Cu317  Cu    0.22623   0.83895   0.25565   0.00000  Uiso   1.00
H318   H     0.31925   0.87337   0.09668   0.00000  Uiso   1.00
H319   H     0.22464   0.90096   0.38504   0.00000  Uiso   1.00
H320   H     0.23586   0.67986   0.25660   0.00000  Uiso   1.00
H321   H     0.02454   0.73834   0.05850   0.00000  Uiso   1.00
H322   H     0.09391   0.68356   0.06598   0.00000  Uiso   1.00
H323   H     0.15461   0.72101   0.01856   0.00000  Uiso   1.00
H324   H     0.08458   0.68018   0.00072   0.00000  Uiso   1.00
H325   H     0.09743   0.98680   0.24350   0.00000  Uiso   1.00
H326   H     0.00367   0.87251   0.28967   0.00000  Uiso   1.00
H327   H     0.32964   0.79414   0.21036   0.00000  Uiso   1.00
H328   H     0.30745   0.91158   0.43140   0.00000  Uiso   1.00
H329   H     0.01137   0.89671   0.00684   0.00000  Uiso   1.00
H330   H     0.12599   0.81548   0.08764   0.00000  Uiso   1.00
H331   H     0.01735   0.78820   0.39865   0.00000  Uiso   1.00
H332   H     0.32552   0.75139   0.48254   0.00000  Uiso   1.00
N333   N     0.31574   0.84741   0.26416   0.00000  Uiso   1.00
N334   N     0.01759   0.81926   0.23584   0.00000  Uiso   1.00
N335   N     0.07153   0.75023   0.04157   0.00000  Uiso   1.00
O336   O     0.12797   0.90474   0.24633   0.00000  Uiso   1.00
O337   O     0.22858   0.91422   0.25587   0.00000  Uiso   1.00
O338   O     0.09181   0.82627   0.31840   0.00000  Uiso   1.00
O339   O     0.19242   0.83575   0.32793   0.00000  Uiso   1.00
O340   O     0.10476   0.75245   0.24414   0.00000  Uiso   1.00
O341   O     0.20536   0.76193   0.25367   0.00000  Uiso   1.00
O342   O     0.14092   0.83092   0.17207   0.00000  Uiso   1.00
O343   O     0.24152   0.84040   0.18161   0.00000  Uiso   1.00
C344   C     0.51511   0.93341   0.25154   0.00000  Uiso   1.00
C345   C     0.44605   0.82772   0.40295   0.00000  Uiso   1.00
C346   C     0.52363   0.98937   0.25231   0.00000  Uiso   1.00
C347   C     0.46654   0.83232   0.34721   0.00000  Uiso   1.00
C348   C     0.47634   0.67729   0.24778   0.00000  Uiso   1.00
C349   C     0.48487   0.73326   0.24851   0.00000  Uiso   1.00
C350   C     0.53379   0.83658   0.15300   0.00000  Uiso   1.00
C351   C     0.63058   0.87615   0.02340   0.00000  Uiso   1.00
C352   C     0.55382   0.84120   0.09764   0.00000  Uiso   1.00
C353   C     0.38538   0.79887   0.42239   0.00000  Uiso   1.00
C354   C     0.37100   0.77760   0.47035   0.00000  Uiso   1.00
C355   C     0.47567   0.82130   0.48484   0.00000  Uiso   1.00
C356   C     0.41675   0.78461   0.00005   0.00000  Uiso   1.00
C357   C     0.43622   0.70655   0.03094   0.00000  Uiso   1.00
C358   C     0.48981   0.84299   0.43552   0.00000  Uiso   1.00
C359   C     0.52188   0.83644   0.01579   0.00000  Uiso   1.00
C360   C     0.58331   0.86522   0.49465   0.00000  Uiso   1.00
C361   C     0.59547   0.88640   0.44666   0.00000  Uiso   1.00
C362   C     0.54805   0.87860   0.41929   0.00000  Uiso   1.00
C363   C     0.50755   0.82813   0.06821   0.00000  Uiso   1.00
C364   C     0.61617   0.86300   0.07454   0.00000  Uiso   1.00
Cu365  Cu    0.44043   0.82772   0.24436   0.00000  Uiso   1.00
Cu366  Cu    0.55957   0.83895   0.25565   0.00000  Uiso   1.00
H367   H     0.65259   0.87337   0.09668   0.00000  Uiso   1.00
H368   H     0.55798   0.90096   0.38504   0.00000  Uiso   1.00
H369   H     0.56920   0.67986   0.25660   0.00000  Uiso   1.00
H370   H     0.35787   0.73834   0.05850   0.00000  Uiso   1.00
H371   H     0.42724   0.68356   0.06598   0.00000  Uiso   1.00
H372   H     0.48794   0.72101   0.01856   0.00000  Uiso   1.00
H373   H     0.41791   0.68018   0.00072   0.00000  Uiso   1.00
H374   H     0.43077   0.98680   0.24350   0.00000  Uiso   1.00
H375   H     0.33700   0.87251   0.28967   0.00000  Uiso   1.00
H376   H     0.66298   0.79414   0.21036   0.00000  Uiso   1.00
H377   H     0.64078   0.91158   0.43140   0.00000  Uiso   1.00
H378   H     0.34470   0.89671   0.00684   0.00000  Uiso   1.00
H379   H     0.45932   0.81548   0.08764   0.00000  Uiso   1.00
H380   H     0.35068   0.78820   0.39865   0.00000  Uiso   1.00
H381   H     0.65885   0.75139   0.48254   0.00000  Uiso   1.00
N382   N     0.64908   0.84741   0.26416   0.00000  Uiso   1.00
N383   N     0.35092   0.81926   0.23584   0.00000  Uiso   1.00
N384   N     0.40487   0.75023   0.04157   0.00000  Uiso   1.00
O385   O     0.46131   0.90474   0.24633   0.00000  Uiso   1.00
O386   O     0.56191   0.91422   0.25587   0.00000  Uiso   1.00
O387   O     0.42515   0.82627   0.31840   0.00000  Uiso   1.00
O388   O     0.52575   0.83575   0.32793   0.00000  Uiso   1.00
O389   O     0.43809   0.75245   0.24414   0.00000  Uiso   1.00
O390   O     0.53869   0.76193   0.25367   0.00000  Uiso   1.00
O391   O     0.47425   0.83092   0.17207   0.00000  Uiso   1.00
O392   O     0.57485   0.84040   0.18161   0.00000  Uiso   1.00
C393   C     0.84844   0.93341   0.25154   0.00000  Uiso   1.00
C394   C     0.77939   0.82772   0.40295   0.00000  Uiso   1.00
C395   C     0.85696   0.98937   0.25231   0.00000  Uiso   1.00
C396   C     0.79987   0.83232   0.34721   0.00000  Uiso   1.00
C397   C     0.80967   0.67729   0.24778   0.00000  Uiso   1.00
C398   C     0.81821   0.73326   0.24851   0.00000  Uiso   1.00
C399   C     0.86712   0.83658   0.15300   0.00000  Uiso   1.00
C400   C     0.96391   0.87615   0.02340   0.00000  Uiso   1.00
C401   C     0.88715   0.84120   0.09764   0.00000  Uiso   1.00
C402   C     0.71871   0.79887   0.42239   0.00000  Uiso   1.00
C403   C     0.70433   0.77760   0.47035   0.00000  Uiso   1.00
C404   C     0.80901   0.82130   0.48484   0.00000  Uiso   1.00
C405   C     0.75008   0.78461   0.00005   0.00000  Uiso   1.00
C406   C     0.76956   0.70655   0.03094   0.00000  Uiso   1.00
C407   C     0.82315   0.84299   0.43552   0.00000  Uiso   1.00
C408   C     0.85521   0.83644   0.01579   0.00000  Uiso   1.00
C409   C     0.91664   0.86522   0.49465   0.00000  Uiso   1.00
C410   C     0.92880   0.88640   0.44666   0.00000  Uiso   1.00
C411   C     0.88139   0.87860   0.41929   0.00000  Uiso   1.00
C412   C     0.84088   0.82813   0.06821   0.00000  Uiso   1.00
C413   C     0.94950   0.86300   0.07454   0.00000  Uiso   1.00
Cu414  Cu    0.77377   0.82772   0.24436   0.00000  Uiso   1.00
Cu415  Cu    0.89290   0.83895   0.25565   0.00000  Uiso   1.00
H416   H     0.98592   0.87337   0.09668   0.00000  Uiso   1.00
H417   H     0.89131   0.90096   0.38504   0.00000  Uiso   1.00
H418   H     0.90253   0.67986   0.25660   0.00000  Uiso   1.00
H419   H     0.69121   0.73834   0.05850   0.00000  Uiso   1.00
H420   H     0.76058   0.68356   0.06598   0.00000  Uiso   1.00
H421   H     0.82128   0.72101   0.01856   0.00000  Uiso   1.00
H422   H     0.75124   0.68018   0.00072   0.00000  Uiso   1.00
H423   H     0.76410   0.98680   0.24350   0.00000  Uiso   1.00
H424   H     0.67034   0.87251   0.28967   0.00000  Uiso   1.00
H425   H     0.99631   0.79414   0.21036   0.00000  Uiso   1.00
H426   H     0.97411   0.91158   0.43140   0.00000  Uiso   1.00
H427   H     0.67804   0.89671   0.00684   0.00000  Uiso   1.00
H428   H     0.79266   0.81548   0.08764   0.00000  Uiso   1.00
H429   H     0.68401   0.78820   0.39865   0.00000  Uiso   1.00
H430   H     0.99218   0.75139   0.48254   0.00000  Uiso   1.00
N431   N     0.98241   0.84741   0.26416   0.00000  Uiso   1.00
N432   N     0.68426   0.81926   0.23584   0.00000  Uiso   1.00
N433   N     0.73820   0.75023   0.04157   0.00000  Uiso   1.00
O434   O     0.79464   0.90474   0.24633   0.00000  Uiso   1.00
O435   O     0.89524   0.91422   0.25587   0.00000  Uiso   1.00
O436   O     0.75848   0.82627   0.31840   0.00000  Uiso   1.00
O437   O     0.85908   0.83575   0.32793   0.00000  Uiso   1.00
O438   O     0.77142   0.75245   0.24414   0.00000  Uiso   1.00
O439   O     0.87203   0.76193   0.25367   0.00000  Uiso   1.00
O440   O     0.80758   0.83092   0.17207   0.00000  Uiso   1.00
O441   O     0.90819   0.84040   0.18161   0.00000  Uiso   1.00
C442   C     0.18177   0.26675   0.75154   0.00000  Uiso   1.00
C443   C     0.11272   0.16105   0.90295   0.00000  Uiso   1.00
C444   C     0.19030   0.32271   0.75231   0.00000  Uiso   1.00
C445   C     0.13321   0.16565   0.84721   0.00000  Uiso   1.00
C446   C     0.14300   0.01063   0.74778   0.00000  Uiso   1.00
C447   C     0.15154   0.06659   0.74851   0.00000  Uiso   1.00
C448   C     0.20046   0.16992   0.65300   0.00000  Uiso   1.00
C449   C     0.29724   0.20948   0.52340   0.00000  Uiso   1.00
C450   C     0.22049   0.17454   0.59764   0.00000  Uiso   1.00
C451   C     0.05204   0.13220   0.92239   0.00000  Uiso   1.00
C452   C     0.03766   0.11094   0.97035   0.00000  Uiso   1.00
C453   C     0.14234   0.15463   0.98484   0.00000  Uiso   1.00
C454   C     0.08341   0.11794   0.50005   0.00000  Uiso   1.00
C455   C     0.10289   0.03988   0.53094   0.00000  Uiso   1.00
C456   C     0.15648   0.17632   0.93552   0.00000  Uiso   1.00
C457   C     0.18854   0.16977   0.51579   0.00000  Uiso   1.00
C458   C     0.24998   0.19855   0.99465   0.00000  Uiso   1.00
C459   C     0.26213   0.21973   0.94666   0.00000  Uiso   1.00
C460   C     0.21472   0.21193   0.91929   0.00000  Uiso   1.00
C461   C     0.17422   0.16146   0.56821   0.00000  Uiso   1.00
C462   C     0.28284   0.19634   0.57454   0.00000  Uiso   1.00
Cu463  Cu    0.10710   0.16105   0.74436   0.00000  Uiso   1.00
Cu464  Cu    0.22623   0.17228   0.75565   0.00000  Uiso   1.00
H465   H     0.31925   0.20670   0.59668   0.00000  Uiso   1.00
H466   H     0.22464   0.23429   0.88504   0.00000  Uiso   1.00
H467   H     0.23586   0.01320   0.75660   0.00000  Uiso   1.00
H468   H     0.02454   0.07167   0.55850   0.00000  Uiso   1.00
H469   H     0.09391   0.01690   0.56598   0.00000  Uiso   1.00
H470   H     0.15461   0.05434   0.51856   0.00000  Uiso   1.00
H471   H     0.08458   0.01352   0.50072   0.00000  Uiso   1.00
H472   H     0.09743   0.32013   0.74350   0.00000  Uiso   1.00
H473   H     0.00367   0.20584   0.78967   0.00000  Uiso   1.00
H474   H     0.32964   0.12747   0.71036   0.00000  Uiso   1.00
H475   H     0.30745   0.24491   0.93140   0.00000  Uiso   1.00
H476   H     0.01137   0.23004   0.50684   0.00000  Uiso   1.00
H477   H     0.12599   0.14881   0.58764   0.00000  Uiso   1.00
H478   H     0.01735   0.12153   0.89865   0.00000  Uiso   1.00
H479   H     0.32552   0.08473   0.98254   0.00000  Uiso   1.00
N480   N     0.31574   0.18074   0.76416   0.00000  Uiso   1.00
N481   N     0.01759   0.15259   0.73584   0.00000  Uiso   1.00
N482   N     0.07153   0.08356   0.54157   0.00000  Uiso   1.00
O483   O     0.12797   0.23807   0.74633   0.00000  Uiso   1.00
O484   O     0.22858   0.24755   0.75587   0.00000  Uiso   1.00
O485   O     0.09181   0.15960   0.81840   0.00000  Uiso   1.00
O486   O     0.19242   0.16908   0.82793   0.00000  Uiso   1.00
O487   O     0.10476   0.08578   0.74414   0.00000  Uiso   1.00
O488   O     0.20536   0.09526   0.75367   0.00000  Uiso   1.00
O489   O     0.14092   0.16425   0.67207   0.00000  Uiso   1.00
O490   O     0.24152   0.17373   0.68161   0.00000  Uiso   1.00
C491   C     0.51511   0.26675   0.75154   0.00000  Uiso   1.00
C492   C     0.44605   0.16105   0.90295   0.00000  Uiso   1.00
C493   C     0.52363   0.32271   0.75231   0.00000  Uiso   1.00
C494   C     0.46654   0.16565   0.84721   0.00000  Uiso   1.00
C495   C     0.47634   0.01063   0.74778   0.00000  Uiso   1.00
C496   C     0.48487   0.06659   0.74851   0.00000  Uiso   1.00
C497   C     0.53379   0.16992   0.65300   0.00000  Uiso   1.00
C498   C     0.63058   0.20948   0.52340   0.00000  Uiso   1.00
C499   C     0.55382   0.17454   0.59764   0.00000  Uiso   1.00
C500   C     0.38538   0.13220   0.92239   0.00000  Uiso   1.00
C501   C     0.37100   0.11094   0.97035   0.00000  Uiso   1.00
C502   C     0.47567   0.15463   0.98484   0.00000  Uiso   1.00
C503   C     0.41675   0.11794   0.50005   0.00000  Uiso   1.00
C504   C     0.43622   0.03988   0.53094   0.00000  Uiso   1.00
C505   C     0.48981   0.17632   0.93552   0.00000  Uiso   1.00
C506   C     0.52188   0.16977   0.51579   0.00000  Uiso   1.00
C507   C     0.58331   0.19855   0.99465   0.00000  Uiso   1.00
C508   C     0.59547   0.21973   0.94666   0.00000  Uiso   1.00
C509   C     0.54805   0.21193   0.91929   0.00000  Uiso   1.00
C510   C     0.50755   0.16146   0.56821   0.00000  Uiso   1.00
C511   C     0.61617   0.19634   0.57454   0.00000  Uiso   1.00
Cu512  Cu    0.44043   0.16105   0.74436   0.00000  Uiso   1.00
Cu513  Cu    0.55957   0.17228   0.75565   0.00000  Uiso   1.00
H514   H     0.65259   0.20670   0.59668   0.00000  Uiso   1.00
H515   H     0.55798   0.23429   0.88504   0.00000  Uiso   1.00
H516   H     0.56920   0.01320   0.75660   0.00000  Uiso   1.00
H517   H     0.35787   0.07167   0.55850   0.00000  Uiso   1.00
H518   H     0.42724   0.01690   0.56598   0.00000  Uiso   1.00
H519   H     0.48794   0.05434   0.51856   0.00000  Uiso   1.00
H520   H     0.41791   0.01352   0.50072   0.00000  Uiso   1.00
H521   H     0.43077   0.32013   0.74350   0.00000  Uiso   1.00
H522   H     0.33700   0.20584   0.78967   0.00000  Uiso   1.00
H523   H     0.66298   0.12747   0.71036   0.00000  Uiso   1.00
H524   H     0.64078   0.24491   0.93140   0.00000  Uiso   1.00
H525   H     0.34470   0.23004   0.50684   0.00000  Uiso   1.00
H526   H     0.45932   0.14881   0.58764   0.00000  Uiso   1.00
H527   H     0.35068   0.12153   0.89865   0.00000  Uiso   1.00
H528   H     0.65885   0.08473   0.98254   0.00000  Uiso   1.00
N529   N     0.64908   0.18074   0.76416   0.00000  Uiso   1.00
N530   N     0.35092   0.15259   0.73584   0.00000  Uiso   1.00
N531   N     0.40487   0.08356   0.54157   0.00000  Uiso   1.00
O532   O     0.46131   0.23807   0.74633   0.00000  Uiso   1.00
O533   O     0.56191   0.24755   0.75587   0.00000  Uiso   1.00
O534   O     0.42515   0.15960   0.81840   0.00000  Uiso   1.00
O535   O     0.52575   0.16908   0.82793   0.00000  Uiso   1.00
O536   O     0.43809   0.08578   0.74414   0.00000  Uiso   1.00
O537   O     0.53869   0.09526   0.75367   0.00000  Uiso   1.00
O538   O     0.47425   0.16425   0.67207   0.00000  Uiso   1.00
O539   O     0.57485   0.17373   0.68161   0.00000  Uiso   1.00
C540   C     0.84844   0.26675   0.75154   0.00000  Uiso   1.00
C541   C     0.77939   0.16105   0.90295   0.00000  Uiso   1.00
C542   C     0.85696   0.32271   0.75231   0.00000  Uiso   1.00
C543   C     0.79987   0.16565   0.84721   0.00000  Uiso   1.00
C544   C     0.80967   0.01063   0.74778   0.00000  Uiso   1.00
C545   C     0.81821   0.06659   0.74851   0.00000  Uiso   1.00
C546   C     0.86712   0.16992   0.65300   0.00000  Uiso   1.00
C547   C     0.96391   0.20948   0.52340   0.00000  Uiso   1.00
C548   C     0.88715   0.17454   0.59764   0.00000  Uiso   1.00
C549   C     0.71871   0.13220   0.92239   0.00000  Uiso   1.00
C550   C     0.70433   0.11094   0.97035   0.00000  Uiso   1.00
C551   C     0.80901   0.15463   0.98484   0.00000  Uiso   1.00
C552   C     0.75008   0.11794   0.50005   0.00000  Uiso   1.00
C553   C     0.76956   0.03988   0.53094   0.00000  Uiso   1.00
C554   C     0.82315   0.17632   0.93552   0.00000  Uiso   1.00
C555   C     0.85521   0.16977   0.51579   0.00000  Uiso   1.00
C556   C     0.91664   0.19855   0.99465   0.00000  Uiso   1.00
C557   C     0.92880   0.21973   0.94666   0.00000  Uiso   1.00
C558   C     0.88139   0.21193   0.91929   0.00000  Uiso   1.00
C559   C     0.84088   0.16146   0.56821   0.00000  Uiso   1.00
C560   C     0.94950   0.19634   0.57454   0.00000  Uiso   1.00
Cu561  Cu    0.77377   0.16105   0.74436   0.00000  Uiso   1.00
Cu562  Cu    0.89290   0.17228   0.75565   0.00000  Uiso   1.00
H563   H     0.98592   0.20670   0.59668   0.00000  Uiso   1.00
H564   H     0.89131   0.23429   0.88504   0.00000  Uiso   1.00
H565   H     0.90253   0.01320   0.75660   0.00000  Uiso   1.00
H566   H     0.69121   0.07167   0.55850   0.00000  Uiso   1.00
H567   H     0.76058   0.01690   0.56598   0.00000  Uiso   1.00
H568   H     0.82128   0.05434   0.51856   0.00000  Uiso   1.00
H569   H     0.75124   0.01352   0.50072   0.00000  Uiso   1.00
H570   H     0.76410   0.32013   0.74350   0.00000  Uiso   1.00
H571   H     0.67034   0.20584   0.78967   0.00000  Uiso   1.00
H572   H     0.99631   0.12747   0.71036   0.00000  Uiso   1.00
H573   H     0.97411   0.24491   0.93140   0.00000  Uiso   1.00
H574   H     0.67804   0.23004   0.50684   0.00000  Uiso   1.00
H575   H     0.79266   0.14881   0.58764   0.00000  Uiso   1.00
H576   H     0.68401   0.12153   0.89865   0.00000  Uiso   1.00
H577   H     0.99218   0.08473   0.98254   0.00000  Uiso   1.00
N578   N     0.98241   0.18074   0.76416   0.00000  Uiso   1.00
N579   N     0.68426   0.15259   0.73584   0.00000  Uiso   1.00
N580   N     0.73820   0.08356   0.54157   0.00000  Uiso   1.00
O581   O     0.79464   0.23807   0.74633   0.00000  Uiso   1.00
O582   O     0.89524   0.24755   0.75587   0.00000  Uiso   1.00
O583   O     0.75848   0.15960   0.81840   0.00000  Uiso   1.00
O584   O     0.85908   0.16908   0.82793   0.00000  Uiso   1.00
O585   O     0.77142   0.08578   0.74414   0.00000  Uiso   1.00
O586   O     0.87203   0.09526   0.75367   0.00000  Uiso   1.00
O587   O     0.80758   0.16425   0.67207   0.00000  Uiso   1.00
O588   O     0.90819   0.17373   0.68161   0.00000  Uiso   1.00
C589   C     0.18177   0.60008   0.75154   0.00000  Uiso   1.00
C590   C     0.11272   0.49438   0.90295   0.00000  Uiso   1.00
C591   C     0.19030   0.65604   0.75231   0.00000  Uiso   1.00
C592   C     0.13321   0.49899   0.84721   0.00000  Uiso   1.00
C593   C     0.14300   0.34396   0.74778   0.00000  Uiso   1.00
C594   C     0.15154   0.39992   0.74851   0.00000  Uiso   1.00
C595   C     0.20046   0.50325   0.65300   0.00000  Uiso   1.00
C596   C     0.29724   0.54281   0.52340   0.00000  Uiso   1.00
C597   C     0.22049   0.50787   0.59764   0.00000  Uiso   1.00
C598   C     0.05204   0.46554   0.92239   0.00000  Uiso   1.00
C599   C     0.03766   0.44427   0.97035   0.00000  Uiso   1.00
C600   C     0.14234   0.48797   0.98484   0.00000  Uiso   1.00
C601   C     0.08341   0.45127   0.50005   0.00000  Uiso   1.00
C602   C     0.10289   0.37322   0.53094   0.00000  Uiso   1.00
C603   C     0.15648   0.50965   0.93552   0.00000  Uiso   1.00
C604   C     0.18854   0.50311   0.51579   0.00000  Uiso   1.00
C605   C     0.24998   0.53188   0.99465   0.00000  Uiso   1.00
C606   C     0.26213   0.55307   0.94666   0.00000  Uiso   1.00
C607   C     0.21472   0.54527   0.91929   0.00000  Uiso   1.00
C608   C     0.17422   0.49480   0.56821   0.00000  Uiso   1.00
C609   C     0.28284   0.52967   0.57454   0.00000  Uiso   1.00
Cu610  Cu    0.10710   0.49439   0.74436   0.00000  Uiso   1.00
Cu611  Cu    0.22623   0.50561   0.75565   0.00000  Uiso   1.00
H612   H     0.31925   0.54004   0.59668   0.00000  Uiso   1.00
H613   H     0.22464   0.56762   0.88504   0.00000  Uiso   1.00
H614   H     0.23586   0.34653   0.75660   0.00000  Uiso   1.00
H615   H     0.02454   0.40501   0.55850   0.00000  Uiso   1.00
H616   H     0.09391   0.35023   0.56598   0.00000  Uiso   1.00
H617   H     0.15461   0.38768   0.51856   0.00000  Uiso   1.00
H618   H     0.08458   0.34685   0.50072   0.00000  Uiso   1.00
H619   H     0.09743   0.65347   0.74350   0.00000  Uiso   1.00
H620   H     0.00367   0.53917   0.78967   0.00000  Uiso   1.00
H621   H     0.32964   0.46081   0.71036   0.00000  Uiso   1.00
H622   H     0.30745   0.57824   0.93140   0.00000  Uiso   1.00
H623   H     0.01137   0.56337   0.50684   0.00000  Uiso   1.00
H624   H     0.12599   0.48214   0.58764   0.00000  Uiso   1.00
H625   H     0.01735   0.45486   0.89865   0.00000  Uiso   1.00
H626   H     0.32552   0.41806   0.98254   0.00000  Uiso   1.00
N627   N     0.31574   0.51407   0.76416   0.00000  Uiso   1.00
N628   N     0.01759   0.48593   0.73584   0.00000  Uiso   1.00
N629   N     0.07153   0.41689   0.54157   0.00000  Uiso   1.00
O630   O     0.12797   0.57141   0.74633   0.00000  Uiso   1.00
O631   O     0.22858   0.58089   0.75587   0.00000  Uiso   1.00
O632   O     0.09181   0.49293   0.81840   0.00000  Uiso   1.00
O633   O     0.19242   0.50241   0.82793   0.00000  Uiso   1.00
O634   O     0.10476   0.41911   0.74414   0.00000  Uiso   1.00
O635   O     0.20536   0.42859   0.75367   0.00000  Uiso   1.00
O636   O     0.14092   0.49759   0.67207   0.00000  Uiso   1.00
O637   O     0.24152   0.50707   0.68161   0.00000  Uiso   1.00
C638   C     0.51511   0.60008   0.75154   0.00000  Uiso   1.00
C639   C     0.44605   0.49438   0.90295   0.00000  Uiso   1.00
C640   C     0.52363   0.65604   0.75231   0.00000  Uiso   1.00
C641   C     0.46654   0.49899   0.84721   0.00000  Uiso   1.00
C642   C     0.47634   0.34396   0.74778   0.00000  Uiso   1.00
C643   C     0.48487   0.39992   0.74851   0.00000  Uiso   1.00
C644   C     0.53379   0.50325   0.65300   0.00000  Uiso   1.00
C645   C     0.63058   0.54281   0.52340   0.00000  Uiso   1.00
C646   C     0.55382   0.50787   0.59764   0.00000  Uiso   1.00
C647   C     0.38538   0.46554   0.92239   0.00000  Uiso   1.00
C648   C     0.37100   0.44427   0.97035   0.00000  Uiso   1.00
C649   C     0.47567   0.48797   0.98484   0.00000  Uiso   1.00
C650   C     0.41675   0.45127   0.50005   0.00000  Uiso   1.00
C651   C     0.43622   0.37322   0.53094   0.00000  Uiso   1.00
C652   C     0.48981   0.50965   0.93552   0.00000  Uiso   1.00
C653   C     0.52188   0.50311   0.51579   0.00000  Uiso   1.00
C654   C     0.58331   0.53188   0.99465   0.00000  Uiso   1.00
C655   C     0.59547   0.55307   0.94666   0.00000  Uiso   1.00
C656   C     0.54805   0.54527   0.91929   0.00000  Uiso   1.00
C657   C     0.50755   0.49480   0.56821   0.00000  Uiso   1.00
C658   C     0.61617   0.52967   0.57454   0.00000  Uiso   1.00
Cu659  Cu    0.44043   0.49439   0.74436   0.00000  Uiso   1.00
Cu660  Cu    0.55957   0.50561   0.75565   0.00000  Uiso   1.00
H661   H     0.65259   0.54004   0.59668   0.00000  Uiso   1.00
H662   H     0.55798   0.56762   0.88504   0.00000  Uiso   1.00
H663   H     0.56920   0.34653   0.75660   0.00000  Uiso   1.00
H664   H     0.35787   0.40501   0.55850   0.00000  Uiso   1.00
H665   H     0.42724   0.35023   0.56598   0.00000  Uiso   1.00
H666   H     0.48794   0.38768   0.51856   0.00000  Uiso   1.00
H667   H     0.41791   0.34685   0.50072   0.00000  Uiso   1.00
H668   H     0.43077   0.65347   0.74350   0.00000  Uiso   1.00
H669   H     0.33700   0.53917   0.78967   0.00000  Uiso   1.00
H670   H     0.66298   0.46081   0.71036   0.00000  Uiso   1.00
H671   H     0.64078   0.57824   0.93140   0.00000  Uiso   1.00
H672   H     0.34470   0.56337   0.50684   0.00000  Uiso   1.00
H673   H     0.45932   0.48214   0.58764   0.00000  Uiso   1.00
H674   H     0.35068   0.45486   0.89865   0.00000  Uiso   1.00
H675   H     0.65885   0.41806   0.98254   0.00000  Uiso   1.00
N676   N     0.64908   0.51407   0.76416   0.00000  Uiso   1.00
N677   N     0.35092   0.48593   0.73584   0.00000  Uiso   1.00
N678   N     0.40487   0.41689   0.54157   0.00000  Uiso   1.00
O679   O     0.46131   0.57141   0.74633   0.00000  Uiso   1.00
O680   O     0.56191   0.58089   0.75587   0.00000  Uiso   1.00
O681   O     0.42515   0.49293   0.81840   0.00000  Uiso   1.00
O682   O     0.52575   0.50241   0.82793   0.00000  Uiso   1.00
O683   O     0.43809   0.41911   0.74414   0.00000  Uiso   1.00
O684   O     0.53869   0.42859   0.75367   0.00000  Uiso   1.00
O685   O     0.47425   0.49759   0.67207   0.00000  Uiso   1.00
O686   O     0.57485   0.50707   0.68161   0.00000  Uiso   1.00
C687   C     0.84844   0.60008   0.75154   0.00000  Uiso   1.00
C688   C     0.77939   0.49438   0.90295   0.00000  Uiso   1.00
C689   C     0.85696   0.65604   0.75231   0.00000  Uiso   1.00
C690   C     0.79987   0.49899   0.84721   0.00000  Uiso   1.00
C691   C     0.80967   0.34396   0.74778   0.00000  Uiso   1.00
C692   C     0.81821   0.39992   0.74851   0.00000  Uiso   1.00
C693   C     0.86712   0.50325   0.65300   0.00000  Uiso   1.00
C694   C     0.96391   0.54281   0.52340   0.00000  Uiso   1.00
C695   C     0.88715   0.50787   0.59764   0.00000  Uiso   1.00
C696   C     0.71871   0.46554   0.92239   0.00000  Uiso   1.00
C697   C     0.70433   0.44427   0.97035   0.00000  Uiso   1.00
C698   C     0.80901   0.48797   0.98484   0.00000  Uiso   1.00
C699   C     0.75008   0.45127   0.50005   0.00000  Uiso   1.00
C700   C     0.76956   0.37322   0.53094   0.00000  Uiso   1.00
C701   C     0.82315   0.50965   0.93552   0.00000  Uiso   1.00
C702   C     0.85521   0.50311   0.51579   0.00000  Uiso   1.00
C703   C     0.91664   0.53188   0.99465   0.00000  Uiso   1.00
C704   C     0.92880   0.55307   0.94666   0.00000  Uiso   1.00
C705   C     0.88139   0.54527   0.91929   0.00000  Uiso   1.00
C706   C     0.84088   0.49480   0.56821   0.00000  Uiso   1.00
C707   C     0.94950   0.52967   0.57454   0.00000  Uiso   1.00
Cu708  Cu    0.77377   0.49439   0.74436   0.00000  Uiso   1.00
Cu709  Cu    0.89290   0.50561   0.75565   0.00000  Uiso   1.00
H710   H     0.98592   0.54004   0.59668   0.00000  Uiso   1.00
H711   H     0.89131   0.56762   0.88504   0.00000  Uiso   1.00
H712   H     0.90253   0.34653   0.75660   0.00000  Uiso   1.00
H713   H     0.69121   0.40501   0.55850   0.00000  Uiso   1.00
H714   H     0.76058   0.35023   0.56598   0.00000  Uiso   1.00
H715   H     0.82128   0.38768   0.51856   0.00000  Uiso   1.00
H716   H     0.75124   0.34685   0.50072   0.00000  Uiso   1.00
H717   H     0.76410   0.65347   0.74350   0.00000  Uiso   1.00
H718   H     0.67034   0.53917   0.78967   0.00000  Uiso   1.00
H719   H     0.99631   0.46081   0.71036   0.00000  Uiso   1.00
H720   H     0.97411   0.57824   0.93140   0.00000  Uiso   1.00
H721   H     0.67804   0.56337   0.50684   0.00000  Uiso   1.00
H722   H     0.79266   0.48214   0.58764   0.00000  Uiso   1.00
H723   H     0.68401   0.45486   0.89865   0.00000  Uiso   1.00
H724   H     0.99218   0.41806   0.98254   0.00000  Uiso   1.00
N725   N     0.98241   0.51407   0.76416   0.00000  Uiso   1.00
N726   N     0.68426   0.48593   0.73584   0.00000  Uiso   1.00
N727   N     0.73820   0.41689   0.54157   0.00000  Uiso   1.00
O728   O     0.79464   0.57141   0.74633   0.00000  Uiso   1.00
O729   O     0.89524   0.58089   0.75587   0.00000  Uiso   1.00
O730   O     0.75848   0.49293   0.81840   0.00000  Uiso   1.00
O731   O     0.85908   0.50241   0.82793   0.00000  Uiso   1.00
O732   O     0.77142   0.41911   0.74414   0.00000  Uiso   1.00
O733   O     0.87203   0.42859   0.75367   0.00000  Uiso   1.00
O734   O     0.80758   0.49759   0.67207   0.00000  Uiso   1.00
O735   O     0.90819   0.50707   0.68161   0.00000  Uiso   1.00
C736   C     0.18177   0.93341   0.75154   0.00000  Uiso   1.00
C737   C     0.11272   0.82772   0.90295   0.00000  Uiso   1.00
C738   C     0.19030   0.98937   0.75231   0.00000  Uiso   1.00
C739   C     0.13321   0.83232   0.84721   0.00000  Uiso   1.00
C740   C     0.14300   0.67729   0.74778   0.00000  Uiso   1.00
C741   C     0.15154   0.73326   0.74851   0.00000  Uiso   1.00
C742   C     0.20046   0.83658   0.65300   0.00000  Uiso   1.00
C743   C     0.29724   0.87615   0.52340   0.00000  Uiso   1.00
C744   C     0.22049   0.84120   0.59764   0.00000  Uiso   1.00
C745   C     0.05204   0.79887   0.92239   0.00000  Uiso   1.00
C746   C     0.03766   0.77760   0.97035   0.00000  Uiso   1.00
C747   C     0.14234   0.82130   0.98484   0.00000  Uiso   1.00
C748   C     0.08341   0.78461   0.50005   0.00000  Uiso   1.00
C749   C     0.10289   0.70655   0.53094   0.00000  Uiso   1.00
C750   C     0.15648   0.84299   0.93552   0.00000  Uiso   1.00
C751   C     0.18854   0.83644   0.51579   0.00000  Uiso   1.00
C752   C     0.24998   0.86522   0.99465   0.00000  Uiso   1.00
C753   C     0.26213   0.88640   0.94666   0.00000  Uiso   1.00
C754   C     0.21472   0.87860   0.91929   0.00000  Uiso   1.00
C755   C     0.17422   0.82813   0.56821   0.00000  Uiso   1.00
C756   C     0.28284   0.86300   0.57454   0.00000  Uiso   1.00
Cu757  Cu    0.10710   0.82772   0.74436   0.00000  Uiso   1.00
Cu758  Cu    0.22623   0.83895   0.75565   0.00000  Uiso   1.00
H759   H     0.31925   0.87337   0.59668   0.00000  Uiso   1.00
H760   H     0.22464   0.90096   0.88504   0.00000  Uiso   1.00
H761   H     0.23586   0.67986   0.75660   0.00000  Uiso   1.00
H762   H     0.02454   0.73834   0.55850   0.00000  Uiso   1.00
H763   H     0.09391   0.68356   0.56598   0.00000  Uiso   1.00
H764   H     0.15461   0.72101   0.51856   0.00000  Uiso   1.00
H765   H     0.08458   0.68018   0.50072   0.00000  Uiso   1.00
H766   H     0.09743   0.98680   0.74350   0.00000  Uiso   1.00
H767   H     0.00367   0.87251   0.78967   0.00000  Uiso   1.00
H768   H     0.32964   0.79414   0.71036   0.00000  Uiso   1.00
H769   H     0.30745   0.91158   0.93140   0.00000  Uiso   1.00
H770   H     0.01137   0.89671   0.50684   0.00000  Uiso   1.00
H771   H     0.12599   0.81548   0.58764   0.00000  Uiso   1.00
H772   H     0.01735   0.78820   0.89865   0.00000  Uiso   1.00
H773   H     0.32552   0.75139   0.98254   0.00000  Uiso   1.00
N774   N     0.31574   0.84741   0.76416   0.00000  Uiso   1.00
N775   N     0.01759   0.81926   0.73584   0.00000  Uiso   1.00
N776   N     0.07153   0.75023   0.54157   0.00000  Uiso   1.00
O777   O     0.12797   0.90474   0.74633   0.00000  Uiso   1.00
O778   O     0.22858   0.91422   0.75587   0.00000  Uiso   1.00
O779   O     0.09181   0.82627   0.81840   0.00000  Uiso   1.00
O780   O     0.19242   0.83575   0.82793   0.00000  Uiso   1.00
O781   O     0.10476   0.75245   0.74414   0.00000  Uiso   1.00
O782   O     0.20536   0.76193   0.75367   0.00000  Uiso   1.00
O783   O     0.14092   0.83092   0.67207   0.00000  Uiso   1.00
O784   O     0.24152   0.84040   0.68161   0.00000  Uiso   1.00
C785   C     0.51511   0.93341   0.75154   0.00000  Uiso   1.00
C786   C     0.44605   0.82772   0.90295   0.00000  Uiso   1.00
C787   C     0.52363   0.98937   0.75231   0.00000  Uiso   1.00
C788   C     0.46654   0.83232   0.84721   0.00000  Uiso   1.00
C789   C     0.47634   0.67729   0.74778   0.00000  Uiso   1.00
C790   C     0.48487   0.73326   0.74851   0.00000  Uiso   1.00
C791   C     0.53379   0.83658   0.65300   0.00000  Uiso   1.00
C792   C     0.63058   0.87615   0.52340   0.00000  Uiso   1.00
C793   C     0.55382   0.84120   0.59764   0.00000  Uiso   1.00
C794   C     0.38538   0.79887   0.92239   0.00000  Uiso   1.00
C795   C     0.37100   0.77760   0.97035   0.00000  Uiso   1.00
C796   C     0.47567   0.82130   0.98484   0.00000  Uiso   1.00
C797   C     0.41675   0.78461   0.50005   0.00000  Uiso   1.00
C798   C     0.43622   0.70655   0.53094   0.00000  Uiso   1.00
C799   C     0.48981   0.84299   0.93552   0.00000  Uiso   1.00
C800   C     0.52188   0.83644   0.51579   0.00000  Uiso   1.00
C801   C     0.58331   0.86522   0.99465   0.00000  Uiso   1.00
C802   C     0.59547   0.88640   0.94666   0.00000  Uiso   1.00
C803   C     0.54805   0.87860   0.91929   0.00000  Uiso   1.00
C804   C     0.50755   0.82813   0.56821   0.00000  Uiso   1.00
C805   C     0.61617   0.86300   0.57454   0.00000  Uiso   1.00
Cu806  Cu    0.44043   0.82772   0.74436   0.00000  Uiso   1.00
Cu807  Cu    0.55957   0.83895   0.75565   0.00000  Uiso   1.00
H808   H     0.65259   0.87337   0.59668   0.00000  Uiso   1.00
H809   H     0.55798   0.90096   0.88504   0.00000  Uiso   1.00
H810   H     0.56920   0.67986   0.75660   0.00000  Uiso   1.00
H811   H     0.35787   0.73834   0.55850   0.00000  Uiso   1.00
H812   H     0.42724   0.68356   0.56598   0.00000  Uiso   1.00
H813   H     0.48794   0.72101   0.51856   0.00000  Uiso   1.00
H814   H     0.41791   0.68018   0.50072   0.00000  Uiso   1.00
H815   H     0.43077   0.98680   0.74350   0.00000  Uiso   1.00
H816   H     0.33700   0.87251   0.78967   0.00000  Uiso   1.00
H817   H     0.66298   0.79414   0.71036   0.00000  Uiso   1.00
H818   H     0.64078   0.91158   0.93140   0.00000  Uiso   1.00
H819   H     0.34470   0.89671   0.50684   0.00000  Uiso   1.00
H820   H     0.45932   0.81548   0.58764   0.00000  Uiso   1.00
H821   H     0.35068   0.78820   0.89865   0.00000  Uiso   1.00
H822   H     0.65885   0.75139   0.98254   0.00000  Uiso   1.00
N823   N     0.64908   0.84741   0.76416   0.00000  Uiso   1.00
N824   N     0.35092   0.81926   0.73584   0.00000  Uiso   1.00
N825   N     0.40487   0.75023   0.54157   0.00000  Uiso   1.00
O826   O     0.46131   0.90474   0.74633   0.00000  Uiso   1.00
O827   O     0.56191   0.91422   0.75587   0.00000  Uiso   1.00
O828   O     0.42515   0.82627   0.81840   0.00000  Uiso   1.00
O829   O     0.52575   0.83575   0.82793   0.00000  Uiso   1.00
O830   O     0.43809   0.75245   0.74414   0.00000  Uiso   1.00
O831   O     0.53869   0.76193   0.75367   0.00000  Uiso   1.00
O832   O     0.47425   0.83092   0.67207   0.00000  Uiso   1.00
O833   O     0.57485   0.84040   0.68161   0.00000  Uiso   1.00
C834   C     0.84844   0.93341   0.75154   0.00000  Uiso   1.00
C835   C     0.77939   0.82772   0.90295   0.00000  Uiso   1.00
C836   C     0.85696   0.98937   0.75231   0.00000  Uiso   1.00
C837   C     0.79987   0.83232   0.84721   0.00000  Uiso   1.00
C838   C     0.80967   0.67729   0.74778   0.00000  Uiso   1.00
C839   C     0.81821   0.73326   0.74851   0.00000  Uiso   1.00
C840   C     0.86712   0.83658   0.65300   0.00000  Uiso   1.00
C841   C     0.96391   0.87615   0.52340   0.00000  Uiso   1.00
C842   C     0.88715   0.84120   0.59764   0.00000  Uiso   1.00
C843   C     0.71871   0.79887   0.92239   0.00000  Uiso   1.00
C844   C     0.70433   0.77760   0.97035   0.00000  Uiso   1.00
C845   C     0.80901   0.82130   0.98484   0.00000  Uiso   1.00
C846   C     0.75008   0.78461   0.50005   0.00000  Uiso   1.00
C847   C     0.76956   0.70655   0.53094   0.00000  Uiso   1.00
C848   C     0.82315   0.84299   0.93552   0.00000  Uiso   1.00
C849   C     0.85521   0.83644   0.51579   0.00000  Uiso   1.00
C850   C     0.91664   0.86522   0.99465   0.00000  Uiso   1.00
C851   C     0.92880   0.88640   0.94666   0.00000  Uiso   1.00
C852   C     0.88139   0.87860   0.91929   0.00000  Uiso   1.00
C853   C     0.84088   0.82813   0.56821   0.00000  Uiso   1.00
C854   C     0.94950   0.86300   0.57454   0.00000  Uiso   1.00
Cu855  Cu    0.77377   0.82772   0.74436   0.00000  Uiso   1.00
Cu856  Cu    0.89290   0.83895   0.75565   0.00000  Uiso   1.00
H857   H     0.98592   0.87337   0.59668   0.00000  Uiso   1.00
H858   H     0.89131   0.90096   0.88504   0.00000  Uiso   1.00
H859   H     0.90253   0.67986   0.75660   0.00000  Uiso   1.00
H860   H     0.69121   0.73834   0.55850   0.00000  Uiso   1.00
H861   H     0.76058   0.68356   0.56598   0.00000  Uiso   1.00
H862   H     0.82128   0.72101   0.51856   0.00000  Uiso   1.00
H863   H     0.75124   0.68018   0.50072   0.00000  Uiso   1.00
H864   H     0.76410   0.98680   0.74350   0.00000  Uiso   1.00
H865   H     0.67034   0.87251   0.78967   0.00000  Uiso   1.00
H866   H     0.99631   0.79414   0.71036   0.00000  Uiso   1.00
H867   H     0.97411   0.91158   0.93140   0.00000  Uiso   1.00
H868   H     0.67804   0.89671   0.50684   0.00000  Uiso   1.00
H869   H     0.79266   0.81548   0.58764   0.00000  Uiso   1.00
H870   H     0.68401   0.78820   0.89865   0.00000  Uiso   1.00
H871   H     0.99218   0.75139   0.98254   0.00000  Uiso   1.00
N872   N     0.98241   0.84741   0.76416   0.00000  Uiso   1.00
N873   N     0.68426   0.81926   0.73584   0.00000  Uiso   1.00
N874   N     0.73820   0.75023   0.54157   0.00000  Uiso   1.00
O875   O     0.79464   0.90474   0.74633   0.00000  Uiso   1.00
O876   O     0.89524   0.91422   0.75587   0.00000  Uiso   1.00
O877   O     0.75848   0.82627   0.81840   0.00000  Uiso   1.00
O878   O     0.85908   0.83575   0.82793   0.00000  Uiso   1.00
O879   O     0.77142   0.75245   0.74414   0.00000  Uiso   1.00
O880   O     0.87203   0.76193   0.75367   0.00000  Uiso   1.00
O881   O     0.80758   0.83092   0.67207   0.00000  Uiso   1.00
O882   O     0.90819   0.84040   0.68161   0.00000  Uiso   1.00
loop_
_geom_bond_atom_site_label_1
_geom_bond_atom_site_label_2
_geom_bond_distance
_geom_bond_site_symmetry_2
_ccdc_geom_bond_type
C1     O42     1.290   .     A
C1     O43     1.284   .     A
C1     C3      1.427   .     S
C2     C4      1.475   .     S
C2     C15     1.422   .     A
C2     C10     1.398   .     A
C3     C152    1.328   .     S
C3     H173    1.088   .     S
C4     O45     1.293   .     A
C4     O44     1.305   .     A
C5     C6      1.427   .     S
C5     C297    1.328   1_545 S
C5     H325    1.088   1_545 S
C6     O46     1.284   .     A
C6     O47     1.290   .     A
C7     O48     1.293   .     A
C7     O49     1.301   .     A
C7     C9      1.465   .     S
C8     C21     1.393   .     A
C8     C458    1.405   1_554 S
C8     H84     1.084   .     S
C9     C20     1.401   .     A
C9     C21     1.398   .     A
C10    H37     1.083   .     S
C10    C11     1.385   .     A
C11    C454    1.400   .     S
C11    H136    1.083   1_455 S
C12    C15     1.423   .     A
C12    C454    1.434   .     S
C12    C457    1.431   .     S
C13    N41     1.424   .     S
C13    C453    1.434   1_554 S
C13    C452    1.400   1_554 S
C14    H28     1.110   .     S
C14    H30     1.112   .     S
C14    N41     1.447   .     S
C14    H29     1.111   .     S
C15    C19     1.414   .     A
C16    C20     1.398   .     A
C16    C453    1.431   1_554 S
C16    C458    1.420   1_554 S
C17    C18     1.389   .     A
C17    C457    1.420   .     S
C17    C449    1.405   .     S
C18    H34     1.084   .     S
C18    C19     1.385   .     A
C19    H25     1.081   .     S
C20    H36     1.075   .     S
C21    H24     1.083   .     S
Cu22   O48     1.928   .     S
Cu22   N40     2.017   .     S
Cu22   O42     1.954   .     S
Cu22   O46     1.950   .     S
Cu22   Cu23    2.684   .     S
Cu22   O44     1.949   .     S
Cu23   O45     1.928   .     S
Cu23   N39     2.017   .     S
Cu23   O49     1.949   .     S
Cu23   O47     1.954   .     S
Cu23   O43     1.950   .     S
H26    C297    1.088   1_545 S
H27    N41     1.032   .     S
H31    C152    1.088   .     S
H32    N137    1.029   1_455 S
H33    N89     1.029   .     S
H35    C106    1.084   1_455 S
H38    C60     1.083   .     S
N39    H81     1.029   .     S
N39    N89     1.287   .     S
N40    N137    1.287   1_455 S
N40    H131    1.029   1_455 S
C50    O91     1.290   .     A
C50    O92     1.284   .     A
C50    C52     1.427   .     S
C51    C53     1.475   .     S
C51    C64     1.422   .     A
C51    C59     1.398   .     A
C52    C201    1.328   .     S
C52    H222    1.088   .     S
C53    O94     1.293   .     A
C53    O93     1.305   .     A
C54    C55     1.427   .     S
C54    C346    1.328   1_545 S
C54    H374    1.088   1_545 S
C55    O95     1.284   .     A
C55    O96     1.290   .     A
C56    O97     1.293   .     A
C56    O98     1.301   .     A
C56    C58     1.465   .     S
C57    C70     1.393   .     A
C57    C507    1.405   1_554 S
C57    H133    1.084   .     S
C58    C69     1.401   .     A
C58    C70     1.398   .     A
C59    H86     1.083   .     S
C59    C60     1.385   .     A
C60    C503    1.400   .     S
C61    C64     1.423   .     A
C61    C503    1.434   .     S
C61    C506    1.431   .     S
C62    N90     1.424   .     S
C62    C502    1.434   1_554 S
C62    C501    1.400   1_554 S
C63    H77     1.110   .     S
C63    H79     1.112   .     S
C63    N90     1.447   .     S
C63    H78     1.111   .     S
C64    C68     1.414   .     A
C65    C69     1.398   .     A
C65    C502    1.431   1_554 S
C65    C507    1.420   1_554 S
C66    C67     1.389   .     A
C66    C506    1.420   .     S
C66    C498    1.405   .     S
C67    H83     1.084   .     S
C67    C68     1.385   .     A
C68    H74     1.081   .     S
C69    H85     1.075   .     S
C70    H73     1.083   .     S
Cu71   O97     1.928   .     S
Cu71   N89     2.017   .     S
Cu71   O91     1.954   .     S
Cu71   O95     1.950   .     S
Cu71   Cu72    2.684   .     S
Cu71   O93     1.949   .     S
Cu72   O94     1.928   .     S
Cu72   N88     2.017   .     S
Cu72   O98     1.949   .     S
Cu72   O96     1.954   .     S
Cu72   O92     1.950   .     S
H75    C346    1.088   1_545 S
H76    N90     1.032   .     S
H80    C201    1.088   .     S
H82    N138    1.029   .     S
H87    C109    1.083   .     S
N88    H130    1.029   .     S
N88    N138    1.287   .     S
C99    O140    1.290   .     A
C99    O141    1.284   .     A
C99    C101    1.427   .     S
C100   C102    1.475   .     S
C100   C113    1.422   .     A
C100   C108    1.398   .     A
C101   C250    1.328   .     S
C101   H271    1.088   .     S
C102   O143    1.293   .     A
C102   O142    1.305   .     A
C103   C104    1.427   .     S
C103   C395    1.328   1_545 S
C103   H423    1.088   1_545 S
C104   O144    1.284   .     A
C104   O145    1.290   .     A
C105   O146    1.293   .     A
C105   O147    1.301   .     A
C105   C107    1.465   .     S
C106   C119    1.393   .     A
C106   C556    1.405   1_554 S
C106   H35     1.084   1_655 S
C107   C118    1.401   .     A
C107   C119    1.398   .     A
C108   H135    1.083   .     S
C108   C109    1.385   .     A
C109   C552    1.400   .     S
C110   C113    1.423   .     A
C110   C552    1.434   .     S
C110   C555    1.431   .     S
C111   N139    1.424   .     S
C111   C551    1.434   1_554 S
C111   C550    1.400   1_554 S
C112   H126    1.110   .     S
C112   H128    1.112   .     S
C112   N139    1.447   .     S
C112   H127    1.111   .     S
C113   C117    1.414   .     A
C114   C118    1.398   .     A
C114   C551    1.431   1_554 S
C114   C556    1.420   1_554 S
C115   C116    1.389   .     A
C115   C555    1.420   .     S
C115   C547    1.405   .     S
C116   H132    1.084   .     S
C116   C117    1.385   .     A
C117   H123    1.081   .     S
C118   H134    1.075   .     S
C119   H122    1.083   .     S
Cu120  O146    1.928   .     S
Cu120  N138    2.017   .     S
Cu120  O140    1.954   .     S
Cu120  O144    1.950   .     S
Cu120  Cu121   2.684   .     S
Cu120  O142    1.949   .     S
Cu121  O143    1.928   .     S
Cu121  N137    2.017   .     S
Cu121  O147    1.949   .     S
Cu121  O145    1.954   .     S
Cu121  O141    1.950   .     S
H124   C395    1.088   1_545 S
H125   N139    1.032   .     S
H129   C250    1.088   .     S
H131   N40     1.029   1_655 S
H136   C11     1.083   1_655 S
N137   H32     1.029   1_655 S
N137   N40     1.287   1_655 S
C148   O189    1.290   .     A
C148   O190    1.284   .     A
C148   C150    1.427   .     S
C149   C151    1.475   .     S
C149   C162    1.422   .     A
C149   C157    1.398   .     A
C150   C299    1.328   .     S
C150   H320    1.088   .     S
C151   O192    1.293   .     A
C151   O191    1.305   .     A
C152   C153    1.427   .     S
C153   O193    1.284   .     A
C153   O194    1.290   .     A
C154   O195    1.293   .     A
C154   O196    1.301   .     A
C154   C156    1.465   .     S
C155   C168    1.393   .     A
C155   C605    1.405   1_554 S
C155   H231    1.084   .     S
C156   C167    1.401   .     A
C156   C168    1.398   .     A
C157   H184    1.083   .     S
C157   C158    1.385   .     A
C158   C601    1.400   .     S
C158   H283    1.083   1_455 S
C159   C162    1.423   .     A
C159   C601    1.434   .     S
C159   C604    1.431   .     S
C160   N188    1.424   .     S
C160   C600    1.434   1_554 S
C160   C599    1.400   1_554 S
C161   H175    1.110   .     S
C161   H177    1.112   .     S
C161   N188    1.447   .     S
C161   H176    1.111   .     S
C162   C166    1.414   .     A
C163   C167    1.398   .     A
C163   C600    1.431   1_554 S
C163   C605    1.420   1_554 S
C164   C165    1.389   .     A
C164   C604    1.420   .     S
C164   C596    1.405   .     S
C165   H181    1.084   .     S
C165   C166    1.385   .     A
C166   H172    1.081   .     S
C167   H183    1.075   .     S
C168   H171    1.083   .     S
Cu169  O195    1.928   .     S
Cu169  N187    2.017   .     S
Cu169  O189    1.954   .     S
Cu169  O193    1.950   .     S
Cu169  Cu170   2.684   .     S
Cu169  O191    1.949   .     S
Cu170  O192    1.928   .     S
Cu170  N186    2.017   .     S
Cu170  O196    1.949   .     S
Cu170  O194    1.954   .     S
Cu170  O190    1.950   .     S
H174   N188    1.032   .     S
H178   C299    1.088   .     S
H179   N284    1.029   1_455 S
H180   N236    1.029   .     S
H182   C253    1.084   1_455 S
H185   C207    1.083   .     S
N186   H228    1.029   .     S
N186   N236    1.287   .     S
N187   N284    1.287   1_455 S
N187   H278    1.029   1_455 S
C197   O238    1.290   .     A
C197   O239    1.284   .     A
C197   C199    1.427   .     S
C198   C200    1.475   .     S
C198   C211    1.422   .     A
C198   C206    1.398   .     A
C199   C348    1.328   .     S
C199   H369    1.088   .     S
C200   O241    1.293   .     A
C200   O240    1.305   .     A
C201   C202    1.427   .     S
C202   O242    1.284   .     A
C202   O243    1.290   .     A
C203   O244    1.293   .     A
C203   O245    1.301   .     A
C203   C205    1.465   .     S
C204   C217    1.393   .     A
C204   C654    1.405   1_554 S
C204   H280    1.084   .     S
C205   C216    1.401   .     A
C205   C217    1.398   .     A
C206   H233    1.083   .     S
C206   C207    1.385   .     A
C207   C650    1.400   .     S
C208   C211    1.423   .     A
C208   C650    1.434   .     S
C208   C653    1.431   .     S
C209   N237    1.424   .     S
C209   C649    1.434   1_554 S
C209   C648    1.400   1_554 S
C210   H224    1.110   .     S
C210   H226    1.112   .     S
C210   N237    1.447   .     S
C210   H225    1.111   .     S
C211   C215    1.414   .     A
C212   C216    1.398   .     A
C212   C649    1.431   1_554 S
C212   C654    1.420   1_554 S
C213   C214    1.389   .     A
C213   C653    1.420   .     S
C213   C645    1.405   .     S
C214   H230    1.084   .     S
C214   C215    1.385   .     A
C215   H221    1.081   .     S
C216   H232    1.075   .     S
C217   H220    1.083   .     S
Cu218  O244    1.928   .     S
Cu218  N236    2.017   .     S
Cu218  O238    1.954   .     S
Cu218  O242    1.950   .     S
Cu218  Cu219   2.684   .     S
Cu218  O240    1.949   .     S
Cu219  O241    1.928   .     S
Cu219  N235    2.017   .     S
Cu219  O245    1.949   .     S
Cu219  O243    1.954   .     S
Cu219  O239    1.950   .     S
H223   N237    1.032   .     S
H227   C348    1.088   .     S
H229   N285    1.029   .     S
H234   C256    1.083   .     S
N235   H277    1.029   .     S
N235   N285    1.287   .     S
C246   O287    1.290   .     A
C246   O288    1.284   .     A
C246   C248    1.427   .     S
C247   C249    1.475   .     S
C247   C260    1.422   .     A
C247   C255    1.398   .     A
C248   C397    1.328   .     S
C248   H418    1.088   .     S
C249   O290    1.293   .     A
C249   O289    1.305   .     A
C250   C251    1.427   .     S
C251   O291    1.284   .     A
C251   O292    1.290   .     A
C252   O293    1.293   .     A
C252   O294    1.301   .     A
C252   C254    1.465   .     S
C253   C266    1.393   .     A
C253   C703    1.405   1_554 S
C253   H182    1.084   1_655 S
C254   C265    1.401   .     A
C254   C266    1.398   .     A
C255   H282    1.083   .     S
C255   C256    1.385   .     A
C256   C699    1.400   .     S
C257   C260    1.423   .     A
C257   C699    1.434   .     S
C257   C702    1.431   .     S
C258   N286    1.424   .     S
C258   C698    1.434   1_554 S
C258   C697    1.400   1_554 S
C259   H273    1.110   .     S
C259   H275    1.112   .     S
C259   N286    1.447   .     S
C259   H274    1.111   .     S
C260   C264    1.414   .     A
C261   C265    1.398   .     A
C261   C698    1.431   1_554 S
C261   C703    1.420   1_554 S
C262   C263    1.389   .     A
C262   C702    1.420   .     S
C262   C694    1.405   .     S
C263   H279    1.084   .     S
C263   C264    1.385   .     A
C264   H270    1.081   .     S
C265   H281    1.075   .     S
C266   H269    1.083   .     S
Cu267  O293    1.928   .     S
Cu267  N285    2.017   .     S
Cu267  O287    1.954   .     S
Cu267  O291    1.950   .     S
Cu267  Cu268   2.684   .     S
Cu267  O289    1.949   .     S
Cu268  O290    1.928   .     S
Cu268  N284    2.017   .     S
Cu268  O294    1.949   .     S
Cu268  O292    1.954   .     S
Cu268  O288    1.950   .     S
H272   N286    1.032   .     S
H276   C397    1.088   .     S
H278   N187    1.029   1_655 S
H283   C158    1.083   1_655 S
N284   H179    1.029   1_655 S
N284   N187    1.287   1_655 S
C295   O336    1.290   .     A
C295   O337    1.284   .     A
C295   C297    1.427   .     S
C296   C298    1.475   .     S
C296   C309    1.422   .     A
C296   C304    1.398   .     A
C297   C5      1.328   1_565 S
C297   H26     1.088   1_565 S
C298   O339    1.293   .     A
C298   O338    1.305   .     A
C299   C300    1.427   .     S
C300   O340    1.284   .     A
C300   O341    1.290   .     A
C301   O342    1.293   .     A
C301   O343    1.301   .     A
C301   C303    1.465   .     S
C302   C315    1.393   .     A
C302   C752    1.405   1_554 S
C302   H378    1.084   .     S
C303   C314    1.401   .     A
C303   C315    1.398   .     A
C304   H331    1.083   .     S
C304   C305    1.385   .     A
C305   C748    1.400   .     S
C305   H430    1.083   1_455 S
C306   C309    1.423   .     A
C306   C748    1.434   .     S
C306   C751    1.431   .     S
C307   N335    1.424   .     S
C307   C747    1.434   1_554 S
C307   C746    1.400   1_554 S
C308   H322    1.110   .     S
C308   H324    1.112   .     S
C308   N335    1.447   .     S
C308   H323    1.111   .     S
C309   C313    1.414   .     A
C310   C314    1.398   .     A
C310   C747    1.431   1_554 S
C310   C752    1.420   1_554 S
C311   C312    1.389   .     A
C311   C751    1.420   .     S
C311   C743    1.405   .     S
C312   H328    1.084   .     S
C312   C313    1.385   .     A
C313   H319    1.081   .     S
C314   H330    1.075   .     S
C315   H318    1.083   .     S
Cu316  O342    1.928   .     S
Cu316  N334    2.017   .     S
Cu316  O336    1.954   .     S
Cu316  O340    1.950   .     S
Cu316  Cu317   2.684   .     S
Cu316  O338    1.949   .     S
Cu317  O339    1.928   .     S
Cu317  N333    2.017   .     S
Cu317  O343    1.949   .     S
Cu317  O341    1.954   .     S
Cu317  O337    1.950   .     S
H321   N335    1.032   .     S
H325   C5      1.088   1_565 S
H326   N431    1.029   1_455 S
H327   N383    1.029   .     S
H329   C400    1.084   1_455 S
H332   C354    1.083   .     S
N333   H375    1.029   .     S
N333   N383    1.287   .     S
N334   N431    1.287   1_455 S
N334   H425    1.029   1_455 S
C344   O385    1.290   .     A
C344   O386    1.284   .     A
C344   C346    1.427   .     S
C345   C347    1.475   .     S
C345   C358    1.422   .     A
C345   C353    1.398   .     A
C346   C54     1.328   1_565 S
C346   H75     1.088   1_565 S
C347   O388    1.293   .     A
C347   O387    1.305   .     A
C348   C349    1.427   .     S
C349   O389    1.284   .     A
C349   O390    1.290   .     A
C350   O391    1.293   .     A
C350   O392    1.301   .     A
C350   C352    1.465   .     S
C351   C364    1.393   .     A
C351   C801    1.405   1_554 S
C351   H427    1.084   .     S
C352   C363    1.401   .     A
C352   C364    1.398   .     A
C353   H380    1.083   .     S
C353   C354    1.385   .     A
C354   C797    1.400   .     S
C355   C358    1.423   .     A
C355   C797    1.434   .     S
C355   C800    1.431   .     S
C356   N384    1.424   .     S
C356   C796    1.434   1_554 S
C356   C795    1.400   1_554 S
C357   H371    1.110   .     S
C357   H373    1.112   .     S
C357   N384    1.447   .     S
C357   H372    1.111   .     S
C358   C362    1.414   .     A
C359   C363    1.398   .     A
C359   C796    1.431   1_554 S
C359   C801    1.420   1_554 S
C360   C361    1.389   .     A
C360   C800    1.420   .     S
C360   C792    1.405   .     S
C361   H377    1.084   .     S
C361   C362    1.385   .     A
C362   H368    1.081   .     S
C363   H379    1.075   .     S
C364   H367    1.083   .     S
Cu365  O391    1.928   .     S
Cu365  N383    2.017   .     S
Cu365  O385    1.954   .     S
Cu365  O389    1.950   .     S
Cu365  Cu366   2.684   .     S
Cu365  O387    1.949   .     S
Cu366  O388    1.928   .     S
Cu366  N382    2.017   .     S
Cu366  O392    1.949   .     S
Cu366  O390    1.954   .     S
Cu366  O386    1.950   .     S
H370   N384    1.032   .     S
H374   C54     1.088   1_565 S
H376   N432    1.029   .     S
H381   C403    1.083   .     S
N382   H424    1.029   .     S
N382   N432    1.287   .     S
C393   O434    1.290   .     A
C393   O435    1.284   .     A
C393   C395    1.427   .     S
C394   C396    1.475   .     S
C394   C407    1.422   .     A
C394   C402    1.398   .     A
C395   C103    1.328   1_565 S
C395   H124    1.088   1_565 S
C396   O437    1.293   .     A
C396   O436    1.305   .     A
C397   C398    1.427   .     S
C398   O438    1.284   .     A
C398   O439    1.290   .     A
C399   O440    1.293   .     A
C399   O441    1.301   .     A
C399   C401    1.465   .     S
C400   C413    1.393   .     A
C400   C850    1.405   1_554 S
C400   H329    1.084   1_655 S
C401   C412    1.401   .     A
C401   C413    1.398   .     A
C402   H429    1.083   .     S
C402   C403    1.385   .     A
C403   C846    1.400   .     S
C404   C407    1.423   .     A
C404   C846    1.434   .     S
C404   C849    1.431   .     S
C405   N433    1.424   .     S
C405   C845    1.434   1_554 S
C405   C844    1.400   1_554 S
C406   H420    1.110   .     S
C406   H422    1.112   .     S
C406   N433    1.447   .     S
C406   H421    1.111   .     S
C407   C411    1.414   .     A
C408   C412    1.398   .     A
C408   C845    1.431   1_554 S
C408   C850    1.420   1_554 S
C409   C410    1.389   .     A
C409   C849    1.420   .     S
C409   C841    1.405   .     S
C410   H426    1.084   .     S
C410   C411    1.385   .     A
C411   H417    1.081   .     S
C412   H428    1.075   .     S
C413   H416    1.083   .     S
Cu414  O440    1.928   .     S
Cu414  N432    2.017   .     S
Cu414  O434    1.954   .     S
Cu414  O438    1.950   .     S
Cu414  Cu415   2.684   .     S
Cu414  O436    1.949   .     S
Cu415  O437    1.928   .     S
Cu415  N431    2.017   .     S
Cu415  O441    1.949   .     S
Cu415  O439    1.954   .     S
Cu415  O435    1.950   .     S
H419   N433    1.032   .     S
H423   C103    1.088   1_565 S
H425   N334    1.029   1_655 S
H430   C305    1.083   1_655 S
N431   H326    1.029   1_655 S
N431   N334    1.287   1_655 S
C442   O483    1.290   .     A
C442   O484    1.284   .     A
C442   C444    1.427   .     S
C443   C445    1.475   .     S
C443   C456    1.422   .     A
C443   C451    1.398   .     A
C444   C593    1.328   .     S
C444   H614    1.088   .     S
C445   O486    1.293   .     A
C445   O485    1.305   .     A
C446   C447    1.427   .     S
C446   C738    1.328   1_545 S
C446   H766    1.088   1_545 S
C447   O487    1.284   .     A
C447   O488    1.290   .     A
C448   O489    1.293   .     A
C448   O490    1.301   .     A
C448   C450    1.465   .     S
C449   C462    1.393   .     A
C449   H525    1.084   .     S
C450   C461    1.401   .     A
C450   C462    1.398   .     A
C451   H478    1.083   .     S
C451   C452    1.385   .     A
C452   C13     1.400   1_556 S
C452   H577    1.083   1_455 S
C453   C456    1.423   .     A
C453   C13     1.434   1_556 S
C453   C16     1.431   1_556 S
C454   N482    1.424   .     S
C455   H469    1.110   .     S
C455   H471    1.112   .     S
C455   N482    1.447   .     S
C455   H470    1.111   .     S
C456   C460    1.414   .     A
C457   C461    1.398   .     A
C458   C459    1.389   .     A
C458   C16     1.420   1_556 S
C458   C8      1.405   1_556 S
C459   H475    1.084   .     S
C459   C460    1.385   .     A
C460   H466    1.081   .     S
C461   H477    1.075   .     S
C462   H465    1.083   .     S
Cu463  O489    1.928   .     S
Cu463  N481    2.017   .     S
Cu463  O483    1.954   .     S
Cu463  O487    1.950   .     S
Cu463  Cu464   2.684   .     S
Cu463  O485    1.949   .     S
Cu464  O486    1.928   .     S
Cu464  N480    2.017   .     S
Cu464  O490    1.949   .     S
Cu464  O488    1.954   .     S
Cu464  O484    1.950   .     S
H467   C738    1.088   1_545 S
H468   N482    1.032   .     S
H472   C593    1.088   .     S
H473   N578    1.029   1_455 S
H474   N530    1.029   .     S
H476   C547    1.084   1_455 S
H479   C501    1.083   .     S
N480   H522    1.029   .     S
N480   N530    1.287   .     S
N481   N578    1.287   1_455 S
N481   H572    1.029   1_455 S
C491   O532    1.290   .     A
C491   O533    1.284   .     A
C491   C493    1.427   .     S
C492   C494    1.475   .     S
C492   C505    1.422   .     A
C492   C500    1.398   .     A
C493   C642    1.328   .     S
C493   H663    1.088   .     S
C494   O535    1.293   .     A
C494   O534    1.305   .     A
C495   C496    1.427   .     S
C495   C787    1.328   1_545 S
C495   H815    1.088   1_545 S
C496   O536    1.284   .     A
C496   O537    1.290   .     A
C497   O538    1.293   .     A
C497   O539    1.301   .     A
C497   C499    1.465   .     S
C498   C511    1.393   .     A
C498   H574    1.084   .     S
C499   C510    1.401   .     A
C499   C511    1.398   .     A
C500   H527    1.083   .     S
C500   C501    1.385   .     A
C501   C62     1.400   1_556 S
C502   C505    1.423   .     A
C502   C62     1.434   1_556 S
C502   C65     1.431   1_556 S
C503   N531    1.424   .     S
C504   H518    1.110   .     S
C504   H520    1.112   .     S
C504   N531    1.447   .     S
C504   H519    1.111   .     S
C505   C509    1.414   .     A
C506   C510    1.398   .     A
C507   C508    1.389   .     A
C507   C65     1.420   1_556 S
C507   C57     1.405   1_556 S
C508   H524    1.084   .     S
C508   C509    1.385   .     A
C509   H515    1.081   .     S
C510   H526    1.075   .     S
C511   H514    1.083   .     S
Cu512  O538    1.928   .     S
Cu512  N530    2.017   .     S
Cu512  O532    1.954   .     S
Cu512  O536    1.950   .     S
Cu512  Cu513   2.684   .     S
Cu512  O534    1.949   .     S
Cu513  O535    1.928   .     S
Cu513  N529    2.017   .     S
Cu513  O539    1.949   .     S
Cu513  O537    1.954   .     S
Cu513  O533    1.950   .     S
H516   C787    1.088   1_545 S
H517   N531    1.032   .     S
H521   C642    1.088   .     S
H523   N579    1.029   .     S
H528   C550    1.083   .     S
N529   H571    1.029   .     S
N529   N579    1.287   .     S
C540   O581    1.290   .     A
C540   O582    1.284   .     A
C540   C542    1.427   .     S
C541   C543    1.475   .     S
C541   C554    1.422   .     A
C541   C549    1.398   .     A
C542   C691    1.328   .     S
C542   H712    1.088   .     S
C543   O584    1.293   .     A
C543   O583    1.305   .     A
C544   C545    1.427   .     S
C544   C836    1.328   1_545 S
C544   H864    1.088   1_545 S
C545   O585    1.284   .     A
C545   O586    1.290   .     A
C546   O587    1.293   .     A
C546   O588    1.301   .     A
C546   C548    1.465   .     S
C547   C560    1.393   .     A
C547   H476    1.084   1_655 S
C548   C559    1.401   .     A
C548   C560    1.398   .     A
C549   H576    1.083   .     S
C549   C550    1.385   .     A
C550   C111    1.400   1_556 S
C551   C554    1.423   .     A
C551   C111    1.434   1_556 S
C551   C114    1.431   1_556 S
C552   N580    1.424   .     S
C553   H567    1.110   .     S
C553   H569    1.112   .     S
C553   N580    1.447   .     S
C553   H568    1.111   .     S
C554   C558    1.414   .     A
C555   C559    1.398   .     A
C556   C557    1.389   .     A
C556   C114    1.420   1_556 S
C556   C106    1.405   1_556 S
C557   H573    1.084   .     S
C557   C558    1.385   .     A
C558   H564    1.081   .     S
C559   H575    1.075   .     S
C560   H563    1.083   .     S
Cu561  O587    1.928   .     S
Cu561  N579    2.017   .     S
Cu561  O581    1.954   .     S
Cu561  O585    1.950   .     S
Cu561  Cu562   2.684   .     S
Cu561  O583    1.949   .     S
Cu562  O584    1.928   .     S
Cu562  N578    2.017   .     S
Cu562  O588    1.949   .     S
Cu562  O586    1.954   .     S
Cu562  O582    1.950   .     S
H565   C836    1.088   1_545 S
H566   N580    1.032   .     S
H570   C691    1.088   .     S
H572   N481    1.029   1_655 S
H577   C452    1.083   1_655 S
N578   H473    1.029   1_655 S
N578   N481    1.287   1_655 S
C589   O630    1.290   .     A
C589   O631    1.284   .     A
C589   C591    1.427   .     S
C590   C592    1.475   .     S
C590   C603    1.422   .     A
C590   C598    1.398   .     A
C591   C740    1.328   .     S
C591   H761    1.088   .     S
C592   O633    1.293   .     A
C592   O632    1.305   .     A
C593   C594    1.427   .     S
C594   O634    1.284   .     A
C594   O635    1.290   .     A
C595   O636    1.293   .     A
C595   O637    1.301   .     A
C595   C597    1.465   .     S
C596   C609    1.393   .     A
C596   H672    1.084   .     S
C597   C608    1.401   .     A
C597   C609    1.398   .     A
C598   H625    1.083   .     S
C598   C599    1.385   .     A
C599   C160    1.400   1_556 S
C599   H724    1.083   1_455 S
C600   C603    1.423   .     A
C600   C160    1.434   1_556 S
C600   C163    1.431   1_556 S
C601   N629    1.424   .     S
C602   H616    1.110   .     S
C602   H618    1.112   .     S
C602   N629    1.447   .     S
C602   H617    1.111   .     S
C603   C607    1.414   .     A
C604   C608    1.398   .     A
C605   C606    1.389   .     A
C605   C163    1.420   1_556 S
C605   C155    1.405   1_556 S
C606   H622    1.084   .     S
C606   C607    1.385   .     A
C607   H613    1.081   .     S
C608   H624    1.075   .     S
C609   H612    1.083   .     S
Cu610  O636    1.928   .     S
Cu610  N628    2.017   .     S
Cu610  O630    1.954   .     S
Cu610  O634    1.950   .     S
Cu610  Cu611   2.684   .     S
Cu610  O632    1.949   .     S
Cu611  O633    1.928   .     S
Cu611  N627    2.017   .     S
Cu611  O637    1.949   .     S
Cu611  O635    1.954   .     S
Cu611  O631    1.950   .     S
H615   N629    1.032   .     S
H619   C740    1.088   .     S
H620   N725    1.029   1_455 S
H621   N677    1.029   .     S
H623   C694    1.084   1_455 S
H626   C648    1.083   .     S
N627   H669    1.029   .     S
N627   N677    1.287   .     S
N628   N725    1.287   1_455 S
N628   H719    1.029   1_455 S
C638   O679    1.290   .     A
C638   O680    1.284   .     A
C638   C640    1.427   .     S
C639   C641    1.475   .     S
C639   C652    1.422   .     A
C639   C647    1.398   .     A
C640   C789    1.328   .     S
C640   H810    1.088   .     S
C641   O682    1.293   .     A
C641   O681    1.305   .     A
C642   C643    1.427   .     S
C643   O683    1.284   .     A
C643   O684    1.290   .     A
C644   O685    1.293   .     A
C644   O686    1.301   .     A
C644   C646    1.465   .     S
C645   C658    1.393   .     A
C645   H721    1.084   .     S
C646   C657    1.401   .     A
C646   C658    1.398   .     A
C647   H674    1.083   .     S
C647   C648    1.385   .     A
C648   C209    1.400   1_556 S
C649   C652    1.423   .     A
C649   C209    1.434   1_556 S
C649   C212    1.431   1_556 S
C650   N678    1.424   .     S
C651   H665    1.110   .     S
C651   H667    1.112   .     S
C651   N678    1.447   .     S
C651   H666    1.111   .     S
C652   C656    1.414   .     A
C653   C657    1.398   .     A
C654   C655    1.389   .     A
C654   C212    1.420   1_556 S
C654   C204    1.405   1_556 S
C655   H671    1.084   .     S
C655   C656    1.385   .     A
C656   H662    1.081   .     S
C657   H673    1.075   .     S
C658   H661    1.083   .     S
Cu659  O685    1.928   .     S
Cu659  N677    2.017   .     S
Cu659  O679    1.954   .     S
Cu659  O683    1.950   .     S
Cu659  Cu660   2.684   .     S
Cu659  O681    1.949   .     S
Cu660  O682    1.928   .     S
Cu660  N676    2.017   .     S
Cu660  O686    1.949   .     S
Cu660  O684    1.954   .     S
Cu660  O680    1.950   .     S
H664   N678    1.032   .     S
H668   C789    1.088   .     S
H670   N726    1.029   .     S
H675   C697    1.083   .     S
N676   H718    1.029   .     S
N676   N726    1.287   .     S
C687   O728    1.290   .     A
C687   O729    1.284   .     A
C687   C689    1.427   .     S
C688   C690    1.475   .     S
C688   C701    1.422   .     A
C688   C696    1.398   .     A
C689   C838    1.328   .     S
C689   H859    1.088   .     S
C690   O731    1.293   .     A
C690   O730    1.305   .     A
C691   C692    1.427   .     S
C692   O732    1.284   .     A
C692   O733    1.290   .     A
C693   O734    1.293   .     A
C693   O735    1.301   .     A
C693   C695    1.465   .     S
C694   C707    1.393   .     A
C694   H623    1.084   1_655 S
C695   C706    1.401   .     A
C695   C707    1.398   .     A
C696   H723    1.083   .     S
C696   C697    1.385   .     A
C697   C258    1.400   1_556 S
C698   C701    1.423   .     A
C698   C258    1.434   1_556 S
C698   C261    1.431   1_556 S
C699   N727    1.424   .     S
C700   H714    1.110   .     S
C700   H716    1.112   .     S
C700   N727    1.447   .     S
C700   H715    1.111   .     S
C701   C705    1.414   .     A
C702   C706    1.398   .     A
C703   C704    1.389   .     A
C703   C261    1.420   1_556 S
C703   C253    1.405   1_556 S
C704   H720    1.084   .     S
C704   C705    1.385   .     A
C705   H711    1.081   .     S
C706   H722    1.075   .     S
C707   H710    1.083   .     S
Cu708  O734    1.928   .     S
Cu708  N726    2.017   .     S
Cu708  O728    1.954   .     S
Cu708  O732    1.950   .     S
Cu708  Cu709   2.684   .     S
Cu708  O730    1.949   .     S
Cu709  O731    1.928   .     S
Cu709  N725    2.017   .     S
Cu709  O735    1.949   .     S
Cu709  O733    1.954   .     S
Cu709  O729    1.950   .     S
H713   N727    1.032   .     S
H717   C838    1.088   .     S
H719   N628    1.029   1_655 S
H724   C599    1.083   1_655 S
N725   H620    1.029   1_655 S
N725   N628    1.287   1_655 S
C736   O777    1.290   .     A
C736   O778    1.284   .     A
C736   C738    1.427   .     S
C737   C739    1.475   .     S
C737   C750    1.422   .     A
C737   C745    1.398   .     A
C738   C446    1.328   1_565 S
C738   H467    1.088   1_565 S
C739   O780    1.293   .     A
C739   O779    1.305   .     A
C740   C741    1.427   .     S
C741   O781    1.284   .     A
C741   O782    1.290   .     A
C742   O783    1.293   .     A
C742   O784    1.301   .     A
C742   C744    1.465   .     S
C743   C756    1.393   .     A
C743   H819    1.084   .     S
C744   C755    1.401   .     A
C744   C756    1.398   .     A
C745   H772    1.083   .     S
C745   C746    1.385   .     A
C746   C307    1.400   1_556 S
C746   H871    1.083   1_455 S
C747   C750    1.423   .     A
C747   C307    1.434   1_556 S
C747   C310    1.431   1_556 S
C748   N776    1.424   .     S
C749   H763    1.110   .     S
C749   H765    1.112   .     S
C749   N776    1.447   .     S
C749   H764    1.111   .     S
C750   C754    1.414   .     A
C751   C755    1.398   .     A
C752   C753    1.389   .     A
C752   C310    1.420   1_556 S
C752   C302    1.405   1_556 S
C753   H769    1.084   .     S
C753   C754    1.385   .     A
C754   H760    1.081   .     S
C755   H771    1.075   .     S
C756   H759    1.083   .     S
Cu757  O783    1.928   .     S
Cu757  N775    2.017   .     S
Cu757  O777    1.954   .     S
Cu757  O781    1.950   .     S
Cu757  Cu758   2.684   .     S
Cu757  O779    1.949   .     S
Cu758  O780    1.928   .     S
Cu758  N774    2.017   .     S
Cu758  O784    1.949   .     S
Cu758  O782    1.954   .     S
Cu758  O778    1.950   .     S
H762   N776    1.032   .     S
H766   C446    1.088   1_565 S
H767   N872    1.029   1_455 S
H768   N824    1.029   .     S
H770   C841    1.084   1_455 S
H773   C795    1.083   .     S
N774   H816    1.029   .     S
N774   N824    1.287   .     S
N775   N872    1.287   1_455 S
N775   H866    1.029   1_455 S
C785   O826    1.290   .     A
C785   O827    1.284   .     A
C785   C787    1.427   .     S
C786   C788    1.475   .     S
C786   C799    1.422   .     A
C786   C794    1.398   .     A
C787   C495    1.328   1_565 S
C787   H516    1.088   1_565 S
C788   O829    1.293   .     A
C788   O828    1.305   .     A
C789   C790    1.427   .     S
C790   O830    1.284   .     A
C790   O831    1.290   .     A
C791   O832    1.293   .     A
C791   O833    1.301   .     A
C791   C793    1.465   .     S
C792   C805    1.393   .     A
C792   H868    1.084   .     S
C793   C804    1.401   .     A
C793   C805    1.398   .     A
C794   H821    1.083   .     S
C794   C795    1.385   .     A
C795   C356    1.400   1_556 S
C796   C799    1.423   .     A
C796   C356    1.434   1_556 S
C796   C359    1.431   1_556 S
C797   N825    1.424   .     S
C798   H812    1.110   .     S
C798   H814    1.112   .     S
C798   N825    1.447   .     S
C798   H813    1.111   .     S
C799   C803    1.414   .     A
C800   C804    1.398   .     A
C801   C802    1.389   .     A
C801   C359    1.420   1_556 S
C801   C351    1.405   1_556 S
C802   H818    1.084   .     S
C802   C803    1.385   .     A
C803   H809    1.081   .     S
C804   H820    1.075   .     S
C805   H808    1.083   .     S
Cu806  O832    1.928   .     S
Cu806  N824    2.017   .     S
Cu806  O826    1.954   .     S
Cu806  O830    1.950   .     S
Cu806  Cu807   2.684   .     S
Cu806  O828    1.949   .     S
Cu807  O829    1.928   .     S
Cu807  N823    2.017   .     S
Cu807  O833    1.949   .     S
Cu807  O831    1.954   .     S
Cu807  O827    1.950   .     S
H811   N825    1.032   .     S
H815   C495    1.088   1_565 S
H817   N873    1.029   .     S
H822   C844    1.083   .     S
N823   H865    1.029   .     S
N823   N873    1.287   .     S
C834   O875    1.290   .     A
C834   O876    1.284   .     A
C834   C836    1.427   .     S
C835   C837    1.475   .     S
C835   C848    1.422   .     A
C835   C843    1.398   .     A
C836   C544    1.328   1_565 S
C836   H565    1.088   1_565 S
C837   O878    1.293   .     A
C837   O877    1.305   .     A
C838   C839    1.427   .     S
C839   O879    1.284   .     A
C839   O880    1.290   .     A
C840   O881    1.293   .     A
C840   O882    1.301   .     A
C840   C842    1.465   .     S
C841   C854    1.393   .     A
C841   H770    1.084   1_655 S
C842   C853    1.401   .     A
C842   C854    1.398   .     A
C843   H870    1.083   .     S
C843   C844    1.385   .     A
C844   C405    1.400   1_556 S
C845   C848    1.423   .     A
C845   C405    1.434   1_556 S
C845   C408    1.431   1_556 S
C846   N874    1.424   .     S
C847   H861    1.110   .     S
C847   H863    1.112   .     S
C847   N874    1.447   .     S
C847   H862    1.111   .     S
C848   C852    1.414   .     A
C849   C853    1.398   .     A
C850   C851    1.389   .     A
C850   C408    1.420   1_556 S
C850   C400    1.405   1_556 S
C851   H867    1.084   .     S
C851   C852    1.385   .     A
C852   H858    1.081   .     S
C853   H869    1.075   .     S
C854   H857    1.083   .     S
Cu855  O881    1.928   .     S
Cu855  N873    2.017   .     S
Cu855  O875    1.954   .     S
Cu855  O879    1.950   .     S
Cu855  Cu856   2.684   .     S
Cu855  O877    1.949   .     S
Cu856  O878    1.928   .     S
Cu856  N872    2.017   .     S
Cu856  O882    1.949   .     S
Cu856  O880    1.954   .     S
Cu856  O876    1.950   .     S
H860   N874    1.032   .     S
H864   C544    1.088   1_565 S
H866   N775    1.029   1_655 S
H871   C746    1.083   1_655 S
N872   H767    1.029   1_655 S
N872   N775    1.287   1_655 S
