data_str_m1_o10_o16_pcu_sym.56
_audit_creation_date              2020-01-03
_audit_creation_method            'Materials Studio'
_symmetry_space_group_name_H-M    'P1'
_symmetry_Int_Tables_number       1
_symmetry_cell_setting            triclinic
loop_
_symmetry_equiv_pos_as_xyz
  x,y,z
_cell_length_a                    32.5670
_cell_length_b                    32.6970
_cell_length_c                    30.9154
_cell_angle_alpha                 97.1284
_cell_angle_beta                  74.3899
_cell_angle_gamma                 98.5523
loop_
_atom_site_label
_atom_site_type_symbol
_atom_site_fract_x
_atom_site_fract_y
_atom_site_fract_z
_atom_site_U_iso_or_equiv
_atom_site_adp_type
_atom_site_occupancy
Zn1    Zn    0.19338   0.13994   0.28734   0.00000  Uiso   1.00
Zn2    Zn    0.13379   0.12458   0.21876   0.00000  Uiso   1.00
Zn3    Zn    0.21056   0.19775   0.20657   0.00000  Uiso   1.00
Zn4    Zn    0.12893   0.20439   0.28734   0.00000  Uiso   1.00
O5     O     0.16667   0.16667   0.25000   0.00000  Uiso   1.00
O6     O     0.07071   0.18878   0.28213   0.00000  Uiso   1.00
O7     O     0.25491   0.15226   0.27014   0.00000  Uiso   1.00
O8     O     0.13760   0.06944   0.23413   0.00000  Uiso   1.00
O9     O     0.20345   0.25620   0.21361   0.00000  Uiso   1.00
O10    O     0.15451   0.12637   0.15459   0.00000  Uiso   1.00
O11    O     0.12940   0.20391   0.34968   0.00000  Uiso   1.00
O12    O     0.20824   0.17759   0.14606   0.00000  Uiso   1.00
O13    O     0.17451   0.15880   0.34968   0.00000  Uiso   1.00
O14    O     0.17930   0.08019   0.28214   0.00000  Uiso   1.00
O15    O     0.14632   0.26085   0.27014   0.00000  Uiso   1.00
O16    O     0.07412   0.13291   0.23413   0.00000  Uiso   1.00
O17    O     0.26693   0.19272   0.21361   0.00000  Uiso   1.00
C18    C     0.05258   0.15939   0.26069   0.00000  Uiso   1.00
C19    C     0.28088   0.17337   0.23933   0.00000  Uiso   1.00
C20    C     0.15606   0.05613   0.26009   0.00000  Uiso   1.00
C21    C     0.17635   0.27793   0.24037   0.00000  Uiso   1.00
C22    C     0.18529   0.14787   0.12920   0.00000  Uiso   1.00
C23    C     0.14777   0.18450   0.37137   0.00000  Uiso   1.00
C24    C     0.19718   0.08664   0.01741   0.00000  Uiso   1.00
H25    H     0.21371   0.08018   0.07879   0.00000  Uiso   1.00
H26    H     0.17245   0.06541   0.43995   0.00000  Uiso   1.00
C27    C     0.19136   0.13910   0.08072   0.00000  Uiso   1.00
C28    C     0.12462   0.23096   0.44290   0.00000  Uiso   1.00
C29    C     0.12079   0.24030   0.48904   0.00000  Uiso   1.00
C30    C     0.13508   0.21458   0.01286   0.00000  Uiso   1.00
C31    C     0.15058   0.17694   0.49235   0.00000  Uiso   1.00
C32    C     0.14641   0.16331   0.44808   0.00000  Uiso   1.00
C33    C     0.16851   0.15174   0.01525   0.00000  Uiso   1.00
C34    C     0.17871   0.11167   0.49513   0.00000  Uiso   1.00
C35    C     0.16827   0.09677   0.45449   0.00000  Uiso   1.00
C36    C     0.14976   0.12095   0.43277   0.00000  Uiso   1.00
C37    C     0.17649   0.16520   0.05774   0.00000  Uiso   1.00
C38    C     0.20262   0.10051   0.06031   0.00000  Uiso   1.00
C39    C     0.13826   0.19236   0.42141   0.00000  Uiso   1.00
H40    H     0.16968   0.19506   0.07507   0.00000  Uiso   1.00
H41    H     0.13213   0.22444   0.04799   0.00000  Uiso   1.00
C42    C     0.32724   0.17543   0.23349   0.00000  Uiso   1.00
C43    C     0.00763   0.15866   0.26379   0.00000  Uiso   1.00
H44    H     0.31865   0.14507   0.29276   0.00000  Uiso   1.00
C45    C     0.18018   0.32248   0.23765   0.00000  Uiso   1.00
C46    C     0.15068   0.01254   0.26417   0.00000  Uiso   1.00
Cl47   Cl    0.22544   0.01176   0.19807   0.00000  Uiso   1.00
Cl48   Cl    0.10306   0.32763   0.30358   0.00000  Uiso   1.00
N49    N     0.20926   0.04658   0.49801   0.00000  Uiso   1.00
O50    O     0.18045   0.01727   0.48870   0.00000  Uiso   1.00
O51    O     0.24631   0.03682   0.49889   0.00000  Uiso   1.00
Cl52   Cl    0.11344   0.26952   0.41356   0.00000  Uiso   1.00
Cl53   Cl    0.09932   0.28530   0.01834   0.00000  Uiso   1.00
Cl54   Cl    0.12202   0.09341   0.39407   0.00000  Uiso   1.00
N55    N     0.02335   0.19469   0.19555   0.00000  Uiso   1.00
O56    O     0.01364   0.19150   0.15700   0.00000  Uiso   1.00
O57    O     0.05822   0.21803   0.20012   0.00000  Uiso   1.00
Zn58   Zn    0.52672   0.13994   0.28734   0.00000  Uiso   1.00
Zn59   Zn    0.46713   0.12458   0.21876   0.00000  Uiso   1.00
Zn60   Zn    0.54389   0.19775   0.20657   0.00000  Uiso   1.00
Zn61   Zn    0.46226   0.20439   0.28734   0.00000  Uiso   1.00
O62    O     0.50000   0.16667   0.25000   0.00000  Uiso   1.00
O63    O     0.40405   0.18878   0.28213   0.00000  Uiso   1.00
O64    O     0.58824   0.15226   0.27014   0.00000  Uiso   1.00
O65    O     0.47093   0.06944   0.23413   0.00000  Uiso   1.00
O66    O     0.53678   0.25620   0.21361   0.00000  Uiso   1.00
O67    O     0.48784   0.12637   0.15459   0.00000  Uiso   1.00
O68    O     0.46274   0.20391   0.34968   0.00000  Uiso   1.00
O69    O     0.54157   0.17759   0.14606   0.00000  Uiso   1.00
O70    O     0.50785   0.15880   0.34968   0.00000  Uiso   1.00
O71    O     0.51264   0.08019   0.28214   0.00000  Uiso   1.00
O72    O     0.47965   0.26085   0.27014   0.00000  Uiso   1.00
O73    O     0.40745   0.13291   0.23413   0.00000  Uiso   1.00
O74    O     0.60026   0.19272   0.21361   0.00000  Uiso   1.00
C75    C     0.38591   0.15939   0.26069   0.00000  Uiso   1.00
C76    C     0.61422   0.17337   0.23933   0.00000  Uiso   1.00
C77    C     0.48939   0.05613   0.26009   0.00000  Uiso   1.00
C78    C     0.50969   0.27793   0.24037   0.00000  Uiso   1.00
C79    C     0.51862   0.14787   0.12920   0.00000  Uiso   1.00
C80    C     0.48110   0.18450   0.37137   0.00000  Uiso   1.00
C81    C     0.53051   0.08664   0.01741   0.00000  Uiso   1.00
H82    H     0.54705   0.08018   0.07879   0.00000  Uiso   1.00
H83    H     0.50578   0.06541   0.43995   0.00000  Uiso   1.00
C84    C     0.52469   0.13910   0.08072   0.00000  Uiso   1.00
C85    C     0.45795   0.23096   0.44290   0.00000  Uiso   1.00
C86    C     0.45413   0.24030   0.48904   0.00000  Uiso   1.00
C87    C     0.46841   0.21458   0.01286   0.00000  Uiso   1.00
C88    C     0.48391   0.17694   0.49235   0.00000  Uiso   1.00
C89    C     0.47974   0.16331   0.44808   0.00000  Uiso   1.00
C90    C     0.50185   0.15174   0.01525   0.00000  Uiso   1.00
C91    C     0.51205   0.11167   0.49513   0.00000  Uiso   1.00
C92    C     0.50160   0.09677   0.45449   0.00000  Uiso   1.00
C93    C     0.48310   0.12095   0.43277   0.00000  Uiso   1.00
C94    C     0.50983   0.16520   0.05774   0.00000  Uiso   1.00
C95    C     0.53595   0.10051   0.06031   0.00000  Uiso   1.00
C96    C     0.47159   0.19236   0.42141   0.00000  Uiso   1.00
H97    H     0.50302   0.19506   0.07507   0.00000  Uiso   1.00
H98    H     0.46546   0.22444   0.04799   0.00000  Uiso   1.00
C99    C     0.66057   0.17543   0.23349   0.00000  Uiso   1.00
C100   C     0.34096   0.15866   0.26379   0.00000  Uiso   1.00
H101   H     0.65198   0.14507   0.29276   0.00000  Uiso   1.00
C102   C     0.51351   0.32248   0.23765   0.00000  Uiso   1.00
C103   C     0.48402   0.01254   0.26417   0.00000  Uiso   1.00
Cl104  Cl    0.55877   0.01176   0.19807   0.00000  Uiso   1.00
Cl105  Cl    0.43639   0.32763   0.30358   0.00000  Uiso   1.00
N106   N     0.54259   0.04658   0.49801   0.00000  Uiso   1.00
O107   O     0.51379   0.01727   0.48870   0.00000  Uiso   1.00
O108   O     0.57965   0.03682   0.49889   0.00000  Uiso   1.00
Cl109  Cl    0.44677   0.26952   0.41356   0.00000  Uiso   1.00
Cl110  Cl    0.43265   0.28530   0.01834   0.00000  Uiso   1.00
Cl111  Cl    0.45535   0.09341   0.39407   0.00000  Uiso   1.00
N112   N     0.35668   0.19469   0.19555   0.00000  Uiso   1.00
O113   O     0.34698   0.19150   0.15700   0.00000  Uiso   1.00
O114   O     0.39156   0.21803   0.20012   0.00000  Uiso   1.00
Zn115  Zn    0.86005   0.13994   0.28734   0.00000  Uiso   1.00
Zn116  Zn    0.80046   0.12458   0.21876   0.00000  Uiso   1.00
Zn117  Zn    0.87723   0.19775   0.20657   0.00000  Uiso   1.00
Zn118  Zn    0.79560   0.20439   0.28734   0.00000  Uiso   1.00
O119   O     0.83333   0.16667   0.25000   0.00000  Uiso   1.00
O120   O     0.73738   0.18878   0.28213   0.00000  Uiso   1.00
O121   O     0.92158   0.15226   0.27014   0.00000  Uiso   1.00
O122   O     0.80426   0.06944   0.23413   0.00000  Uiso   1.00
O123   O     0.87012   0.25620   0.21361   0.00000  Uiso   1.00
O124   O     0.82118   0.12637   0.15459   0.00000  Uiso   1.00
O125   O     0.79607   0.20391   0.34968   0.00000  Uiso   1.00
O126   O     0.87491   0.17759   0.14606   0.00000  Uiso   1.00
O127   O     0.84118   0.15880   0.34968   0.00000  Uiso   1.00
O128   O     0.84597   0.08019   0.28214   0.00000  Uiso   1.00
O129   O     0.81298   0.26085   0.27014   0.00000  Uiso   1.00
O130   O     0.74078   0.13291   0.23413   0.00000  Uiso   1.00
O131   O     0.93360   0.19272   0.21361   0.00000  Uiso   1.00
C132   C     0.71925   0.15939   0.26069   0.00000  Uiso   1.00
C133   C     0.94755   0.17337   0.23933   0.00000  Uiso   1.00
C134   C     0.82272   0.05613   0.26009   0.00000  Uiso   1.00
C135   C     0.84302   0.27793   0.24037   0.00000  Uiso   1.00
C136   C     0.85196   0.14787   0.12920   0.00000  Uiso   1.00
C137   C     0.81444   0.18450   0.37137   0.00000  Uiso   1.00
C138   C     0.86384   0.08664   0.01741   0.00000  Uiso   1.00
H139   H     0.88038   0.08018   0.07879   0.00000  Uiso   1.00
H140   H     0.83912   0.06541   0.43995   0.00000  Uiso   1.00
C141   C     0.85802   0.13910   0.08072   0.00000  Uiso   1.00
C142   C     0.79128   0.23096   0.44290   0.00000  Uiso   1.00
C143   C     0.78746   0.24030   0.48904   0.00000  Uiso   1.00
C144   C     0.80175   0.21458   0.01286   0.00000  Uiso   1.00
C145   C     0.81725   0.17694   0.49235   0.00000  Uiso   1.00
C146   C     0.81307   0.16331   0.44808   0.00000  Uiso   1.00
C147   C     0.83518   0.15174   0.01525   0.00000  Uiso   1.00
C148   C     0.84538   0.11167   0.49513   0.00000  Uiso   1.00
C149   C     0.83494   0.09677   0.45449   0.00000  Uiso   1.00
C150   C     0.81643   0.12095   0.43277   0.00000  Uiso   1.00
C151   C     0.84316   0.16520   0.05774   0.00000  Uiso   1.00
C152   C     0.86928   0.10051   0.06031   0.00000  Uiso   1.00
C153   C     0.80493   0.19236   0.42141   0.00000  Uiso   1.00
H154   H     0.83635   0.19506   0.07507   0.00000  Uiso   1.00
H155   H     0.79879   0.22444   0.04799   0.00000  Uiso   1.00
C156   C     0.99390   0.17543   0.23349   0.00000  Uiso   1.00
C157   C     0.67429   0.15866   0.26379   0.00000  Uiso   1.00
H158   H     0.98532   0.14507   0.29276   0.00000  Uiso   1.00
C159   C     0.84685   0.32248   0.23765   0.00000  Uiso   1.00
C160   C     0.81735   0.01254   0.26417   0.00000  Uiso   1.00
Cl161  Cl    0.89211   0.01176   0.19807   0.00000  Uiso   1.00
Cl162  Cl    0.76973   0.32763   0.30358   0.00000  Uiso   1.00
N163   N     0.87593   0.04658   0.49801   0.00000  Uiso   1.00
O164   O     0.84712   0.01727   0.48870   0.00000  Uiso   1.00
O165   O     0.91298   0.03682   0.49889   0.00000  Uiso   1.00
Cl166  Cl    0.78010   0.26952   0.41356   0.00000  Uiso   1.00
Cl167  Cl    0.76599   0.28530   0.01834   0.00000  Uiso   1.00
Cl168  Cl    0.78868   0.09341   0.39407   0.00000  Uiso   1.00
N169   N     0.69002   0.19469   0.19555   0.00000  Uiso   1.00
O170   O     0.68031   0.19150   0.15700   0.00000  Uiso   1.00
O171   O     0.72489   0.21803   0.20012   0.00000  Uiso   1.00
Zn172  Zn    0.19338   0.47327   0.28734   0.00000  Uiso   1.00
Zn173  Zn    0.13379   0.45791   0.21876   0.00000  Uiso   1.00
Zn174  Zn    0.21056   0.53109   0.20657   0.00000  Uiso   1.00
Zn175  Zn    0.12893   0.53773   0.28734   0.00000  Uiso   1.00
O176   O     0.16667   0.50000   0.25000   0.00000  Uiso   1.00
O177   O     0.07071   0.52211   0.28213   0.00000  Uiso   1.00
O178   O     0.25491   0.48559   0.27014   0.00000  Uiso   1.00
O179   O     0.13760   0.40277   0.23413   0.00000  Uiso   1.00
O180   O     0.20345   0.58953   0.21361   0.00000  Uiso   1.00
O181   O     0.15451   0.45970   0.15459   0.00000  Uiso   1.00
O182   O     0.12940   0.53724   0.34968   0.00000  Uiso   1.00
O183   O     0.20824   0.51092   0.14606   0.00000  Uiso   1.00
O184   O     0.17451   0.49213   0.34968   0.00000  Uiso   1.00
O185   O     0.17930   0.41352   0.28214   0.00000  Uiso   1.00
O186   O     0.14632   0.59418   0.27014   0.00000  Uiso   1.00
O187   O     0.07412   0.46625   0.23413   0.00000  Uiso   1.00
O188   O     0.26693   0.52605   0.21361   0.00000  Uiso   1.00
C189   C     0.05258   0.49272   0.26069   0.00000  Uiso   1.00
C190   C     0.28088   0.50671   0.23933   0.00000  Uiso   1.00
C191   C     0.15606   0.38947   0.26009   0.00000  Uiso   1.00
C192   C     0.17635   0.61127   0.24037   0.00000  Uiso   1.00
C193   C     0.18529   0.48121   0.12920   0.00000  Uiso   1.00
C194   C     0.14777   0.51784   0.37137   0.00000  Uiso   1.00
C195   C     0.19718   0.41997   0.01741   0.00000  Uiso   1.00
H196   H     0.21371   0.41351   0.07879   0.00000  Uiso   1.00
H197   H     0.17245   0.39874   0.43995   0.00000  Uiso   1.00
C198   C     0.19136   0.47244   0.08072   0.00000  Uiso   1.00
C199   C     0.12462   0.56429   0.44290   0.00000  Uiso   1.00
C200   C     0.12079   0.57363   0.48904   0.00000  Uiso   1.00
C201   C     0.13508   0.54792   0.01286   0.00000  Uiso   1.00
C202   C     0.15058   0.51027   0.49235   0.00000  Uiso   1.00
C203   C     0.14641   0.49665   0.44808   0.00000  Uiso   1.00
C204   C     0.16851   0.48507   0.01525   0.00000  Uiso   1.00
C205   C     0.17871   0.44500   0.49513   0.00000  Uiso   1.00
C206   C     0.16827   0.43010   0.45449   0.00000  Uiso   1.00
C207   C     0.14976   0.45428   0.43277   0.00000  Uiso   1.00
C208   C     0.17649   0.49853   0.05774   0.00000  Uiso   1.00
C209   C     0.20262   0.43384   0.06031   0.00000  Uiso   1.00
C210   C     0.13826   0.52569   0.42141   0.00000  Uiso   1.00
H211   H     0.16968   0.52839   0.07507   0.00000  Uiso   1.00
H212   H     0.13213   0.55777   0.04799   0.00000  Uiso   1.00
C213   C     0.32724   0.50877   0.23349   0.00000  Uiso   1.00
C214   C     0.00763   0.49199   0.26379   0.00000  Uiso   1.00
H215   H     0.31865   0.47840   0.29276   0.00000  Uiso   1.00
C216   C     0.18018   0.65582   0.23765   0.00000  Uiso   1.00
C217   C     0.15068   0.34587   0.26417   0.00000  Uiso   1.00
Cl218  Cl    0.22544   0.34509   0.19807   0.00000  Uiso   1.00
Cl219  Cl    0.10306   0.66096   0.30358   0.00000  Uiso   1.00
N220   N     0.20926   0.37991   0.49801   0.00000  Uiso   1.00
O221   O     0.18045   0.35061   0.48870   0.00000  Uiso   1.00
O222   O     0.24631   0.37015   0.49889   0.00000  Uiso   1.00
Cl223  Cl    0.11344   0.60285   0.41356   0.00000  Uiso   1.00
Cl224  Cl    0.09932   0.61863   0.01834   0.00000  Uiso   1.00
Cl225  Cl    0.12202   0.42675   0.39407   0.00000  Uiso   1.00
N226   N     0.02335   0.52803   0.19555   0.00000  Uiso   1.00
O227   O     0.01364   0.52483   0.15700   0.00000  Uiso   1.00
O228   O     0.05822   0.55137   0.20012   0.00000  Uiso   1.00
Zn229  Zn    0.52672   0.47327   0.28734   0.00000  Uiso   1.00
Zn230  Zn    0.46713   0.45791   0.21876   0.00000  Uiso   1.00
Zn231  Zn    0.54389   0.53109   0.20657   0.00000  Uiso   1.00
Zn232  Zn    0.46226   0.53773   0.28734   0.00000  Uiso   1.00
O233   O     0.50000   0.50000   0.25000   0.00000  Uiso   1.00
O234   O     0.40405   0.52211   0.28213   0.00000  Uiso   1.00
O235   O     0.58824   0.48559   0.27014   0.00000  Uiso   1.00
O236   O     0.47093   0.40277   0.23413   0.00000  Uiso   1.00
O237   O     0.53678   0.58953   0.21361   0.00000  Uiso   1.00
O238   O     0.48784   0.45970   0.15459   0.00000  Uiso   1.00
O239   O     0.46274   0.53724   0.34968   0.00000  Uiso   1.00
O240   O     0.54157   0.51092   0.14606   0.00000  Uiso   1.00
O241   O     0.50785   0.49213   0.34968   0.00000  Uiso   1.00
O242   O     0.51264   0.41352   0.28214   0.00000  Uiso   1.00
O243   O     0.47965   0.59418   0.27014   0.00000  Uiso   1.00
O244   O     0.40745   0.46625   0.23413   0.00000  Uiso   1.00
O245   O     0.60026   0.52605   0.21361   0.00000  Uiso   1.00
C246   C     0.38591   0.49272   0.26069   0.00000  Uiso   1.00
C247   C     0.61422   0.50671   0.23933   0.00000  Uiso   1.00
C248   C     0.48939   0.38947   0.26009   0.00000  Uiso   1.00
C249   C     0.50969   0.61127   0.24037   0.00000  Uiso   1.00
C250   C     0.51862   0.48121   0.12920   0.00000  Uiso   1.00
C251   C     0.48110   0.51784   0.37137   0.00000  Uiso   1.00
C252   C     0.53051   0.41997   0.01741   0.00000  Uiso   1.00
H253   H     0.54705   0.41351   0.07879   0.00000  Uiso   1.00
H254   H     0.50578   0.39874   0.43995   0.00000  Uiso   1.00
C255   C     0.52469   0.47244   0.08072   0.00000  Uiso   1.00
C256   C     0.45795   0.56429   0.44290   0.00000  Uiso   1.00
C257   C     0.45413   0.57363   0.48904   0.00000  Uiso   1.00
C258   C     0.46841   0.54792   0.01286   0.00000  Uiso   1.00
C259   C     0.48391   0.51027   0.49235   0.00000  Uiso   1.00
C260   C     0.47974   0.49665   0.44808   0.00000  Uiso   1.00
C261   C     0.50185   0.48507   0.01525   0.00000  Uiso   1.00
C262   C     0.51205   0.44500   0.49513   0.00000  Uiso   1.00
C263   C     0.50160   0.43010   0.45449   0.00000  Uiso   1.00
C264   C     0.48310   0.45428   0.43277   0.00000  Uiso   1.00
C265   C     0.50983   0.49853   0.05774   0.00000  Uiso   1.00
C266   C     0.53595   0.43384   0.06031   0.00000  Uiso   1.00
C267   C     0.47159   0.52569   0.42141   0.00000  Uiso   1.00
H268   H     0.50302   0.52839   0.07507   0.00000  Uiso   1.00
H269   H     0.46546   0.55777   0.04799   0.00000  Uiso   1.00
C270   C     0.66057   0.50877   0.23349   0.00000  Uiso   1.00
C271   C     0.34096   0.49199   0.26379   0.00000  Uiso   1.00
H272   H     0.65198   0.47840   0.29276   0.00000  Uiso   1.00
C273   C     0.51351   0.65582   0.23765   0.00000  Uiso   1.00
C274   C     0.48402   0.34587   0.26417   0.00000  Uiso   1.00
Cl275  Cl    0.55877   0.34509   0.19807   0.00000  Uiso   1.00
Cl276  Cl    0.43639   0.66096   0.30358   0.00000  Uiso   1.00
N277   N     0.54259   0.37991   0.49801   0.00000  Uiso   1.00
O278   O     0.51379   0.35061   0.48870   0.00000  Uiso   1.00
O279   O     0.57965   0.37015   0.49889   0.00000  Uiso   1.00
Cl280  Cl    0.44677   0.60285   0.41356   0.00000  Uiso   1.00
Cl281  Cl    0.43265   0.61863   0.01834   0.00000  Uiso   1.00
Cl282  Cl    0.45535   0.42675   0.39407   0.00000  Uiso   1.00
N283   N     0.35668   0.52803   0.19555   0.00000  Uiso   1.00
O284   O     0.34698   0.52483   0.15700   0.00000  Uiso   1.00
O285   O     0.39156   0.55137   0.20012   0.00000  Uiso   1.00
Zn286  Zn    0.86005   0.47327   0.28734   0.00000  Uiso   1.00
Zn287  Zn    0.80046   0.45791   0.21876   0.00000  Uiso   1.00
Zn288  Zn    0.87723   0.53109   0.20657   0.00000  Uiso   1.00
Zn289  Zn    0.79560   0.53773   0.28734   0.00000  Uiso   1.00
O290   O     0.83333   0.50000   0.25000   0.00000  Uiso   1.00
O291   O     0.73738   0.52211   0.28213   0.00000  Uiso   1.00
O292   O     0.92158   0.48559   0.27014   0.00000  Uiso   1.00
O293   O     0.80426   0.40277   0.23413   0.00000  Uiso   1.00
O294   O     0.87012   0.58953   0.21361   0.00000  Uiso   1.00
O295   O     0.82118   0.45970   0.15459   0.00000  Uiso   1.00
O296   O     0.79607   0.53724   0.34968   0.00000  Uiso   1.00
O297   O     0.87491   0.51092   0.14606   0.00000  Uiso   1.00
O298   O     0.84118   0.49213   0.34968   0.00000  Uiso   1.00
O299   O     0.84597   0.41352   0.28214   0.00000  Uiso   1.00
O300   O     0.81298   0.59418   0.27014   0.00000  Uiso   1.00
O301   O     0.74078   0.46625   0.23413   0.00000  Uiso   1.00
O302   O     0.93360   0.52605   0.21361   0.00000  Uiso   1.00
C303   C     0.71925   0.49272   0.26069   0.00000  Uiso   1.00
C304   C     0.94755   0.50671   0.23933   0.00000  Uiso   1.00
C305   C     0.82272   0.38947   0.26009   0.00000  Uiso   1.00
C306   C     0.84302   0.61127   0.24037   0.00000  Uiso   1.00
C307   C     0.85196   0.48121   0.12920   0.00000  Uiso   1.00
C308   C     0.81444   0.51784   0.37137   0.00000  Uiso   1.00
C309   C     0.86384   0.41997   0.01741   0.00000  Uiso   1.00
H310   H     0.88038   0.41351   0.07879   0.00000  Uiso   1.00
H311   H     0.83912   0.39874   0.43995   0.00000  Uiso   1.00
C312   C     0.85802   0.47244   0.08072   0.00000  Uiso   1.00
C313   C     0.79128   0.56429   0.44290   0.00000  Uiso   1.00
C314   C     0.78746   0.57363   0.48904   0.00000  Uiso   1.00
C315   C     0.80175   0.54792   0.01286   0.00000  Uiso   1.00
C316   C     0.81725   0.51027   0.49235   0.00000  Uiso   1.00
C317   C     0.81307   0.49665   0.44808   0.00000  Uiso   1.00
C318   C     0.83518   0.48507   0.01525   0.00000  Uiso   1.00
C319   C     0.84538   0.44500   0.49513   0.00000  Uiso   1.00
C320   C     0.83494   0.43010   0.45449   0.00000  Uiso   1.00
C321   C     0.81643   0.45428   0.43277   0.00000  Uiso   1.00
C322   C     0.84316   0.49853   0.05774   0.00000  Uiso   1.00
C323   C     0.86928   0.43384   0.06031   0.00000  Uiso   1.00
C324   C     0.80493   0.52569   0.42141   0.00000  Uiso   1.00
H325   H     0.83635   0.52839   0.07507   0.00000  Uiso   1.00
H326   H     0.79879   0.55777   0.04799   0.00000  Uiso   1.00
C327   C     0.99390   0.50877   0.23349   0.00000  Uiso   1.00
C328   C     0.67429   0.49199   0.26379   0.00000  Uiso   1.00
H329   H     0.98532   0.47840   0.29276   0.00000  Uiso   1.00
C330   C     0.84685   0.65582   0.23765   0.00000  Uiso   1.00
C331   C     0.81735   0.34587   0.26417   0.00000  Uiso   1.00
Cl332  Cl    0.89211   0.34509   0.19807   0.00000  Uiso   1.00
Cl333  Cl    0.76973   0.66096   0.30358   0.00000  Uiso   1.00
N334   N     0.87593   0.37991   0.49801   0.00000  Uiso   1.00
O335   O     0.84712   0.35061   0.48870   0.00000  Uiso   1.00
O336   O     0.91298   0.37015   0.49889   0.00000  Uiso   1.00
Cl337  Cl    0.78010   0.60285   0.41356   0.00000  Uiso   1.00
Cl338  Cl    0.76599   0.61863   0.01834   0.00000  Uiso   1.00
Cl339  Cl    0.78868   0.42675   0.39407   0.00000  Uiso   1.00
N340   N     0.69002   0.52803   0.19555   0.00000  Uiso   1.00
O341   O     0.68031   0.52483   0.15700   0.00000  Uiso   1.00
O342   O     0.72489   0.55137   0.20012   0.00000  Uiso   1.00
Zn343  Zn    0.19338   0.80661   0.28734   0.00000  Uiso   1.00
Zn344  Zn    0.13379   0.79124   0.21876   0.00000  Uiso   1.00
Zn345  Zn    0.21056   0.86442   0.20657   0.00000  Uiso   1.00
Zn346  Zn    0.12893   0.87106   0.28734   0.00000  Uiso   1.00
O347   O     0.16667   0.83333   0.25000   0.00000  Uiso   1.00
O348   O     0.07071   0.85544   0.28213   0.00000  Uiso   1.00
O349   O     0.25491   0.81892   0.27014   0.00000  Uiso   1.00
O350   O     0.13760   0.73610   0.23413   0.00000  Uiso   1.00
O351   O     0.20345   0.92286   0.21361   0.00000  Uiso   1.00
O352   O     0.15451   0.79304   0.15459   0.00000  Uiso   1.00
O353   O     0.12940   0.87058   0.34968   0.00000  Uiso   1.00
O354   O     0.20824   0.84425   0.14606   0.00000  Uiso   1.00
O355   O     0.17451   0.82546   0.34968   0.00000  Uiso   1.00
O356   O     0.17930   0.74686   0.28214   0.00000  Uiso   1.00
O357   O     0.14632   0.92751   0.27014   0.00000  Uiso   1.00
O358   O     0.07412   0.79958   0.23413   0.00000  Uiso   1.00
O359   O     0.26693   0.85939   0.21361   0.00000  Uiso   1.00
C360   C     0.05258   0.82605   0.26069   0.00000  Uiso   1.00
C361   C     0.28088   0.84004   0.23933   0.00000  Uiso   1.00
C362   C     0.15606   0.72280   0.26009   0.00000  Uiso   1.00
C363   C     0.17635   0.94460   0.24037   0.00000  Uiso   1.00
C364   C     0.18529   0.81454   0.12920   0.00000  Uiso   1.00
C365   C     0.14777   0.85117   0.37137   0.00000  Uiso   1.00
C366   C     0.19718   0.75330   0.01741   0.00000  Uiso   1.00
H367   H     0.21371   0.74685   0.07879   0.00000  Uiso   1.00
H368   H     0.17245   0.73208   0.43995   0.00000  Uiso   1.00
C369   C     0.19136   0.80577   0.08072   0.00000  Uiso   1.00
C370   C     0.12462   0.89762   0.44290   0.00000  Uiso   1.00
C371   C     0.12079   0.90696   0.48904   0.00000  Uiso   1.00
C372   C     0.13508   0.88125   0.01286   0.00000  Uiso   1.00
C373   C     0.15058   0.84361   0.49235   0.00000  Uiso   1.00
C374   C     0.14641   0.82998   0.44808   0.00000  Uiso   1.00
C375   C     0.16851   0.81841   0.01525   0.00000  Uiso   1.00
C376   C     0.17871   0.77833   0.49513   0.00000  Uiso   1.00
C377   C     0.16827   0.76343   0.45449   0.00000  Uiso   1.00
C378   C     0.14976   0.78761   0.43277   0.00000  Uiso   1.00
C379   C     0.17649   0.83187   0.05774   0.00000  Uiso   1.00
C380   C     0.20262   0.76718   0.06031   0.00000  Uiso   1.00
C381   C     0.13826   0.85902   0.42141   0.00000  Uiso   1.00
H382   H     0.16968   0.86173   0.07507   0.00000  Uiso   1.00
H383   H     0.13213   0.89111   0.04799   0.00000  Uiso   1.00
C384   C     0.32724   0.84210   0.23349   0.00000  Uiso   1.00
C385   C     0.00763   0.82532   0.26379   0.00000  Uiso   1.00
H386   H     0.31865   0.81173   0.29276   0.00000  Uiso   1.00
C387   C     0.18018   0.98915   0.23765   0.00000  Uiso   1.00
C388   C     0.15068   0.67920   0.26417   0.00000  Uiso   1.00
Cl389  Cl    0.22544   0.67842   0.19807   0.00000  Uiso   1.00
Cl390  Cl    0.10306   0.99430   0.30358   0.00000  Uiso   1.00
N391   N     0.20926   0.71325   0.49801   0.00000  Uiso   1.00
O392   O     0.18045   0.68394   0.48870   0.00000  Uiso   1.00
O393   O     0.24631   0.70349   0.49889   0.00000  Uiso   1.00
Cl394  Cl    0.11344   0.93618   0.41356   0.00000  Uiso   1.00
Cl395  Cl    0.09932   0.95197   0.01834   0.00000  Uiso   1.00
Cl396  Cl    0.12202   0.76008   0.39407   0.00000  Uiso   1.00
N397   N     0.02335   0.86136   0.19555   0.00000  Uiso   1.00
O398   O     0.01364   0.85817   0.15700   0.00000  Uiso   1.00
O399   O     0.05822   0.88470   0.20012   0.00000  Uiso   1.00
Zn400  Zn    0.52672   0.80661   0.28734   0.00000  Uiso   1.00
Zn401  Zn    0.46713   0.79124   0.21876   0.00000  Uiso   1.00
Zn402  Zn    0.54389   0.86442   0.20657   0.00000  Uiso   1.00
Zn403  Zn    0.46226   0.87106   0.28734   0.00000  Uiso   1.00
O404   O     0.50000   0.83333   0.25000   0.00000  Uiso   1.00
O405   O     0.40405   0.85544   0.28213   0.00000  Uiso   1.00
O406   O     0.58824   0.81892   0.27014   0.00000  Uiso   1.00
O407   O     0.47093   0.73610   0.23413   0.00000  Uiso   1.00
O408   O     0.53678   0.92286   0.21361   0.00000  Uiso   1.00
O409   O     0.48784   0.79304   0.15459   0.00000  Uiso   1.00
O410   O     0.46274   0.87058   0.34968   0.00000  Uiso   1.00
O411   O     0.54157   0.84425   0.14606   0.00000  Uiso   1.00
O412   O     0.50785   0.82546   0.34968   0.00000  Uiso   1.00
O413   O     0.51264   0.74686   0.28214   0.00000  Uiso   1.00
O414   O     0.47965   0.92751   0.27014   0.00000  Uiso   1.00
O415   O     0.40745   0.79958   0.23413   0.00000  Uiso   1.00
O416   O     0.60026   0.85939   0.21361   0.00000  Uiso   1.00
C417   C     0.38591   0.82605   0.26069   0.00000  Uiso   1.00
C418   C     0.61422   0.84004   0.23933   0.00000  Uiso   1.00
C419   C     0.48939   0.72280   0.26009   0.00000  Uiso   1.00
C420   C     0.50969   0.94460   0.24037   0.00000  Uiso   1.00
C421   C     0.51862   0.81454   0.12920   0.00000  Uiso   1.00
C422   C     0.48110   0.85117   0.37137   0.00000  Uiso   1.00
C423   C     0.53051   0.75330   0.01741   0.00000  Uiso   1.00
H424   H     0.54705   0.74685   0.07879   0.00000  Uiso   1.00
H425   H     0.50578   0.73208   0.43995   0.00000  Uiso   1.00
C426   C     0.52469   0.80577   0.08072   0.00000  Uiso   1.00
C427   C     0.45795   0.89762   0.44290   0.00000  Uiso   1.00
C428   C     0.45413   0.90696   0.48904   0.00000  Uiso   1.00
C429   C     0.46841   0.88125   0.01286   0.00000  Uiso   1.00
C430   C     0.48391   0.84361   0.49235   0.00000  Uiso   1.00
C431   C     0.47974   0.82998   0.44808   0.00000  Uiso   1.00
C432   C     0.50185   0.81841   0.01525   0.00000  Uiso   1.00
C433   C     0.51205   0.77833   0.49513   0.00000  Uiso   1.00
C434   C     0.50160   0.76343   0.45449   0.00000  Uiso   1.00
C435   C     0.48310   0.78761   0.43277   0.00000  Uiso   1.00
C436   C     0.50983   0.83187   0.05774   0.00000  Uiso   1.00
C437   C     0.53595   0.76718   0.06031   0.00000  Uiso   1.00
C438   C     0.47159   0.85902   0.42141   0.00000  Uiso   1.00
H439   H     0.50302   0.86173   0.07507   0.00000  Uiso   1.00
H440   H     0.46546   0.89111   0.04799   0.00000  Uiso   1.00
C441   C     0.66057   0.84210   0.23349   0.00000  Uiso   1.00
C442   C     0.34096   0.82532   0.26379   0.00000  Uiso   1.00
H443   H     0.65198   0.81173   0.29276   0.00000  Uiso   1.00
C444   C     0.51351   0.98915   0.23765   0.00000  Uiso   1.00
C445   C     0.48402   0.67920   0.26417   0.00000  Uiso   1.00
Cl446  Cl    0.55877   0.67842   0.19807   0.00000  Uiso   1.00
Cl447  Cl    0.43639   0.99430   0.30358   0.00000  Uiso   1.00
N448   N     0.54259   0.71325   0.49801   0.00000  Uiso   1.00
O449   O     0.51379   0.68394   0.48870   0.00000  Uiso   1.00
O450   O     0.57965   0.70349   0.49889   0.00000  Uiso   1.00
Cl451  Cl    0.44677   0.93618   0.41356   0.00000  Uiso   1.00
Cl452  Cl    0.43265   0.95197   0.01834   0.00000  Uiso   1.00
Cl453  Cl    0.45535   0.76008   0.39407   0.00000  Uiso   1.00
N454   N     0.35668   0.86136   0.19555   0.00000  Uiso   1.00
O455   O     0.34698   0.85817   0.15700   0.00000  Uiso   1.00
O456   O     0.39156   0.88470   0.20012   0.00000  Uiso   1.00
Zn457  Zn    0.86005   0.80661   0.28734   0.00000  Uiso   1.00
Zn458  Zn    0.80046   0.79124   0.21876   0.00000  Uiso   1.00
Zn459  Zn    0.87723   0.86442   0.20657   0.00000  Uiso   1.00
Zn460  Zn    0.79560   0.87106   0.28734   0.00000  Uiso   1.00
O461   O     0.83333   0.83333   0.25000   0.00000  Uiso   1.00
O462   O     0.73738   0.85544   0.28213   0.00000  Uiso   1.00
O463   O     0.92158   0.81892   0.27014   0.00000  Uiso   1.00
O464   O     0.80426   0.73610   0.23413   0.00000  Uiso   1.00
O465   O     0.87012   0.92286   0.21361   0.00000  Uiso   1.00
O466   O     0.82118   0.79304   0.15459   0.00000  Uiso   1.00
O467   O     0.79607   0.87058   0.34968   0.00000  Uiso   1.00
O468   O     0.87491   0.84425   0.14606   0.00000  Uiso   1.00
O469   O     0.84118   0.82546   0.34968   0.00000  Uiso   1.00
O470   O     0.84597   0.74686   0.28214   0.00000  Uiso   1.00
O471   O     0.81298   0.92751   0.27014   0.00000  Uiso   1.00
O472   O     0.74078   0.79958   0.23413   0.00000  Uiso   1.00
O473   O     0.93360   0.85939   0.21361   0.00000  Uiso   1.00
C474   C     0.71925   0.82605   0.26069   0.00000  Uiso   1.00
C475   C     0.94755   0.84004   0.23933   0.00000  Uiso   1.00
C476   C     0.82272   0.72280   0.26009   0.00000  Uiso   1.00
C477   C     0.84302   0.94460   0.24037   0.00000  Uiso   1.00
C478   C     0.85196   0.81454   0.12920   0.00000  Uiso   1.00
C479   C     0.81444   0.85117   0.37137   0.00000  Uiso   1.00
C480   C     0.86384   0.75330   0.01741   0.00000  Uiso   1.00
H481   H     0.88038   0.74685   0.07879   0.00000  Uiso   1.00
H482   H     0.83912   0.73208   0.43995   0.00000  Uiso   1.00
C483   C     0.85802   0.80577   0.08072   0.00000  Uiso   1.00
C484   C     0.79128   0.89762   0.44290   0.00000  Uiso   1.00
C485   C     0.78746   0.90696   0.48904   0.00000  Uiso   1.00
C486   C     0.80175   0.88125   0.01286   0.00000  Uiso   1.00
C487   C     0.81725   0.84361   0.49235   0.00000  Uiso   1.00
C488   C     0.81307   0.82998   0.44808   0.00000  Uiso   1.00
C489   C     0.83518   0.81841   0.01525   0.00000  Uiso   1.00
C490   C     0.84538   0.77833   0.49513   0.00000  Uiso   1.00
C491   C     0.83494   0.76343   0.45449   0.00000  Uiso   1.00
C492   C     0.81643   0.78761   0.43277   0.00000  Uiso   1.00
C493   C     0.84316   0.83187   0.05774   0.00000  Uiso   1.00
C494   C     0.86928   0.76718   0.06031   0.00000  Uiso   1.00
C495   C     0.80493   0.85902   0.42141   0.00000  Uiso   1.00
H496   H     0.83635   0.86173   0.07507   0.00000  Uiso   1.00
H497   H     0.79879   0.89111   0.04799   0.00000  Uiso   1.00
C498   C     0.99390   0.84210   0.23349   0.00000  Uiso   1.00
C499   C     0.67429   0.82532   0.26379   0.00000  Uiso   1.00
H500   H     0.98532   0.81173   0.29276   0.00000  Uiso   1.00
C501   C     0.84685   0.98915   0.23765   0.00000  Uiso   1.00
C502   C     0.81735   0.67920   0.26417   0.00000  Uiso   1.00
Cl503  Cl    0.89211   0.67842   0.19807   0.00000  Uiso   1.00
Cl504  Cl    0.76973   0.99430   0.30358   0.00000  Uiso   1.00
N505   N     0.87593   0.71325   0.49801   0.00000  Uiso   1.00
O506   O     0.84712   0.68394   0.48870   0.00000  Uiso   1.00
O507   O     0.91298   0.70349   0.49889   0.00000  Uiso   1.00
Cl508  Cl    0.78010   0.93618   0.41356   0.00000  Uiso   1.00
Cl509  Cl    0.76599   0.95197   0.01834   0.00000  Uiso   1.00
Cl510  Cl    0.78868   0.76008   0.39407   0.00000  Uiso   1.00
N511   N     0.69002   0.86136   0.19555   0.00000  Uiso   1.00
O512   O     0.68031   0.85817   0.15700   0.00000  Uiso   1.00
O513   O     0.72489   0.88470   0.20012   0.00000  Uiso   1.00
Zn514  Zn    0.19338   0.13994   0.78734   0.00000  Uiso   1.00
Zn515  Zn    0.13379   0.12458   0.71876   0.00000  Uiso   1.00
Zn516  Zn    0.21056   0.19775   0.70657   0.00000  Uiso   1.00
Zn517  Zn    0.12893   0.20439   0.78734   0.00000  Uiso   1.00
O518   O     0.16667   0.16667   0.75000   0.00000  Uiso   1.00
O519   O     0.07071   0.18878   0.78213   0.00000  Uiso   1.00
O520   O     0.25491   0.15226   0.77014   0.00000  Uiso   1.00
O521   O     0.13760   0.06944   0.73413   0.00000  Uiso   1.00
O522   O     0.20345   0.25620   0.71361   0.00000  Uiso   1.00
O523   O     0.15451   0.12637   0.65459   0.00000  Uiso   1.00
O524   O     0.12940   0.20391   0.84968   0.00000  Uiso   1.00
O525   O     0.20824   0.17759   0.64606   0.00000  Uiso   1.00
O526   O     0.17451   0.15880   0.84968   0.00000  Uiso   1.00
O527   O     0.17930   0.08019   0.78214   0.00000  Uiso   1.00
O528   O     0.14632   0.26085   0.77014   0.00000  Uiso   1.00
O529   O     0.07412   0.13291   0.73413   0.00000  Uiso   1.00
O530   O     0.26693   0.19272   0.71361   0.00000  Uiso   1.00
C531   C     0.05258   0.15939   0.76069   0.00000  Uiso   1.00
C532   C     0.28088   0.17337   0.73933   0.00000  Uiso   1.00
C533   C     0.15606   0.05613   0.76009   0.00000  Uiso   1.00
C534   C     0.17635   0.27793   0.74037   0.00000  Uiso   1.00
C535   C     0.18529   0.14787   0.62920   0.00000  Uiso   1.00
C536   C     0.14777   0.18450   0.87137   0.00000  Uiso   1.00
C537   C     0.19718   0.08664   0.51741   0.00000  Uiso   1.00
H538   H     0.21371   0.08018   0.57879   0.00000  Uiso   1.00
H539   H     0.17245   0.06541   0.93995   0.00000  Uiso   1.00
C540   C     0.19136   0.13910   0.58072   0.00000  Uiso   1.00
C541   C     0.12462   0.23096   0.94290   0.00000  Uiso   1.00
C542   C     0.12079   0.24030   0.98904   0.00000  Uiso   1.00
C543   C     0.13508   0.21458   0.51286   0.00000  Uiso   1.00
C544   C     0.15058   0.17694   0.99235   0.00000  Uiso   1.00
C545   C     0.14641   0.16331   0.94808   0.00000  Uiso   1.00
C546   C     0.16851   0.15174   0.51525   0.00000  Uiso   1.00
C547   C     0.17871   0.11167   0.99513   0.00000  Uiso   1.00
C548   C     0.16827   0.09677   0.95449   0.00000  Uiso   1.00
C549   C     0.14976   0.12095   0.93277   0.00000  Uiso   1.00
C550   C     0.17649   0.16520   0.55774   0.00000  Uiso   1.00
C551   C     0.20262   0.10051   0.56031   0.00000  Uiso   1.00
C552   C     0.13826   0.19236   0.92141   0.00000  Uiso   1.00
H553   H     0.16968   0.19506   0.57507   0.00000  Uiso   1.00
H554   H     0.13213   0.22444   0.54799   0.00000  Uiso   1.00
C555   C     0.32724   0.17543   0.73349   0.00000  Uiso   1.00
C556   C     0.00763   0.15866   0.76379   0.00000  Uiso   1.00
H557   H     0.31865   0.14507   0.79276   0.00000  Uiso   1.00
C558   C     0.18018   0.32248   0.73765   0.00000  Uiso   1.00
C559   C     0.15068   0.01254   0.76417   0.00000  Uiso   1.00
Cl560  Cl    0.22544   0.01176   0.69807   0.00000  Uiso   1.00
Cl561  Cl    0.10306   0.32763   0.80358   0.00000  Uiso   1.00
N562   N     0.20926   0.04658   0.99801   0.00000  Uiso   1.00
O563   O     0.18045   0.01727   0.98870   0.00000  Uiso   1.00
O564   O     0.24631   0.03682   0.99889   0.00000  Uiso   1.00
Cl565  Cl    0.11344   0.26952   0.91356   0.00000  Uiso   1.00
Cl566  Cl    0.09932   0.28530   0.51834   0.00000  Uiso   1.00
Cl567  Cl    0.12202   0.09341   0.89407   0.00000  Uiso   1.00
N568   N     0.02335   0.19469   0.69555   0.00000  Uiso   1.00
O569   O     0.01364   0.19150   0.65700   0.00000  Uiso   1.00
O570   O     0.05822   0.21803   0.70012   0.00000  Uiso   1.00
Zn571  Zn    0.52672   0.13994   0.78734   0.00000  Uiso   1.00
Zn572  Zn    0.46713   0.12458   0.71876   0.00000  Uiso   1.00
Zn573  Zn    0.54389   0.19775   0.70657   0.00000  Uiso   1.00
Zn574  Zn    0.46226   0.20439   0.78734   0.00000  Uiso   1.00
O575   O     0.50000   0.16667   0.75000   0.00000  Uiso   1.00
O576   O     0.40405   0.18878   0.78213   0.00000  Uiso   1.00
O577   O     0.58824   0.15226   0.77014   0.00000  Uiso   1.00
O578   O     0.47093   0.06944   0.73413   0.00000  Uiso   1.00
O579   O     0.53678   0.25620   0.71361   0.00000  Uiso   1.00
O580   O     0.48784   0.12637   0.65459   0.00000  Uiso   1.00
O581   O     0.46274   0.20391   0.84968   0.00000  Uiso   1.00
O582   O     0.54157   0.17759   0.64606   0.00000  Uiso   1.00
O583   O     0.50785   0.15880   0.84968   0.00000  Uiso   1.00
O584   O     0.51264   0.08019   0.78214   0.00000  Uiso   1.00
O585   O     0.47965   0.26085   0.77014   0.00000  Uiso   1.00
O586   O     0.40745   0.13291   0.73413   0.00000  Uiso   1.00
O587   O     0.60026   0.19272   0.71361   0.00000  Uiso   1.00
C588   C     0.38591   0.15939   0.76069   0.00000  Uiso   1.00
C589   C     0.61422   0.17337   0.73933   0.00000  Uiso   1.00
C590   C     0.48939   0.05613   0.76009   0.00000  Uiso   1.00
C591   C     0.50969   0.27793   0.74037   0.00000  Uiso   1.00
C592   C     0.51862   0.14787   0.62920   0.00000  Uiso   1.00
C593   C     0.48110   0.18450   0.87137   0.00000  Uiso   1.00
C594   C     0.53051   0.08664   0.51741   0.00000  Uiso   1.00
H595   H     0.54705   0.08018   0.57879   0.00000  Uiso   1.00
H596   H     0.50578   0.06541   0.93995   0.00000  Uiso   1.00
C597   C     0.52469   0.13910   0.58072   0.00000  Uiso   1.00
C598   C     0.45795   0.23096   0.94290   0.00000  Uiso   1.00
C599   C     0.45413   0.24030   0.98904   0.00000  Uiso   1.00
C600   C     0.46841   0.21458   0.51286   0.00000  Uiso   1.00
C601   C     0.48391   0.17694   0.99235   0.00000  Uiso   1.00
C602   C     0.47974   0.16331   0.94808   0.00000  Uiso   1.00
C603   C     0.50185   0.15174   0.51525   0.00000  Uiso   1.00
C604   C     0.51205   0.11167   0.99513   0.00000  Uiso   1.00
C605   C     0.50160   0.09677   0.95449   0.00000  Uiso   1.00
C606   C     0.48310   0.12095   0.93277   0.00000  Uiso   1.00
C607   C     0.50983   0.16520   0.55774   0.00000  Uiso   1.00
C608   C     0.53595   0.10051   0.56031   0.00000  Uiso   1.00
C609   C     0.47159   0.19236   0.92141   0.00000  Uiso   1.00
H610   H     0.50302   0.19506   0.57507   0.00000  Uiso   1.00
H611   H     0.46546   0.22444   0.54799   0.00000  Uiso   1.00
C612   C     0.66057   0.17543   0.73349   0.00000  Uiso   1.00
C613   C     0.34096   0.15866   0.76379   0.00000  Uiso   1.00
H614   H     0.65198   0.14507   0.79276   0.00000  Uiso   1.00
C615   C     0.51351   0.32248   0.73765   0.00000  Uiso   1.00
C616   C     0.48402   0.01254   0.76417   0.00000  Uiso   1.00
Cl617  Cl    0.55877   0.01176   0.69807   0.00000  Uiso   1.00
Cl618  Cl    0.43639   0.32763   0.80358   0.00000  Uiso   1.00
N619   N     0.54259   0.04658   0.99801   0.00000  Uiso   1.00
O620   O     0.51379   0.01727   0.98870   0.00000  Uiso   1.00
O621   O     0.57965   0.03682   0.99889   0.00000  Uiso   1.00
Cl622  Cl    0.44677   0.26952   0.91356   0.00000  Uiso   1.00
Cl623  Cl    0.43265   0.28530   0.51834   0.00000  Uiso   1.00
Cl624  Cl    0.45535   0.09341   0.89407   0.00000  Uiso   1.00
N625   N     0.35668   0.19469   0.69555   0.00000  Uiso   1.00
O626   O     0.34698   0.19150   0.65700   0.00000  Uiso   1.00
O627   O     0.39156   0.21803   0.70012   0.00000  Uiso   1.00
Zn628  Zn    0.86005   0.13994   0.78734   0.00000  Uiso   1.00
Zn629  Zn    0.80046   0.12458   0.71876   0.00000  Uiso   1.00
Zn630  Zn    0.87723   0.19775   0.70657   0.00000  Uiso   1.00
Zn631  Zn    0.79560   0.20439   0.78734   0.00000  Uiso   1.00
O632   O     0.83333   0.16667   0.75000   0.00000  Uiso   1.00
O633   O     0.73738   0.18878   0.78213   0.00000  Uiso   1.00
O634   O     0.92158   0.15226   0.77014   0.00000  Uiso   1.00
O635   O     0.80426   0.06944   0.73413   0.00000  Uiso   1.00
O636   O     0.87012   0.25620   0.71361   0.00000  Uiso   1.00
O637   O     0.82118   0.12637   0.65459   0.00000  Uiso   1.00
O638   O     0.79607   0.20391   0.84968   0.00000  Uiso   1.00
O639   O     0.87491   0.17759   0.64606   0.00000  Uiso   1.00
O640   O     0.84118   0.15880   0.84968   0.00000  Uiso   1.00
O641   O     0.84597   0.08019   0.78214   0.00000  Uiso   1.00
O642   O     0.81298   0.26085   0.77014   0.00000  Uiso   1.00
O643   O     0.74078   0.13291   0.73413   0.00000  Uiso   1.00
O644   O     0.93360   0.19272   0.71361   0.00000  Uiso   1.00
C645   C     0.71925   0.15939   0.76069   0.00000  Uiso   1.00
C646   C     0.94755   0.17337   0.73933   0.00000  Uiso   1.00
C647   C     0.82272   0.05613   0.76009   0.00000  Uiso   1.00
C648   C     0.84302   0.27793   0.74037   0.00000  Uiso   1.00
C649   C     0.85196   0.14787   0.62920   0.00000  Uiso   1.00
C650   C     0.81444   0.18450   0.87137   0.00000  Uiso   1.00
C651   C     0.86384   0.08664   0.51741   0.00000  Uiso   1.00
H652   H     0.88038   0.08018   0.57879   0.00000  Uiso   1.00
H653   H     0.83912   0.06541   0.93995   0.00000  Uiso   1.00
C654   C     0.85802   0.13910   0.58072   0.00000  Uiso   1.00
C655   C     0.79128   0.23096   0.94290   0.00000  Uiso   1.00
C656   C     0.78746   0.24030   0.98904   0.00000  Uiso   1.00
C657   C     0.80175   0.21458   0.51286   0.00000  Uiso   1.00
C658   C     0.81725   0.17694   0.99235   0.00000  Uiso   1.00
C659   C     0.81307   0.16331   0.94808   0.00000  Uiso   1.00
C660   C     0.83518   0.15174   0.51525   0.00000  Uiso   1.00
C661   C     0.84538   0.11167   0.99513   0.00000  Uiso   1.00
C662   C     0.83494   0.09677   0.95449   0.00000  Uiso   1.00
C663   C     0.81643   0.12095   0.93277   0.00000  Uiso   1.00
C664   C     0.84316   0.16520   0.55774   0.00000  Uiso   1.00
C665   C     0.86928   0.10051   0.56031   0.00000  Uiso   1.00
C666   C     0.80493   0.19236   0.92141   0.00000  Uiso   1.00
H667   H     0.83635   0.19506   0.57507   0.00000  Uiso   1.00
H668   H     0.79879   0.22444   0.54799   0.00000  Uiso   1.00
C669   C     0.99390   0.17543   0.73349   0.00000  Uiso   1.00
C670   C     0.67429   0.15866   0.76379   0.00000  Uiso   1.00
H671   H     0.98532   0.14507   0.79276   0.00000  Uiso   1.00
C672   C     0.84685   0.32248   0.73765   0.00000  Uiso   1.00
C673   C     0.81735   0.01254   0.76417   0.00000  Uiso   1.00
Cl674  Cl    0.89211   0.01176   0.69807   0.00000  Uiso   1.00
Cl675  Cl    0.76973   0.32763   0.80358   0.00000  Uiso   1.00
N676   N     0.87593   0.04658   0.99801   0.00000  Uiso   1.00
O677   O     0.84712   0.01727   0.98870   0.00000  Uiso   1.00
O678   O     0.91298   0.03682   0.99889   0.00000  Uiso   1.00
Cl679  Cl    0.78010   0.26952   0.91356   0.00000  Uiso   1.00
Cl680  Cl    0.76599   0.28530   0.51834   0.00000  Uiso   1.00
Cl681  Cl    0.78868   0.09341   0.89407   0.00000  Uiso   1.00
N682   N     0.69002   0.19469   0.69555   0.00000  Uiso   1.00
O683   O     0.68031   0.19150   0.65700   0.00000  Uiso   1.00
O684   O     0.72489   0.21803   0.70012   0.00000  Uiso   1.00
Zn685  Zn    0.19338   0.47327   0.78734   0.00000  Uiso   1.00
Zn686  Zn    0.13379   0.45791   0.71876   0.00000  Uiso   1.00
Zn687  Zn    0.21056   0.53109   0.70657   0.00000  Uiso   1.00
Zn688  Zn    0.12893   0.53773   0.78734   0.00000  Uiso   1.00
O689   O     0.16667   0.50000   0.75000   0.00000  Uiso   1.00
O690   O     0.07071   0.52211   0.78213   0.00000  Uiso   1.00
O691   O     0.25491   0.48559   0.77014   0.00000  Uiso   1.00
O692   O     0.13760   0.40277   0.73413   0.00000  Uiso   1.00
O693   O     0.20345   0.58953   0.71361   0.00000  Uiso   1.00
O694   O     0.15451   0.45970   0.65459   0.00000  Uiso   1.00
O695   O     0.12940   0.53724   0.84968   0.00000  Uiso   1.00
O696   O     0.20824   0.51092   0.64606   0.00000  Uiso   1.00
O697   O     0.17451   0.49213   0.84968   0.00000  Uiso   1.00
O698   O     0.17930   0.41352   0.78214   0.00000  Uiso   1.00
O699   O     0.14632   0.59418   0.77014   0.00000  Uiso   1.00
O700   O     0.07412   0.46625   0.73413   0.00000  Uiso   1.00
O701   O     0.26693   0.52605   0.71361   0.00000  Uiso   1.00
C702   C     0.05258   0.49272   0.76069   0.00000  Uiso   1.00
C703   C     0.28088   0.50671   0.73933   0.00000  Uiso   1.00
C704   C     0.15606   0.38947   0.76009   0.00000  Uiso   1.00
C705   C     0.17635   0.61127   0.74037   0.00000  Uiso   1.00
C706   C     0.18529   0.48121   0.62920   0.00000  Uiso   1.00
C707   C     0.14777   0.51784   0.87137   0.00000  Uiso   1.00
C708   C     0.19718   0.41997   0.51741   0.00000  Uiso   1.00
H709   H     0.21371   0.41351   0.57879   0.00000  Uiso   1.00
H710   H     0.17245   0.39874   0.93995   0.00000  Uiso   1.00
C711   C     0.19136   0.47244   0.58072   0.00000  Uiso   1.00
C712   C     0.12462   0.56429   0.94290   0.00000  Uiso   1.00
C713   C     0.12079   0.57363   0.98904   0.00000  Uiso   1.00
C714   C     0.13508   0.54792   0.51286   0.00000  Uiso   1.00
C715   C     0.15058   0.51027   0.99235   0.00000  Uiso   1.00
C716   C     0.14641   0.49665   0.94808   0.00000  Uiso   1.00
C717   C     0.16851   0.48507   0.51525   0.00000  Uiso   1.00
C718   C     0.17871   0.44500   0.99513   0.00000  Uiso   1.00
C719   C     0.16827   0.43010   0.95449   0.00000  Uiso   1.00
C720   C     0.14976   0.45428   0.93277   0.00000  Uiso   1.00
C721   C     0.17649   0.49853   0.55774   0.00000  Uiso   1.00
C722   C     0.20262   0.43384   0.56031   0.00000  Uiso   1.00
C723   C     0.13826   0.52569   0.92141   0.00000  Uiso   1.00
H724   H     0.16968   0.52839   0.57507   0.00000  Uiso   1.00
H725   H     0.13213   0.55777   0.54799   0.00000  Uiso   1.00
C726   C     0.32724   0.50877   0.73349   0.00000  Uiso   1.00
C727   C     0.00763   0.49199   0.76379   0.00000  Uiso   1.00
H728   H     0.31865   0.47840   0.79276   0.00000  Uiso   1.00
C729   C     0.18018   0.65582   0.73765   0.00000  Uiso   1.00
C730   C     0.15068   0.34587   0.76417   0.00000  Uiso   1.00
Cl731  Cl    0.22544   0.34509   0.69807   0.00000  Uiso   1.00
Cl732  Cl    0.10306   0.66096   0.80358   0.00000  Uiso   1.00
N733   N     0.20926   0.37991   0.99801   0.00000  Uiso   1.00
O734   O     0.18045   0.35061   0.98870   0.00000  Uiso   1.00
O735   O     0.24631   0.37015   0.99889   0.00000  Uiso   1.00
Cl736  Cl    0.11344   0.60285   0.91356   0.00000  Uiso   1.00
Cl737  Cl    0.09932   0.61863   0.51834   0.00000  Uiso   1.00
Cl738  Cl    0.12202   0.42675   0.89407   0.00000  Uiso   1.00
N739   N     0.02335   0.52803   0.69555   0.00000  Uiso   1.00
O740   O     0.01364   0.52483   0.65700   0.00000  Uiso   1.00
O741   O     0.05822   0.55137   0.70012   0.00000  Uiso   1.00
Zn742  Zn    0.52672   0.47327   0.78734   0.00000  Uiso   1.00
Zn743  Zn    0.46713   0.45791   0.71876   0.00000  Uiso   1.00
Zn744  Zn    0.54389   0.53109   0.70657   0.00000  Uiso   1.00
Zn745  Zn    0.46226   0.53773   0.78734   0.00000  Uiso   1.00
O746   O     0.50000   0.50000   0.75000   0.00000  Uiso   1.00
O747   O     0.40405   0.52211   0.78213   0.00000  Uiso   1.00
O748   O     0.58824   0.48559   0.77014   0.00000  Uiso   1.00
O749   O     0.47093   0.40277   0.73413   0.00000  Uiso   1.00
O750   O     0.53678   0.58953   0.71361   0.00000  Uiso   1.00
O751   O     0.48784   0.45970   0.65459   0.00000  Uiso   1.00
O752   O     0.46274   0.53724   0.84968   0.00000  Uiso   1.00
O753   O     0.54157   0.51092   0.64606   0.00000  Uiso   1.00
O754   O     0.50785   0.49213   0.84968   0.00000  Uiso   1.00
O755   O     0.51264   0.41352   0.78214   0.00000  Uiso   1.00
O756   O     0.47965   0.59418   0.77014   0.00000  Uiso   1.00
O757   O     0.40745   0.46625   0.73413   0.00000  Uiso   1.00
O758   O     0.60026   0.52605   0.71361   0.00000  Uiso   1.00
C759   C     0.38591   0.49272   0.76069   0.00000  Uiso   1.00
C760   C     0.61422   0.50671   0.73933   0.00000  Uiso   1.00
C761   C     0.48939   0.38947   0.76009   0.00000  Uiso   1.00
C762   C     0.50969   0.61127   0.74037   0.00000  Uiso   1.00
C763   C     0.51862   0.48121   0.62920   0.00000  Uiso   1.00
C764   C     0.48110   0.51784   0.87137   0.00000  Uiso   1.00
C765   C     0.53051   0.41997   0.51741   0.00000  Uiso   1.00
H766   H     0.54705   0.41351   0.57879   0.00000  Uiso   1.00
H767   H     0.50578   0.39874   0.93995   0.00000  Uiso   1.00
C768   C     0.52469   0.47244   0.58072   0.00000  Uiso   1.00
C769   C     0.45795   0.56429   0.94290   0.00000  Uiso   1.00
C770   C     0.45413   0.57363   0.98904   0.00000  Uiso   1.00
C771   C     0.46841   0.54792   0.51286   0.00000  Uiso   1.00
C772   C     0.48391   0.51027   0.99235   0.00000  Uiso   1.00
C773   C     0.47974   0.49665   0.94808   0.00000  Uiso   1.00
C774   C     0.50185   0.48507   0.51525   0.00000  Uiso   1.00
C775   C     0.51205   0.44500   0.99513   0.00000  Uiso   1.00
C776   C     0.50160   0.43010   0.95449   0.00000  Uiso   1.00
C777   C     0.48310   0.45428   0.93277   0.00000  Uiso   1.00
C778   C     0.50983   0.49853   0.55774   0.00000  Uiso   1.00
C779   C     0.53595   0.43384   0.56031   0.00000  Uiso   1.00
C780   C     0.47159   0.52569   0.92141   0.00000  Uiso   1.00
H781   H     0.50302   0.52839   0.57507   0.00000  Uiso   1.00
H782   H     0.46546   0.55777   0.54799   0.00000  Uiso   1.00
C783   C     0.66057   0.50877   0.73349   0.00000  Uiso   1.00
C784   C     0.34096   0.49199   0.76379   0.00000  Uiso   1.00
H785   H     0.65198   0.47840   0.79276   0.00000  Uiso   1.00
C786   C     0.51351   0.65582   0.73765   0.00000  Uiso   1.00
C787   C     0.48402   0.34587   0.76417   0.00000  Uiso   1.00
Cl788  Cl    0.55877   0.34509   0.69807   0.00000  Uiso   1.00
Cl789  Cl    0.43639   0.66096   0.80358   0.00000  Uiso   1.00
N790   N     0.54259   0.37991   0.99801   0.00000  Uiso   1.00
O791   O     0.51379   0.35061   0.98870   0.00000  Uiso   1.00
O792   O     0.57965   0.37015   0.99889   0.00000  Uiso   1.00
Cl793  Cl    0.44677   0.60285   0.91356   0.00000  Uiso   1.00
Cl794  Cl    0.43265   0.61863   0.51834   0.00000  Uiso   1.00
Cl795  Cl    0.45535   0.42675   0.89407   0.00000  Uiso   1.00
N796   N     0.35668   0.52803   0.69555   0.00000  Uiso   1.00
O797   O     0.34698   0.52483   0.65700   0.00000  Uiso   1.00
O798   O     0.39156   0.55137   0.70012   0.00000  Uiso   1.00
Zn799  Zn    0.86005   0.47327   0.78734   0.00000  Uiso   1.00
Zn800  Zn    0.80046   0.45791   0.71876   0.00000  Uiso   1.00
Zn801  Zn    0.87723   0.53109   0.70657   0.00000  Uiso   1.00
Zn802  Zn    0.79560   0.53773   0.78734   0.00000  Uiso   1.00
O803   O     0.83333   0.50000   0.75000   0.00000  Uiso   1.00
O804   O     0.73738   0.52211   0.78213   0.00000  Uiso   1.00
O805   O     0.92158   0.48559   0.77014   0.00000  Uiso   1.00
O806   O     0.80426   0.40277   0.73413   0.00000  Uiso   1.00
O807   O     0.87012   0.58953   0.71361   0.00000  Uiso   1.00
O808   O     0.82118   0.45970   0.65459   0.00000  Uiso   1.00
O809   O     0.79607   0.53724   0.84968   0.00000  Uiso   1.00
O810   O     0.87491   0.51092   0.64606   0.00000  Uiso   1.00
O811   O     0.84118   0.49213   0.84968   0.00000  Uiso   1.00
O812   O     0.84597   0.41352   0.78214   0.00000  Uiso   1.00
O813   O     0.81298   0.59418   0.77014   0.00000  Uiso   1.00
O814   O     0.74078   0.46625   0.73413   0.00000  Uiso   1.00
O815   O     0.93360   0.52605   0.71361   0.00000  Uiso   1.00
C816   C     0.71925   0.49272   0.76069   0.00000  Uiso   1.00
C817   C     0.94755   0.50671   0.73933   0.00000  Uiso   1.00
C818   C     0.82272   0.38947   0.76009   0.00000  Uiso   1.00
C819   C     0.84302   0.61127   0.74037   0.00000  Uiso   1.00
C820   C     0.85196   0.48121   0.62920   0.00000  Uiso   1.00
C821   C     0.81444   0.51784   0.87137   0.00000  Uiso   1.00
C822   C     0.86384   0.41997   0.51741   0.00000  Uiso   1.00
H823   H     0.88038   0.41351   0.57879   0.00000  Uiso   1.00
H824   H     0.83912   0.39874   0.93995   0.00000  Uiso   1.00
C825   C     0.85802   0.47244   0.58072   0.00000  Uiso   1.00
C826   C     0.79128   0.56429   0.94290   0.00000  Uiso   1.00
C827   C     0.78746   0.57363   0.98904   0.00000  Uiso   1.00
C828   C     0.80175   0.54792   0.51286   0.00000  Uiso   1.00
C829   C     0.81725   0.51027   0.99235   0.00000  Uiso   1.00
C830   C     0.81307   0.49665   0.94808   0.00000  Uiso   1.00
C831   C     0.83518   0.48507   0.51525   0.00000  Uiso   1.00
C832   C     0.84538   0.44500   0.99513   0.00000  Uiso   1.00
C833   C     0.83494   0.43010   0.95449   0.00000  Uiso   1.00
C834   C     0.81643   0.45428   0.93277   0.00000  Uiso   1.00
C835   C     0.84316   0.49853   0.55774   0.00000  Uiso   1.00
C836   C     0.86928   0.43384   0.56031   0.00000  Uiso   1.00
C837   C     0.80493   0.52569   0.92141   0.00000  Uiso   1.00
H838   H     0.83635   0.52839   0.57507   0.00000  Uiso   1.00
H839   H     0.79879   0.55777   0.54799   0.00000  Uiso   1.00
C840   C     0.99390   0.50877   0.73349   0.00000  Uiso   1.00
C841   C     0.67429   0.49199   0.76379   0.00000  Uiso   1.00
H842   H     0.98532   0.47840   0.79276   0.00000  Uiso   1.00
C843   C     0.84685   0.65582   0.73765   0.00000  Uiso   1.00
C844   C     0.81735   0.34587   0.76417   0.00000  Uiso   1.00
Cl845  Cl    0.89211   0.34509   0.69807   0.00000  Uiso   1.00
Cl846  Cl    0.76973   0.66096   0.80358   0.00000  Uiso   1.00
N847   N     0.87593   0.37991   0.99801   0.00000  Uiso   1.00
O848   O     0.84712   0.35061   0.98870   0.00000  Uiso   1.00
O849   O     0.91298   0.37015   0.99889   0.00000  Uiso   1.00
Cl850  Cl    0.78010   0.60285   0.91356   0.00000  Uiso   1.00
Cl851  Cl    0.76599   0.61863   0.51834   0.00000  Uiso   1.00
Cl852  Cl    0.78868   0.42675   0.89407   0.00000  Uiso   1.00
N853   N     0.69002   0.52803   0.69555   0.00000  Uiso   1.00
O854   O     0.68031   0.52483   0.65700   0.00000  Uiso   1.00
O855   O     0.72489   0.55137   0.70012   0.00000  Uiso   1.00
Zn856  Zn    0.19338   0.80661   0.78734   0.00000  Uiso   1.00
Zn857  Zn    0.13379   0.79124   0.71876   0.00000  Uiso   1.00
Zn858  Zn    0.21056   0.86442   0.70657   0.00000  Uiso   1.00
Zn859  Zn    0.12893   0.87106   0.78734   0.00000  Uiso   1.00
O860   O     0.16667   0.83333   0.75000   0.00000  Uiso   1.00
O861   O     0.07071   0.85544   0.78213   0.00000  Uiso   1.00
O862   O     0.25491   0.81892   0.77014   0.00000  Uiso   1.00
O863   O     0.13760   0.73610   0.73413   0.00000  Uiso   1.00
O864   O     0.20345   0.92286   0.71361   0.00000  Uiso   1.00
O865   O     0.15451   0.79304   0.65459   0.00000  Uiso   1.00
O866   O     0.12940   0.87058   0.84968   0.00000  Uiso   1.00
O867   O     0.20824   0.84425   0.64606   0.00000  Uiso   1.00
O868   O     0.17451   0.82546   0.84968   0.00000  Uiso   1.00
O869   O     0.17930   0.74686   0.78214   0.00000  Uiso   1.00
O870   O     0.14632   0.92751   0.77014   0.00000  Uiso   1.00
O871   O     0.07412   0.79958   0.73413   0.00000  Uiso   1.00
O872   O     0.26693   0.85939   0.71361   0.00000  Uiso   1.00
C873   C     0.05258   0.82605   0.76069   0.00000  Uiso   1.00
C874   C     0.28088   0.84004   0.73933   0.00000  Uiso   1.00
C875   C     0.15606   0.72280   0.76009   0.00000  Uiso   1.00
C876   C     0.17635   0.94460   0.74037   0.00000  Uiso   1.00
C877   C     0.18529   0.81454   0.62920   0.00000  Uiso   1.00
C878   C     0.14777   0.85117   0.87137   0.00000  Uiso   1.00
C879   C     0.19718   0.75330   0.51741   0.00000  Uiso   1.00
H880   H     0.21371   0.74685   0.57879   0.00000  Uiso   1.00
H881   H     0.17245   0.73208   0.93995   0.00000  Uiso   1.00
C882   C     0.19136   0.80577   0.58072   0.00000  Uiso   1.00
C883   C     0.12462   0.89762   0.94290   0.00000  Uiso   1.00
C884   C     0.12079   0.90696   0.98904   0.00000  Uiso   1.00
C885   C     0.13508   0.88125   0.51286   0.00000  Uiso   1.00
C886   C     0.15058   0.84361   0.99235   0.00000  Uiso   1.00
C887   C     0.14641   0.82998   0.94808   0.00000  Uiso   1.00
C888   C     0.16851   0.81841   0.51525   0.00000  Uiso   1.00
C889   C     0.17871   0.77833   0.99513   0.00000  Uiso   1.00
C890   C     0.16827   0.76343   0.95449   0.00000  Uiso   1.00
C891   C     0.14976   0.78761   0.93277   0.00000  Uiso   1.00
C892   C     0.17649   0.83187   0.55774   0.00000  Uiso   1.00
C893   C     0.20262   0.76718   0.56031   0.00000  Uiso   1.00
C894   C     0.13826   0.85902   0.92141   0.00000  Uiso   1.00
H895   H     0.16968   0.86173   0.57507   0.00000  Uiso   1.00
H896   H     0.13213   0.89111   0.54799   0.00000  Uiso   1.00
C897   C     0.32724   0.84210   0.73349   0.00000  Uiso   1.00
C898   C     0.00763   0.82532   0.76379   0.00000  Uiso   1.00
H899   H     0.31865   0.81173   0.79276   0.00000  Uiso   1.00
C900   C     0.18018   0.98915   0.73765   0.00000  Uiso   1.00
C901   C     0.15068   0.67920   0.76417   0.00000  Uiso   1.00
Cl902  Cl    0.22544   0.67842   0.69807   0.00000  Uiso   1.00
Cl903  Cl    0.10306   0.99430   0.80358   0.00000  Uiso   1.00
N904   N     0.20926   0.71325   0.99801   0.00000  Uiso   1.00
O905   O     0.18045   0.68394   0.98870   0.00000  Uiso   1.00
O906   O     0.24631   0.70349   0.99889   0.00000  Uiso   1.00
Cl907  Cl    0.11344   0.93618   0.91356   0.00000  Uiso   1.00
Cl908  Cl    0.09932   0.95197   0.51834   0.00000  Uiso   1.00
Cl909  Cl    0.12202   0.76008   0.89407   0.00000  Uiso   1.00
N910   N     0.02335   0.86136   0.69555   0.00000  Uiso   1.00
O911   O     0.01364   0.85817   0.65700   0.00000  Uiso   1.00
O912   O     0.05822   0.88470   0.70012   0.00000  Uiso   1.00
Zn913  Zn    0.52672   0.80661   0.78734   0.00000  Uiso   1.00
Zn914  Zn    0.46713   0.79124   0.71876   0.00000  Uiso   1.00
Zn915  Zn    0.54389   0.86442   0.70657   0.00000  Uiso   1.00
Zn916  Zn    0.46226   0.87106   0.78734   0.00000  Uiso   1.00
O917   O     0.50000   0.83333   0.75000   0.00000  Uiso   1.00
O918   O     0.40405   0.85544   0.78213   0.00000  Uiso   1.00
O919   O     0.58824   0.81892   0.77014   0.00000  Uiso   1.00
O920   O     0.47093   0.73610   0.73413   0.00000  Uiso   1.00
O921   O     0.53678   0.92286   0.71361   0.00000  Uiso   1.00
O922   O     0.48784   0.79304   0.65459   0.00000  Uiso   1.00
O923   O     0.46274   0.87058   0.84968   0.00000  Uiso   1.00
O924   O     0.54157   0.84425   0.64606   0.00000  Uiso   1.00
O925   O     0.50785   0.82546   0.84968   0.00000  Uiso   1.00
O926   O     0.51264   0.74686   0.78214   0.00000  Uiso   1.00
O927   O     0.47965   0.92751   0.77014   0.00000  Uiso   1.00
O928   O     0.40745   0.79958   0.73413   0.00000  Uiso   1.00
O929   O     0.60026   0.85939   0.71361   0.00000  Uiso   1.00
C930   C     0.38591   0.82605   0.76069   0.00000  Uiso   1.00
C931   C     0.61422   0.84004   0.73933   0.00000  Uiso   1.00
C932   C     0.48939   0.72280   0.76009   0.00000  Uiso   1.00
C933   C     0.50969   0.94460   0.74037   0.00000  Uiso   1.00
C934   C     0.51862   0.81454   0.62920   0.00000  Uiso   1.00
C935   C     0.48110   0.85117   0.87137   0.00000  Uiso   1.00
C936   C     0.53051   0.75330   0.51741   0.00000  Uiso   1.00
H937   H     0.54705   0.74685   0.57879   0.00000  Uiso   1.00
H938   H     0.50578   0.73208   0.93995   0.00000  Uiso   1.00
C939   C     0.52469   0.80577   0.58072   0.00000  Uiso   1.00
C940   C     0.45795   0.89762   0.94290   0.00000  Uiso   1.00
C941   C     0.45413   0.90696   0.98904   0.00000  Uiso   1.00
C942   C     0.46841   0.88125   0.51286   0.00000  Uiso   1.00
C943   C     0.48391   0.84361   0.99235   0.00000  Uiso   1.00
C944   C     0.47974   0.82998   0.94808   0.00000  Uiso   1.00
C945   C     0.50185   0.81841   0.51525   0.00000  Uiso   1.00
C946   C     0.51205   0.77833   0.99513   0.00000  Uiso   1.00
C947   C     0.50160   0.76343   0.95449   0.00000  Uiso   1.00
C948   C     0.48310   0.78761   0.93277   0.00000  Uiso   1.00
C949   C     0.50983   0.83187   0.55774   0.00000  Uiso   1.00
C950   C     0.53595   0.76718   0.56031   0.00000  Uiso   1.00
C951   C     0.47159   0.85902   0.92141   0.00000  Uiso   1.00
H952   H     0.50302   0.86173   0.57507   0.00000  Uiso   1.00
H953   H     0.46546   0.89111   0.54799   0.00000  Uiso   1.00
C954   C     0.66057   0.84210   0.73349   0.00000  Uiso   1.00
C955   C     0.34096   0.82532   0.76379   0.00000  Uiso   1.00
H956   H     0.65198   0.81173   0.79276   0.00000  Uiso   1.00
C957   C     0.51351   0.98915   0.73765   0.00000  Uiso   1.00
C958   C     0.48402   0.67920   0.76417   0.00000  Uiso   1.00
Cl959  Cl    0.55877   0.67842   0.69807   0.00000  Uiso   1.00
Cl960  Cl    0.43639   0.99430   0.80358   0.00000  Uiso   1.00
N961   N     0.54259   0.71325   0.99801   0.00000  Uiso   1.00
O962   O     0.51379   0.68394   0.98870   0.00000  Uiso   1.00
O963   O     0.57965   0.70349   0.99889   0.00000  Uiso   1.00
Cl964  Cl    0.44677   0.93618   0.91356   0.00000  Uiso   1.00
Cl965  Cl    0.43265   0.95197   0.51834   0.00000  Uiso   1.00
Cl966  Cl    0.45535   0.76008   0.89407   0.00000  Uiso   1.00
N967   N     0.35668   0.86136   0.69555   0.00000  Uiso   1.00
O968   O     0.34698   0.85817   0.65700   0.00000  Uiso   1.00
O969   O     0.39156   0.88470   0.70012   0.00000  Uiso   1.00
Zn970  Zn    0.86005   0.80661   0.78734   0.00000  Uiso   1.00
Zn971  Zn    0.80046   0.79124   0.71876   0.00000  Uiso   1.00
Zn972  Zn    0.87723   0.86442   0.70657   0.00000  Uiso   1.00
Zn973  Zn    0.79560   0.87106   0.78734   0.00000  Uiso   1.00
O974   O     0.83333   0.83333   0.75000   0.00000  Uiso   1.00
O975   O     0.73738   0.85544   0.78213   0.00000  Uiso   1.00
O976   O     0.92158   0.81892   0.77014   0.00000  Uiso   1.00
O977   O     0.80426   0.73610   0.73413   0.00000  Uiso   1.00
O978   O     0.87012   0.92286   0.71361   0.00000  Uiso   1.00
O979   O     0.82118   0.79304   0.65459   0.00000  Uiso   1.00
O980   O     0.79607   0.87058   0.84968   0.00000  Uiso   1.00
O981   O     0.87491   0.84425   0.64606   0.00000  Uiso   1.00
O982   O     0.84118   0.82546   0.84968   0.00000  Uiso   1.00
O983   O     0.84597   0.74686   0.78214   0.00000  Uiso   1.00
O984   O     0.81298   0.92751   0.77014   0.00000  Uiso   1.00
O985   O     0.74078   0.79958   0.73413   0.00000  Uiso   1.00
O986   O     0.93360   0.85939   0.71361   0.00000  Uiso   1.00
C987   C     0.71925   0.82605   0.76069   0.00000  Uiso   1.00
C988   C     0.94755   0.84004   0.73933   0.00000  Uiso   1.00
C989   C     0.82272   0.72280   0.76009   0.00000  Uiso   1.00
C990   C     0.84302   0.94460   0.74037   0.00000  Uiso   1.00
C991   C     0.85196   0.81454   0.62920   0.00000  Uiso   1.00
C992   C     0.81444   0.85117   0.87137   0.00000  Uiso   1.00
C993   C     0.86384   0.75330   0.51741   0.00000  Uiso   1.00
H994   H     0.88038   0.74685   0.57879   0.00000  Uiso   1.00
H995   H     0.83912   0.73208   0.93995   0.00000  Uiso   1.00
C996   C     0.85802   0.80577   0.58072   0.00000  Uiso   1.00
C997   C     0.79128   0.89762   0.94290   0.00000  Uiso   1.00
C998   C     0.78746   0.90696   0.98904   0.00000  Uiso   1.00
C999   C     0.80175   0.88125   0.51286   0.00000  Uiso   1.00
C1000  C     0.81725   0.84361   0.99235   0.00000  Uiso   1.00
C1001  C     0.81307   0.82998   0.94808   0.00000  Uiso   1.00
C1002  C     0.83518   0.81841   0.51525   0.00000  Uiso   1.00
C1003  C     0.84538   0.77833   0.99513   0.00000  Uiso   1.00
C1004  C     0.83494   0.76343   0.95449   0.00000  Uiso   1.00
C1005  C     0.81643   0.78761   0.93277   0.00000  Uiso   1.00
C1006  C     0.84316   0.83187   0.55774   0.00000  Uiso   1.00
C1007  C     0.86928   0.76718   0.56031   0.00000  Uiso   1.00
C1008  C     0.80493   0.85902   0.92141   0.00000  Uiso   1.00
H1009  H     0.83635   0.86173   0.57507   0.00000  Uiso   1.00
H1010  H     0.79879   0.89111   0.54799   0.00000  Uiso   1.00
C1011  C     0.99390   0.84210   0.73349   0.00000  Uiso   1.00
C1012  C     0.67429   0.82532   0.76379   0.00000  Uiso   1.00
H1013  H     0.98532   0.81173   0.79276   0.00000  Uiso   1.00
C1014  C     0.84685   0.98915   0.73765   0.00000  Uiso   1.00
C1015  C     0.81735   0.67920   0.76417   0.00000  Uiso   1.00
Cl1016 Cl    0.89211   0.67842   0.69807   0.00000  Uiso   1.00
Cl1017 Cl    0.76973   0.99430   0.80358   0.00000  Uiso   1.00
N1018  N     0.87593   0.71325   0.99801   0.00000  Uiso   1.00
O1019  O     0.84712   0.68394   0.98870   0.00000  Uiso   1.00
O1020  O     0.91298   0.70349   0.99889   0.00000  Uiso   1.00
Cl1021 Cl    0.78010   0.93618   0.91356   0.00000  Uiso   1.00
Cl1022 Cl    0.76599   0.95197   0.51834   0.00000  Uiso   1.00
Cl1023 Cl    0.78868   0.76008   0.89407   0.00000  Uiso   1.00
N1024  N     0.69002   0.86136   0.69555   0.00000  Uiso   1.00
O1025  O     0.68031   0.85817   0.65700   0.00000  Uiso   1.00
O1026  O     0.72489   0.88470   0.70012   0.00000  Uiso   1.00
loop_
_geom_bond_atom_site_label_1
_geom_bond_atom_site_label_2
_geom_bond_distance
_geom_bond_site_symmetry_2
_ccdc_geom_bond_type
Zn1    O5      1.967   .     S
Zn1    O7      1.923   .     S
Zn1    O13     1.911   .     S
Zn1    O14     1.936   .     S
Zn2    O16     1.925   .     S
Zn2    O5      1.939   .     S
Zn2    O10     1.921   .     S
Zn2    O8      1.950   .     S
Zn3    O9      1.937   .     S
Zn3    O12     1.922   .     S
Zn3    O17     1.939   .     S
Zn3    O5      1.937   .     S
Zn4    O15     1.945   .     S
Zn4    O11     1.934   .     S
Zn4    O6      1.933   .     S
Zn4    O5      1.923   .     S
O6     C18     1.263   .     A
O7     C19     1.287   .     A
O8     C20     1.272   .     A
O9     C21     1.271   .     A
O10    C22     1.272   .     A
O11    C23     1.282   .     A
O12    C22     1.281   .     A
O13    C23     1.295   .     A
O14    C20     1.274   .     A
O15    C21     1.263   .     A
O16    C18     1.269   .     A
O17    C19     1.282   .     A
C18    C43     1.438   .     S
C19    C42     1.464   .     S
C20    C46     1.427   .     S
C21    C45     1.454   .     S
C22    C27     1.455   .     S
C23    C39     1.491   .     S
C24    C38     1.396   .     A
C24    C547    1.419   1_554 S
C24    N562    1.436   1_554 S
H25    C38     1.084   .     S
H26    C35     1.080   .     S
C27    C37     1.388   .     A
C27    C38     1.393   .     A
C28    Cl52    1.773   .     S
C28    C29     1.397   .     A
C28    C39     1.425   .     A
C29    C543    1.386   .     S
C29    Cl566   1.763   .     S
C30    H41     1.076   .     S
C30    C542    1.386   1_554 S
C30    C544    1.411   1_554 S
C31    C32     1.422   .     A
C31    C543    1.411   .     S
C31    C546    1.425   .     S
C32    C36     1.418   .     A
C32    C39     1.428   .     A
C33    C37     1.412   .     A
C33    C544    1.425   1_554 S
C33    C547    1.425   1_554 S
C34    C35     1.400   .     A
C34    C546    1.425   .     S
C34    C537    1.419   .     S
C35    C36     1.389   .     A
C36    Cl54    1.769   .     S
C37    H40     1.077   .     S
C42    C100    1.343   .     S
C42    N112    1.446   .     S
C43    C156    1.343   1_455 S
C43    H158    1.086   1_455 S
H44    C100    1.086   .     S
C45    C217    1.349   .     S
C45    Cl218   1.774   .     S
C46    C387    1.349   1_545 S
C46    Cl390   1.770   1_545 S
Cl47   C387    1.774   1_545 S
Cl48   C217    1.770   .     S
N49    O50     1.300   .     A
N49    O51     1.301   .     A
N49    C537    1.436   .     S
Cl53   C542    1.763   1_554 S
N55    O56     1.301   .     A
N55    O57     1.302   .     A
N55    C156    1.446   1_455 S
Zn58   O62     1.967   .     S
Zn58   O64     1.923   .     S
Zn58   O70     1.911   .     S
Zn58   O71     1.936   .     S
Zn59   O73     1.925   .     S
Zn59   O62     1.939   .     S
Zn59   O67     1.921   .     S
Zn59   O65     1.950   .     S
Zn60   O66     1.937   .     S
Zn60   O69     1.922   .     S
Zn60   O74     1.939   .     S
Zn60   O62     1.937   .     S
Zn61   O72     1.945   .     S
Zn61   O68     1.934   .     S
Zn61   O63     1.933   .     S
Zn61   O62     1.923   .     S
O63    C75     1.263   .     A
O64    C76     1.287   .     A
O65    C77     1.272   .     A
O66    C78     1.271   .     A
O67    C79     1.272   .     A
O68    C80     1.282   .     A
O69    C79     1.281   .     A
O70    C80     1.295   .     A
O71    C77     1.274   .     A
O72    C78     1.263   .     A
O73    C75     1.269   .     A
O74    C76     1.282   .     A
C75    C100    1.438   .     S
C76    C99     1.464   .     S
C77    C103    1.427   .     S
C78    C102    1.454   .     S
C79    C84     1.455   .     S
C80    C96     1.491   .     S
C81    C95     1.396   .     A
C81    C604    1.419   1_554 S
C81    N619    1.436   1_554 S
H82    C95     1.084   .     S
H83    C92     1.080   .     S
C84    C94     1.388   .     A
C84    C95     1.393   .     A
C85    Cl109   1.773   .     S
C85    C86     1.397   .     A
C85    C96     1.425   .     A
C86    C600    1.386   .     S
C86    Cl623   1.763   .     S
C87    H98     1.076   .     S
C87    C599    1.386   1_554 S
C87    C601    1.411   1_554 S
C88    C89     1.422   .     A
C88    C600    1.411   .     S
C88    C603    1.425   .     S
C89    C93     1.418   .     A
C89    C96     1.428   .     A
C90    C94     1.412   .     A
C90    C601    1.425   1_554 S
C90    C604    1.425   1_554 S
C91    C92     1.400   .     A
C91    C603    1.425   .     S
C91    C594    1.419   .     S
C92    C93     1.389   .     A
C93    Cl111   1.769   .     S
C94    H97     1.077   .     S
C99    C157    1.343   .     S
C99    N169    1.446   .     S
H101   C157    1.086   .     S
C102   C274    1.349   .     S
C102   Cl275   1.774   .     S
C103   C444    1.349   1_545 S
C103   Cl447   1.770   1_545 S
Cl104  C444    1.774   1_545 S
Cl105  C274    1.770   .     S
N106   O107    1.300   .     A
N106   O108    1.301   .     A
N106   C594    1.436   .     S
Cl110  C599    1.763   1_554 S
N112   O113    1.301   .     A
N112   O114    1.302   .     A
Zn115  O119    1.967   .     S
Zn115  O121    1.923   .     S
Zn115  O127    1.911   .     S
Zn115  O128    1.936   .     S
Zn116  O130    1.925   .     S
Zn116  O119    1.939   .     S
Zn116  O124    1.921   .     S
Zn116  O122    1.950   .     S
Zn117  O123    1.937   .     S
Zn117  O126    1.922   .     S
Zn117  O131    1.939   .     S
Zn117  O119    1.937   .     S
Zn118  O129    1.945   .     S
Zn118  O125    1.934   .     S
Zn118  O120    1.933   .     S
Zn118  O119    1.923   .     S
O120   C132    1.263   .     A
O121   C133    1.287   .     A
O122   C134    1.272   .     A
O123   C135    1.271   .     A
O124   C136    1.272   .     A
O125   C137    1.282   .     A
O126   C136    1.281   .     A
O127   C137    1.295   .     A
O128   C134    1.274   .     A
O129   C135    1.263   .     A
O130   C132    1.269   .     A
O131   C133    1.282   .     A
C132   C157    1.438   .     S
C133   C156    1.464   .     S
C134   C160    1.427   .     S
C135   C159    1.454   .     S
C136   C141    1.455   .     S
C137   C153    1.491   .     S
C138   C152    1.396   .     A
C138   C661    1.419   1_554 S
C138   N676    1.436   1_554 S
H139   C152    1.084   .     S
H140   C149    1.080   .     S
C141   C151    1.388   .     A
C141   C152    1.393   .     A
C142   Cl166   1.773   .     S
C142   C143    1.397   .     A
C142   C153    1.425   .     A
C143   C657    1.386   .     S
C143   Cl680   1.763   .     S
C144   H155    1.076   .     S
C144   C656    1.386   1_554 S
C144   C658    1.411   1_554 S
C145   C146    1.422   .     A
C145   C657    1.411   .     S
C145   C660    1.425   .     S
C146   C150    1.418   .     A
C146   C153    1.428   .     A
C147   C151    1.412   .     A
C147   C658    1.425   1_554 S
C147   C661    1.425   1_554 S
C148   C149    1.400   .     A
C148   C660    1.425   .     S
C148   C651    1.419   .     S
C149   C150    1.389   .     A
C150   Cl168   1.769   .     S
C151   H154    1.077   .     S
C156   C43     1.343   1_655 S
C156   N55     1.446   1_655 S
H158   C43     1.086   1_655 S
C159   C331    1.349   .     S
C159   Cl332   1.774   .     S
C160   C501    1.349   1_545 S
C160   Cl504   1.770   1_545 S
Cl161  C501    1.774   1_545 S
Cl162  C331    1.770   .     S
N163   O164    1.300   .     A
N163   O165    1.301   .     A
N163   C651    1.436   .     S
Cl167  C656    1.763   1_554 S
N169   O170    1.301   .     A
N169   O171    1.302   .     A
Zn172  O176    1.967   .     S
Zn172  O178    1.923   .     S
Zn172  O184    1.911   .     S
Zn172  O185    1.936   .     S
Zn173  O187    1.925   .     S
Zn173  O176    1.939   .     S
Zn173  O181    1.921   .     S
Zn173  O179    1.950   .     S
Zn174  O180    1.937   .     S
Zn174  O183    1.922   .     S
Zn174  O188    1.939   .     S
Zn174  O176    1.937   .     S
Zn175  O186    1.945   .     S
Zn175  O182    1.934   .     S
Zn175  O177    1.933   .     S
Zn175  O176    1.923   .     S
O177   C189    1.263   .     A
O178   C190    1.287   .     A
O179   C191    1.272   .     A
O180   C192    1.271   .     A
O181   C193    1.272   .     A
O182   C194    1.282   .     A
O183   C193    1.281   .     A
O184   C194    1.295   .     A
O185   C191    1.274   .     A
O186   C192    1.263   .     A
O187   C189    1.269   .     A
O188   C190    1.282   .     A
C189   C214    1.438   .     S
C190   C213    1.464   .     S
C191   C217    1.427   .     S
C192   C216    1.454   .     S
C193   C198    1.455   .     S
C194   C210    1.491   .     S
C195   C209    1.396   .     A
C195   C718    1.419   1_554 S
C195   N733    1.436   1_554 S
H196   C209    1.084   .     S
H197   C206    1.080   .     S
C198   C208    1.388   .     A
C198   C209    1.393   .     A
C199   Cl223   1.773   .     S
C199   C200    1.397   .     A
C199   C210    1.425   .     A
C200   C714    1.386   .     S
C200   Cl737   1.763   .     S
C201   H212    1.076   .     S
C201   C713    1.386   1_554 S
C201   C715    1.411   1_554 S
C202   C203    1.422   .     A
C202   C714    1.411   .     S
C202   C717    1.425   .     S
C203   C207    1.418   .     A
C203   C210    1.428   .     A
C204   C208    1.412   .     A
C204   C715    1.425   1_554 S
C204   C718    1.425   1_554 S
C205   C206    1.400   .     A
C205   C717    1.425   .     S
C205   C708    1.419   .     S
C206   C207    1.389   .     A
C207   Cl225   1.769   .     S
C208   H211    1.077   .     S
C213   C271    1.343   .     S
C213   N283    1.446   .     S
C214   C327    1.343   1_455 S
C214   H329    1.086   1_455 S
H215   C271    1.086   .     S
C216   C388    1.349   .     S
C216   Cl389   1.774   .     S
Cl219  C388    1.770   .     S
N220   O221    1.300   .     A
N220   O222    1.301   .     A
N220   C708    1.436   .     S
Cl224  C713    1.763   1_554 S
N226   O227    1.301   .     A
N226   O228    1.302   .     A
N226   C327    1.446   1_455 S
Zn229  O233    1.967   .     S
Zn229  O235    1.923   .     S
Zn229  O241    1.911   .     S
Zn229  O242    1.936   .     S
Zn230  O244    1.925   .     S
Zn230  O233    1.939   .     S
Zn230  O238    1.921   .     S
Zn230  O236    1.950   .     S
Zn231  O237    1.937   .     S
Zn231  O240    1.922   .     S
Zn231  O245    1.939   .     S
Zn231  O233    1.937   .     S
Zn232  O243    1.945   .     S
Zn232  O239    1.934   .     S
Zn232  O234    1.933   .     S
Zn232  O233    1.923   .     S
O234   C246    1.263   .     A
O235   C247    1.287   .     A
O236   C248    1.272   .     A
O237   C249    1.271   .     A
O238   C250    1.272   .     A
O239   C251    1.282   .     A
O240   C250    1.281   .     A
O241   C251    1.295   .     A
O242   C248    1.274   .     A
O243   C249    1.263   .     A
O244   C246    1.269   .     A
O245   C247    1.282   .     A
C246   C271    1.438   .     S
C247   C270    1.464   .     S
C248   C274    1.427   .     S
C249   C273    1.454   .     S
C250   C255    1.455   .     S
C251   C267    1.491   .     S
C252   C266    1.396   .     A
C252   C775    1.419   1_554 S
C252   N790    1.436   1_554 S
H253   C266    1.084   .     S
H254   C263    1.080   .     S
C255   C265    1.388   .     A
C255   C266    1.393   .     A
C256   Cl280   1.773   .     S
C256   C257    1.397   .     A
C256   C267    1.425   .     A
C257   C771    1.386   .     S
C257   Cl794   1.763   .     S
C258   H269    1.076   .     S
C258   C770    1.386   1_554 S
C258   C772    1.411   1_554 S
C259   C260    1.422   .     A
C259   C771    1.411   .     S
C259   C774    1.425   .     S
C260   C264    1.418   .     A
C260   C267    1.428   .     A
C261   C265    1.412   .     A
C261   C772    1.425   1_554 S
C261   C775    1.425   1_554 S
C262   C263    1.400   .     A
C262   C774    1.425   .     S
C262   C765    1.419   .     S
C263   C264    1.389   .     A
C264   Cl282   1.769   .     S
C265   H268    1.077   .     S
C270   C328    1.343   .     S
C270   N340    1.446   .     S
H272   C328    1.086   .     S
C273   C445    1.349   .     S
C273   Cl446   1.774   .     S
Cl276  C445    1.770   .     S
N277   O278    1.300   .     A
N277   O279    1.301   .     A
N277   C765    1.436   .     S
Cl281  C770    1.763   1_554 S
N283   O284    1.301   .     A
N283   O285    1.302   .     A
Zn286  O290    1.967   .     S
Zn286  O292    1.923   .     S
Zn286  O298    1.911   .     S
Zn286  O299    1.936   .     S
Zn287  O301    1.925   .     S
Zn287  O290    1.939   .     S
Zn287  O295    1.921   .     S
Zn287  O293    1.950   .     S
Zn288  O294    1.937   .     S
Zn288  O297    1.922   .     S
Zn288  O302    1.939   .     S
Zn288  O290    1.937   .     S
Zn289  O300    1.945   .     S
Zn289  O296    1.934   .     S
Zn289  O291    1.933   .     S
Zn289  O290    1.923   .     S
O291   C303    1.263   .     A
O292   C304    1.287   .     A
O293   C305    1.272   .     A
O294   C306    1.271   .     A
O295   C307    1.272   .     A
O296   C308    1.282   .     A
O297   C307    1.281   .     A
O298   C308    1.295   .     A
O299   C305    1.274   .     A
O300   C306    1.263   .     A
O301   C303    1.269   .     A
O302   C304    1.282   .     A
C303   C328    1.438   .     S
C304   C327    1.464   .     S
C305   C331    1.427   .     S
C306   C330    1.454   .     S
C307   C312    1.455   .     S
C308   C324    1.491   .     S
C309   C323    1.396   .     A
C309   C832    1.419   1_554 S
C309   N847    1.436   1_554 S
H310   C323    1.084   .     S
H311   C320    1.080   .     S
C312   C322    1.388   .     A
C312   C323    1.393   .     A
C313   Cl337   1.773   .     S
C313   C314    1.397   .     A
C313   C324    1.425   .     A
C314   C828    1.386   .     S
C314   Cl851   1.763   .     S
C315   H326    1.076   .     S
C315   C827    1.386   1_554 S
C315   C829    1.411   1_554 S
C316   C317    1.422   .     A
C316   C828    1.411   .     S
C316   C831    1.425   .     S
C317   C321    1.418   .     A
C317   C324    1.428   .     A
C318   C322    1.412   .     A
C318   C829    1.425   1_554 S
C318   C832    1.425   1_554 S
C319   C320    1.400   .     A
C319   C831    1.425   .     S
C319   C822    1.419   .     S
C320   C321    1.389   .     A
C321   Cl339   1.769   .     S
C322   H325    1.077   .     S
C327   C214    1.343   1_655 S
C327   N226    1.446   1_655 S
H329   C214    1.086   1_655 S
C330   C502    1.349   .     S
C330   Cl503   1.774   .     S
Cl333  C502    1.770   .     S
N334   O335    1.300   .     A
N334   O336    1.301   .     A
N334   C822    1.436   .     S
Cl338  C827    1.763   1_554 S
N340   O341    1.301   .     A
N340   O342    1.302   .     A
Zn343  O347    1.967   .     S
Zn343  O349    1.923   .     S
Zn343  O355    1.911   .     S
Zn343  O356    1.936   .     S
Zn344  O358    1.925   .     S
Zn344  O347    1.939   .     S
Zn344  O352    1.921   .     S
Zn344  O350    1.950   .     S
Zn345  O351    1.937   .     S
Zn345  O354    1.922   .     S
Zn345  O359    1.939   .     S
Zn345  O347    1.937   .     S
Zn346  O357    1.945   .     S
Zn346  O353    1.934   .     S
Zn346  O348    1.933   .     S
Zn346  O347    1.923   .     S
O348   C360    1.263   .     A
O349   C361    1.287   .     A
O350   C362    1.272   .     A
O351   C363    1.271   .     A
O352   C364    1.272   .     A
O353   C365    1.282   .     A
O354   C364    1.281   .     A
O355   C365    1.295   .     A
O356   C362    1.274   .     A
O357   C363    1.263   .     A
O358   C360    1.269   .     A
O359   C361    1.282   .     A
C360   C385    1.438   .     S
C361   C384    1.464   .     S
C362   C388    1.427   .     S
C363   C387    1.454   .     S
C364   C369    1.455   .     S
C365   C381    1.491   .     S
C366   C380    1.396   .     A
C366   C889    1.419   1_554 S
C366   N904    1.436   1_554 S
H367   C380    1.084   .     S
H368   C377    1.080   .     S
C369   C379    1.388   .     A
C369   C380    1.393   .     A
C370   Cl394   1.773   .     S
C370   C371    1.397   .     A
C370   C381    1.425   .     A
C371   C885    1.386   .     S
C371   Cl908   1.763   .     S
C372   H383    1.076   .     S
C372   C884    1.386   1_554 S
C372   C886    1.411   1_554 S
C373   C374    1.422   .     A
C373   C885    1.411   .     S
C373   C888    1.425   .     S
C374   C378    1.418   .     A
C374   C381    1.428   .     A
C375   C379    1.412   .     A
C375   C886    1.425   1_554 S
C375   C889    1.425   1_554 S
C376   C377    1.400   .     A
C376   C888    1.425   .     S
C376   C879    1.419   .     S
C377   C378    1.389   .     A
C378   Cl396   1.769   .     S
C379   H382    1.077   .     S
C384   C442    1.343   .     S
C384   N454    1.446   .     S
C385   C498    1.343   1_455 S
C385   H500    1.086   1_455 S
H386   C442    1.086   .     S
C387   C46     1.349   1_565 S
C387   Cl47    1.774   1_565 S
Cl390  C46     1.770   1_565 S
N391   O392    1.300   .     A
N391   O393    1.301   .     A
N391   C879    1.436   .     S
Cl395  C884    1.763   1_554 S
N397   O398    1.301   .     A
N397   O399    1.302   .     A
N397   C498    1.446   1_455 S
Zn400  O404    1.967   .     S
Zn400  O406    1.923   .     S
Zn400  O412    1.911   .     S
Zn400  O413    1.936   .     S
Zn401  O415    1.925   .     S
Zn401  O404    1.939   .     S
Zn401  O409    1.921   .     S
Zn401  O407    1.950   .     S
Zn402  O408    1.937   .     S
Zn402  O411    1.922   .     S
Zn402  O416    1.939   .     S
Zn402  O404    1.937   .     S
Zn403  O414    1.945   .     S
Zn403  O410    1.934   .     S
Zn403  O405    1.933   .     S
Zn403  O404    1.923   .     S
O405   C417    1.263   .     A
O406   C418    1.287   .     A
O407   C419    1.272   .     A
O408   C420    1.271   .     A
O409   C421    1.272   .     A
O410   C422    1.282   .     A
O411   C421    1.281   .     A
O412   C422    1.295   .     A
O413   C419    1.274   .     A
O414   C420    1.263   .     A
O415   C417    1.269   .     A
O416   C418    1.282   .     A
C417   C442    1.438   .     S
C418   C441    1.464   .     S
C419   C445    1.427   .     S
C420   C444    1.454   .     S
C421   C426    1.455   .     S
C422   C438    1.491   .     S
C423   C437    1.396   .     A
C423   C946    1.419   1_554 S
C423   N961    1.436   1_554 S
H424   C437    1.084   .     S
H425   C434    1.080   .     S
C426   C436    1.388   .     A
C426   C437    1.393   .     A
C427   Cl451   1.773   .     S
C427   C428    1.397   .     A
C427   C438    1.425   .     A
C428   C942    1.386   .     S
C428   Cl965   1.763   .     S
C429   H440    1.076   .     S
C429   C941    1.386   1_554 S
C429   C943    1.411   1_554 S
C430   C431    1.422   .     A
C430   C942    1.411   .     S
C430   C945    1.425   .     S
C431   C435    1.418   .     A
C431   C438    1.428   .     A
C432   C436    1.412   .     A
C432   C943    1.425   1_554 S
C432   C946    1.425   1_554 S
C433   C434    1.400   .     A
C433   C945    1.425   .     S
C433   C936    1.419   .     S
C434   C435    1.389   .     A
C435   Cl453   1.769   .     S
C436   H439    1.077   .     S
C441   C499    1.343   .     S
C441   N511    1.446   .     S
H443   C499    1.086   .     S
C444   C103    1.349   1_565 S
C444   Cl104   1.774   1_565 S
Cl447  C103    1.770   1_565 S
N448   O449    1.300   .     A
N448   O450    1.301   .     A
N448   C936    1.436   .     S
Cl452  C941    1.763   1_554 S
N454   O455    1.301   .     A
N454   O456    1.302   .     A
Zn457  O461    1.967   .     S
Zn457  O463    1.923   .     S
Zn457  O469    1.911   .     S
Zn457  O470    1.936   .     S
Zn458  O472    1.925   .     S
Zn458  O461    1.939   .     S
Zn458  O466    1.921   .     S
Zn458  O464    1.950   .     S
Zn459  O465    1.937   .     S
Zn459  O468    1.922   .     S
Zn459  O473    1.939   .     S
Zn459  O461    1.937   .     S
Zn460  O471    1.945   .     S
Zn460  O467    1.934   .     S
Zn460  O462    1.933   .     S
Zn460  O461    1.923   .     S
O462   C474    1.263   .     A
O463   C475    1.287   .     A
O464   C476    1.272   .     A
O465   C477    1.271   .     A
O466   C478    1.272   .     A
O467   C479    1.282   .     A
O468   C478    1.281   .     A
O469   C479    1.295   .     A
O470   C476    1.274   .     A
O471   C477    1.263   .     A
O472   C474    1.269   .     A
O473   C475    1.282   .     A
C474   C499    1.438   .     S
C475   C498    1.464   .     S
C476   C502    1.427   .     S
C477   C501    1.454   .     S
C478   C483    1.455   .     S
C479   C495    1.491   .     S
C480   C494    1.396   .     A
C480   C1003   1.419   1_554 S
C480   N1018   1.436   1_554 S
H481   C494    1.084   .     S
H482   C491    1.080   .     S
C483   C493    1.388   .     A
C483   C494    1.393   .     A
C484   Cl508   1.773   .     S
C484   C485    1.397   .     A
C484   C495    1.425   .     A
C485   C999    1.386   .     S
C485   Cl1022  1.763   .     S
C486   H497    1.076   .     S
C486   C998    1.386   1_554 S
C486   C1000   1.411   1_554 S
C487   C488    1.422   .     A
C487   C999    1.411   .     S
C487   C1002   1.425   .     S
C488   C492    1.418   .     A
C488   C495    1.428   .     A
C489   C493    1.412   .     A
C489   C1000   1.425   1_554 S
C489   C1003   1.425   1_554 S
C490   C491    1.400   .     A
C490   C1002   1.425   .     S
C490   C993    1.419   .     S
C491   C492    1.389   .     A
C492   Cl510   1.769   .     S
C493   H496    1.077   .     S
C498   C385    1.343   1_655 S
C498   N397    1.446   1_655 S
H500   C385    1.086   1_655 S
C501   C160    1.349   1_565 S
C501   Cl161   1.774   1_565 S
Cl504  C160    1.770   1_565 S
N505   O506    1.300   .     A
N505   O507    1.301   .     A
N505   C993    1.436   .     S
Cl509  C998    1.763   1_554 S
N511   O512    1.301   .     A
N511   O513    1.302   .     A
Zn514  O518    1.967   .     S
Zn514  O520    1.923   .     S
Zn514  O526    1.911   .     S
Zn514  O527    1.936   .     S
Zn515  O529    1.925   .     S
Zn515  O518    1.939   .     S
Zn515  O523    1.921   .     S
Zn515  O521    1.950   .     S
Zn516  O522    1.937   .     S
Zn516  O525    1.922   .     S
Zn516  O530    1.939   .     S
Zn516  O518    1.937   .     S
Zn517  O528    1.945   .     S
Zn517  O524    1.934   .     S
Zn517  O519    1.933   .     S
Zn517  O518    1.923   .     S
O519   C531    1.263   .     A
O520   C532    1.287   .     A
O521   C533    1.272   .     A
O522   C534    1.271   .     A
O523   C535    1.272   .     A
O524   C536    1.282   .     A
O525   C535    1.281   .     A
O526   C536    1.295   .     A
O527   C533    1.274   .     A
O528   C534    1.263   .     A
O529   C531    1.269   .     A
O530   C532    1.282   .     A
C531   C556    1.438   .     S
C532   C555    1.464   .     S
C533   C559    1.427   .     S
C534   C558    1.454   .     S
C535   C540    1.455   .     S
C536   C552    1.491   .     S
C537   C551    1.396   .     A
H538   C551    1.084   .     S
H539   C548    1.080   .     S
C540   C550    1.388   .     A
C540   C551    1.393   .     A
C541   Cl565   1.773   .     S
C541   C542    1.397   .     A
C541   C552    1.425   .     A
C542   C30     1.386   1_556 S
C542   Cl53    1.763   1_556 S
C543   H554    1.076   .     S
C544   C545    1.422   .     A
C544   C30     1.411   1_556 S
C544   C33     1.425   1_556 S
C545   C549    1.418   .     A
C545   C552    1.428   .     A
C546   C550    1.412   .     A
C547   C548    1.400   .     A
C547   C33     1.425   1_556 S
C547   C24     1.419   1_556 S
C548   C549    1.389   .     A
C549   Cl567   1.769   .     S
C550   H553    1.077   .     S
C555   C613    1.343   .     S
C555   N625    1.446   .     S
C556   C669    1.343   1_455 S
C556   H671    1.086   1_455 S
H557   C613    1.086   .     S
C558   C730    1.349   .     S
C558   Cl731   1.774   .     S
C559   C900    1.349   1_545 S
C559   Cl903   1.770   1_545 S
Cl560  C900    1.774   1_545 S
Cl561  C730    1.770   .     S
N562   O563    1.300   .     A
N562   O564    1.301   .     A
N562   C24     1.436   1_556 S
N568   O569    1.301   .     A
N568   O570    1.302   .     A
N568   C669    1.446   1_455 S
Zn571  O575    1.967   .     S
Zn571  O577    1.923   .     S
Zn571  O583    1.911   .     S
Zn571  O584    1.936   .     S
Zn572  O586    1.925   .     S
Zn572  O575    1.939   .     S
Zn572  O580    1.921   .     S
Zn572  O578    1.950   .     S
Zn573  O579    1.937   .     S
Zn573  O582    1.922   .     S
Zn573  O587    1.939   .     S
Zn573  O575    1.937   .     S
Zn574  O585    1.945   .     S
Zn574  O581    1.934   .     S
Zn574  O576    1.933   .     S
Zn574  O575    1.923   .     S
O576   C588    1.263   .     A
O577   C589    1.287   .     A
O578   C590    1.272   .     A
O579   C591    1.271   .     A
O580   C592    1.272   .     A
O581   C593    1.282   .     A
O582   C592    1.281   .     A
O583   C593    1.295   .     A
O584   C590    1.274   .     A
O585   C591    1.263   .     A
O586   C588    1.269   .     A
O587   C589    1.282   .     A
C588   C613    1.438   .     S
C589   C612    1.464   .     S
C590   C616    1.427   .     S
C591   C615    1.454   .     S
C592   C597    1.455   .     S
C593   C609    1.491   .     S
C594   C608    1.396   .     A
H595   C608    1.084   .     S
H596   C605    1.080   .     S
C597   C607    1.388   .     A
C597   C608    1.393   .     A
C598   Cl622   1.773   .     S
C598   C599    1.397   .     A
C598   C609    1.425   .     A
C599   C87     1.386   1_556 S
C599   Cl110   1.763   1_556 S
C600   H611    1.076   .     S
C601   C602    1.422   .     A
C601   C87     1.411   1_556 S
C601   C90     1.425   1_556 S
C602   C606    1.418   .     A
C602   C609    1.428   .     A
C603   C607    1.412   .     A
C604   C605    1.400   .     A
C604   C90     1.425   1_556 S
C604   C81     1.419   1_556 S
C605   C606    1.389   .     A
C606   Cl624   1.769   .     S
C607   H610    1.077   .     S
C612   C670    1.343   .     S
C612   N682    1.446   .     S
H614   C670    1.086   .     S
C615   C787    1.349   .     S
C615   Cl788   1.774   .     S
C616   C957    1.349   1_545 S
C616   Cl960   1.770   1_545 S
Cl617  C957    1.774   1_545 S
Cl618  C787    1.770   .     S
N619   O620    1.300   .     A
N619   O621    1.301   .     A
N619   C81     1.436   1_556 S
N625   O626    1.301   .     A
N625   O627    1.302   .     A
Zn628  O632    1.967   .     S
Zn628  O634    1.923   .     S
Zn628  O640    1.911   .     S
Zn628  O641    1.936   .     S
Zn629  O643    1.925   .     S
Zn629  O632    1.939   .     S
Zn629  O637    1.921   .     S
Zn629  O635    1.950   .     S
Zn630  O636    1.937   .     S
Zn630  O639    1.922   .     S
Zn630  O644    1.939   .     S
Zn630  O632    1.937   .     S
Zn631  O642    1.945   .     S
Zn631  O638    1.934   .     S
Zn631  O633    1.933   .     S
Zn631  O632    1.923   .     S
O633   C645    1.263   .     A
O634   C646    1.287   .     A
O635   C647    1.272   .     A
O636   C648    1.271   .     A
O637   C649    1.272   .     A
O638   C650    1.282   .     A
O639   C649    1.281   .     A
O640   C650    1.295   .     A
O641   C647    1.274   .     A
O642   C648    1.263   .     A
O643   C645    1.269   .     A
O644   C646    1.282   .     A
C645   C670    1.438   .     S
C646   C669    1.464   .     S
C647   C673    1.427   .     S
C648   C672    1.454   .     S
C649   C654    1.455   .     S
C650   C666    1.491   .     S
C651   C665    1.396   .     A
H652   C665    1.084   .     S
H653   C662    1.080   .     S
C654   C664    1.388   .     A
C654   C665    1.393   .     A
C655   Cl679   1.773   .     S
C655   C656    1.397   .     A
C655   C666    1.425   .     A
C656   C144    1.386   1_556 S
C656   Cl167   1.763   1_556 S
C657   H668    1.076   .     S
C658   C659    1.422   .     A
C658   C144    1.411   1_556 S
C658   C147    1.425   1_556 S
C659   C663    1.418   .     A
C659   C666    1.428   .     A
C660   C664    1.412   .     A
C661   C662    1.400   .     A
C661   C147    1.425   1_556 S
C661   C138    1.419   1_556 S
C662   C663    1.389   .     A
C663   Cl681   1.769   .     S
C664   H667    1.077   .     S
C669   C556    1.343   1_655 S
C669   N568    1.446   1_655 S
H671   C556    1.086   1_655 S
C672   C844    1.349   .     S
C672   Cl845   1.774   .     S
C673   C1014   1.349   1_545 S
C673   Cl1017  1.770   1_545 S
Cl674  C1014   1.774   1_545 S
Cl675  C844    1.770   .     S
N676   O677    1.300   .     A
N676   O678    1.301   .     A
N676   C138    1.436   1_556 S
N682   O683    1.301   .     A
N682   O684    1.302   .     A
Zn685  O689    1.967   .     S
Zn685  O691    1.923   .     S
Zn685  O697    1.911   .     S
Zn685  O698    1.936   .     S
Zn686  O700    1.925   .     S
Zn686  O689    1.939   .     S
Zn686  O694    1.921   .     S
Zn686  O692    1.950   .     S
Zn687  O693    1.937   .     S
Zn687  O696    1.922   .     S
Zn687  O701    1.939   .     S
Zn687  O689    1.937   .     S
Zn688  O699    1.945   .     S
Zn688  O695    1.934   .     S
Zn688  O690    1.933   .     S
Zn688  O689    1.923   .     S
O690   C702    1.263   .     A
O691   C703    1.287   .     A
O692   C704    1.272   .     A
O693   C705    1.271   .     A
O694   C706    1.272   .     A
O695   C707    1.282   .     A
O696   C706    1.281   .     A
O697   C707    1.295   .     A
O698   C704    1.274   .     A
O699   C705    1.263   .     A
O700   C702    1.269   .     A
O701   C703    1.282   .     A
C702   C727    1.438   .     S
C703   C726    1.464   .     S
C704   C730    1.427   .     S
C705   C729    1.454   .     S
C706   C711    1.455   .     S
C707   C723    1.491   .     S
C708   C722    1.396   .     A
H709   C722    1.084   .     S
H710   C719    1.080   .     S
C711   C721    1.388   .     A
C711   C722    1.393   .     A
C712   Cl736   1.773   .     S
C712   C713    1.397   .     A
C712   C723    1.425   .     A
C713   C201    1.386   1_556 S
C713   Cl224   1.763   1_556 S
C714   H725    1.076   .     S
C715   C716    1.422   .     A
C715   C201    1.411   1_556 S
C715   C204    1.425   1_556 S
C716   C720    1.418   .     A
C716   C723    1.428   .     A
C717   C721    1.412   .     A
C718   C719    1.400   .     A
C718   C204    1.425   1_556 S
C718   C195    1.419   1_556 S
C719   C720    1.389   .     A
C720   Cl738   1.769   .     S
C721   H724    1.077   .     S
C726   C784    1.343   .     S
C726   N796    1.446   .     S
C727   C840    1.343   1_455 S
C727   H842    1.086   1_455 S
H728   C784    1.086   .     S
C729   C901    1.349   .     S
C729   Cl902   1.774   .     S
Cl732  C901    1.770   .     S
N733   O734    1.300   .     A
N733   O735    1.301   .     A
N733   C195    1.436   1_556 S
N739   O740    1.301   .     A
N739   O741    1.302   .     A
N739   C840    1.446   1_455 S
Zn742  O746    1.967   .     S
Zn742  O748    1.923   .     S
Zn742  O754    1.911   .     S
Zn742  O755    1.936   .     S
Zn743  O757    1.925   .     S
Zn743  O746    1.939   .     S
Zn743  O751    1.921   .     S
Zn743  O749    1.950   .     S
Zn744  O750    1.937   .     S
Zn744  O753    1.922   .     S
Zn744  O758    1.939   .     S
Zn744  O746    1.937   .     S
Zn745  O756    1.945   .     S
Zn745  O752    1.934   .     S
Zn745  O747    1.933   .     S
Zn745  O746    1.923   .     S
O747   C759    1.263   .     A
O748   C760    1.287   .     A
O749   C761    1.272   .     A
O750   C762    1.271   .     A
O751   C763    1.272   .     A
O752   C764    1.282   .     A
O753   C763    1.281   .     A
O754   C764    1.295   .     A
O755   C761    1.274   .     A
O756   C762    1.263   .     A
O757   C759    1.269   .     A
O758   C760    1.282   .     A
C759   C784    1.438   .     S
C760   C783    1.464   .     S
C761   C787    1.427   .     S
C762   C786    1.454   .     S
C763   C768    1.455   .     S
C764   C780    1.491   .     S
C765   C779    1.396   .     A
H766   C779    1.084   .     S
H767   C776    1.080   .     S
C768   C778    1.388   .     A
C768   C779    1.393   .     A
C769   Cl793   1.773   .     S
C769   C770    1.397   .     A
C769   C780    1.425   .     A
C770   C258    1.386   1_556 S
C770   Cl281   1.763   1_556 S
C771   H782    1.076   .     S
C772   C773    1.422   .     A
C772   C258    1.411   1_556 S
C772   C261    1.425   1_556 S
C773   C777    1.418   .     A
C773   C780    1.428   .     A
C774   C778    1.412   .     A
C775   C776    1.400   .     A
C775   C261    1.425   1_556 S
C775   C252    1.419   1_556 S
C776   C777    1.389   .     A
C777   Cl795   1.769   .     S
C778   H781    1.077   .     S
C783   C841    1.343   .     S
C783   N853    1.446   .     S
H785   C841    1.086   .     S
C786   C958    1.349   .     S
C786   Cl959   1.774   .     S
Cl789  C958    1.770   .     S
N790   O791    1.300   .     A
N790   O792    1.301   .     A
N790   C252    1.436   1_556 S
N796   O797    1.301   .     A
N796   O798    1.302   .     A
Zn799  O803    1.967   .     S
Zn799  O805    1.923   .     S
Zn799  O811    1.911   .     S
Zn799  O812    1.936   .     S
Zn800  O814    1.925   .     S
Zn800  O803    1.939   .     S
Zn800  O808    1.921   .     S
Zn800  O806    1.950   .     S
Zn801  O807    1.937   .     S
Zn801  O810    1.922   .     S
Zn801  O815    1.939   .     S
Zn801  O803    1.937   .     S
Zn802  O813    1.945   .     S
Zn802  O809    1.934   .     S
Zn802  O804    1.933   .     S
Zn802  O803    1.923   .     S
O804   C816    1.263   .     A
O805   C817    1.287   .     A
O806   C818    1.272   .     A
O807   C819    1.271   .     A
O808   C820    1.272   .     A
O809   C821    1.282   .     A
O810   C820    1.281   .     A
O811   C821    1.295   .     A
O812   C818    1.274   .     A
O813   C819    1.263   .     A
O814   C816    1.269   .     A
O815   C817    1.282   .     A
C816   C841    1.438   .     S
C817   C840    1.464   .     S
C818   C844    1.427   .     S
C819   C843    1.454   .     S
C820   C825    1.455   .     S
C821   C837    1.491   .     S
C822   C836    1.396   .     A
H823   C836    1.084   .     S
H824   C833    1.080   .     S
C825   C835    1.388   .     A
C825   C836    1.393   .     A
C826   Cl850   1.773   .     S
C826   C827    1.397   .     A
C826   C837    1.425   .     A
C827   C315    1.386   1_556 S
C827   Cl338   1.763   1_556 S
C828   H839    1.076   .     S
C829   C830    1.422   .     A
C829   C315    1.411   1_556 S
C829   C318    1.425   1_556 S
C830   C834    1.418   .     A
C830   C837    1.428   .     A
C831   C835    1.412   .     A
C832   C833    1.400   .     A
C832   C318    1.425   1_556 S
C832   C309    1.419   1_556 S
C833   C834    1.389   .     A
C834   Cl852   1.769   .     S
C835   H838    1.077   .     S
C840   C727    1.343   1_655 S
C840   N739    1.446   1_655 S
H842   C727    1.086   1_655 S
C843   C1015   1.349   .     S
C843   Cl1016  1.774   .     S
Cl846  C1015   1.770   .     S
N847   O848    1.300   .     A
N847   O849    1.301   .     A
N847   C309    1.436   1_556 S
N853   O854    1.301   .     A
N853   O855    1.302   .     A
Zn856  O860    1.967   .     S
Zn856  O862    1.923   .     S
Zn856  O868    1.911   .     S
Zn856  O869    1.936   .     S
Zn857  O871    1.925   .     S
Zn857  O860    1.939   .     S
Zn857  O865    1.921   .     S
Zn857  O863    1.950   .     S
Zn858  O864    1.937   .     S
Zn858  O867    1.922   .     S
Zn858  O872    1.939   .     S
Zn858  O860    1.937   .     S
Zn859  O870    1.945   .     S
Zn859  O866    1.934   .     S
Zn859  O861    1.933   .     S
Zn859  O860    1.923   .     S
O861   C873    1.263   .     A
O862   C874    1.287   .     A
O863   C875    1.272   .     A
O864   C876    1.271   .     A
O865   C877    1.272   .     A
O866   C878    1.282   .     A
O867   C877    1.281   .     A
O868   C878    1.295   .     A
O869   C875    1.274   .     A
O870   C876    1.263   .     A
O871   C873    1.269   .     A
O872   C874    1.282   .     A
C873   C898    1.438   .     S
C874   C897    1.464   .     S
C875   C901    1.427   .     S
C876   C900    1.454   .     S
C877   C882    1.455   .     S
C878   C894    1.491   .     S
C879   C893    1.396   .     A
H880   C893    1.084   .     S
H881   C890    1.080   .     S
C882   C892    1.388   .     A
C882   C893    1.393   .     A
C883   Cl907   1.773   .     S
C883   C884    1.397   .     A
C883   C894    1.425   .     A
C884   C372    1.386   1_556 S
C884   Cl395   1.763   1_556 S
C885   H896    1.076   .     S
C886   C887    1.422   .     A
C886   C372    1.411   1_556 S
C886   C375    1.425   1_556 S
C887   C891    1.418   .     A
C887   C894    1.428   .     A
C888   C892    1.412   .     A
C889   C890    1.400   .     A
C889   C375    1.425   1_556 S
C889   C366    1.419   1_556 S
C890   C891    1.389   .     A
C891   Cl909   1.769   .     S
C892   H895    1.077   .     S
C897   C955    1.343   .     S
C897   N967    1.446   .     S
C898   C1011   1.343   1_455 S
C898   H1013   1.086   1_455 S
H899   C955    1.086   .     S
C900   C559    1.349   1_565 S
C900   Cl560   1.774   1_565 S
Cl903  C559    1.770   1_565 S
N904   O905    1.300   .     A
N904   O906    1.301   .     A
N904   C366    1.436   1_556 S
N910   O911    1.301   .     A
N910   O912    1.302   .     A
N910   C1011   1.446   1_455 S
Zn913  O917    1.967   .     S
Zn913  O919    1.923   .     S
Zn913  O925    1.911   .     S
Zn913  O926    1.936   .     S
Zn914  O928    1.925   .     S
Zn914  O917    1.939   .     S
Zn914  O922    1.921   .     S
Zn914  O920    1.950   .     S
Zn915  O921    1.937   .     S
Zn915  O924    1.922   .     S
Zn915  O929    1.939   .     S
Zn915  O917    1.937   .     S
Zn916  O927    1.945   .     S
Zn916  O923    1.934   .     S
Zn916  O918    1.933   .     S
Zn916  O917    1.923   .     S
O918   C930    1.263   .     A
O919   C931    1.287   .     A
O920   C932    1.272   .     A
O921   C933    1.271   .     A
O922   C934    1.272   .     A
O923   C935    1.282   .     A
O924   C934    1.281   .     A
O925   C935    1.295   .     A
O926   C932    1.274   .     A
O927   C933    1.263   .     A
O928   C930    1.269   .     A
O929   C931    1.282   .     A
C930   C955    1.438   .     S
C931   C954    1.464   .     S
C932   C958    1.427   .     S
C933   C957    1.454   .     S
C934   C939    1.455   .     S
C935   C951    1.491   .     S
C936   C950    1.396   .     A
H937   C950    1.084   .     S
H938   C947    1.080   .     S
C939   C949    1.388   .     A
C939   C950    1.393   .     A
C940   Cl964   1.773   .     S
C940   C941    1.397   .     A
C940   C951    1.425   .     A
C941   C429    1.386   1_556 S
C941   Cl452   1.763   1_556 S
C942   H953    1.076   .     S
C943   C944    1.422   .     A
C943   C429    1.411   1_556 S
C943   C432    1.425   1_556 S
C944   C948    1.418   .     A
C944   C951    1.428   .     A
C945   C949    1.412   .     A
C946   C947    1.400   .     A
C946   C432    1.425   1_556 S
C946   C423    1.419   1_556 S
C947   C948    1.389   .     A
C948   Cl966   1.769   .     S
C949   H952    1.077   .     S
C954   C1012   1.343   .     S
C954   N1024   1.446   .     S
H956   C1012   1.086   .     S
C957   C616    1.349   1_565 S
C957   Cl617   1.774   1_565 S
Cl960  C616    1.770   1_565 S
N961   O962    1.300   .     A
N961   O963    1.301   .     A
N961   C423    1.436   1_556 S
N967   O968    1.301   .     A
N967   O969    1.302   .     A
Zn970  O974    1.967   .     S
Zn970  O976    1.923   .     S
Zn970  O982    1.911   .     S
Zn970  O983    1.936   .     S
Zn971  O985    1.925   .     S
Zn971  O974    1.939   .     S
Zn971  O979    1.921   .     S
Zn971  O977    1.950   .     S
Zn972  O978    1.937   .     S
Zn972  O981    1.922   .     S
Zn972  O986    1.939   .     S
Zn972  O974    1.937   .     S
Zn973  O984    1.945   .     S
Zn973  O980    1.934   .     S
Zn973  O975    1.933   .     S
Zn973  O974    1.923   .     S
O975   C987    1.263   .     A
O976   C988    1.287   .     A
O977   C989    1.272   .     A
O978   C990    1.271   .     A
O979   C991    1.272   .     A
O980   C992    1.282   .     A
O981   C991    1.281   .     A
O982   C992    1.295   .     A
O983   C989    1.274   .     A
O984   C990    1.263   .     A
O985   C987    1.269   .     A
O986   C988    1.282   .     A
C987   C1012   1.438   .     S
C988   C1011   1.464   .     S
C989   C1015   1.427   .     S
C990   C1014   1.454   .     S
C991   C996    1.455   .     S
C992   C1008   1.491   .     S
C993   C1007   1.396   .     A
H994   C1007   1.084   .     S
H995   C1004   1.080   .     S
C996   C1006   1.388   .     A
C996   C1007   1.393   .     A
C997   Cl1021  1.773   .     S
C997   C998    1.397   .     A
C997   C1008   1.425   .     A
C998   C486    1.386   1_556 S
C998   Cl509   1.763   1_556 S
C999   H1010   1.076   .     S
C1000  C1001   1.422   .     A
C1000  C486    1.411   1_556 S
C1000  C489    1.425   1_556 S
C1001  C1005   1.418   .     A
C1001  C1008   1.428   .     A
C1002  C1006   1.412   .     A
C1003  C1004   1.400   .     A
C1003  C489    1.425   1_556 S
C1003  C480    1.419   1_556 S
C1004  C1005   1.389   .     A
C1005  Cl1023  1.769   .     S
C1006  H1009   1.077   .     S
C1011  C898    1.343   1_655 S
C1011  N910    1.446   1_655 S
H1013  C898    1.086   1_655 S
C1014  C673    1.349   1_565 S
C1014  Cl674   1.774   1_565 S
Cl1017 C673    1.770   1_565 S
N1018  O1019   1.300   .     A
N1018  O1020   1.301   .     A
N1018  C480    1.436   1_556 S
N1024  O1025   1.301   .     A
N1024  O1026   1.302   .     A
