data_str_m3_o1_o17_pcu_sym.154
_audit_creation_date              2020-01-03
_audit_creation_method            'Materials Studio'
_symmetry_space_group_name_H-M    'P1'
_symmetry_Int_Tables_number       1
_symmetry_cell_setting            triclinic
loop_
_symmetry_equiv_pos_as_xyz
  x,y,z
_cell_length_a                    32.0916
_cell_length_b                    29.5352
_cell_length_c                    29.8799
_cell_angle_alpha                 90.0815
_cell_angle_beta                  89.9132
_cell_angle_gamma                 89.9164
loop_
_atom_site_label
_atom_site_type_symbol
_atom_site_fract_x
_atom_site_fract_y
_atom_site_fract_z
_atom_site_U_iso_or_equiv
_atom_site_adp_type
_atom_site_occupancy
C1     C     0.08664   0.16669   0.24991   0.00000  Uiso   1.00
C2     C     0.24669   0.16664   0.25009   0.00000  Uiso   1.00
C3     C     0.10119   0.12321   0.02061   0.00000  Uiso   1.00
C4     C     0.23214   0.21013   0.47939   0.00000  Uiso   1.00
C5     C     0.02142   0.12774   0.23625   0.00000  Uiso   1.00
C6     C     0.31191   0.20560   0.26375   0.00000  Uiso   1.00
C7     C     0.31206   0.12767   0.23644   0.00000  Uiso   1.00
C8     C     0.02127   0.20567   0.26356   0.00000  Uiso   1.00
C9     C     0.29083   0.16661   0.25015   0.00000  Uiso   1.00
C10    C     0.04250   0.16672   0.24985   0.00000  Uiso   1.00
C11    C     0.19393   0.02397   0.27619   0.00000  Uiso   1.00
C12    C     0.13940   0.30936   0.22381   0.00000  Uiso   1.00
C13    C     0.13940   0.02398   0.22381   0.00000  Uiso   1.00
C14    C     0.19393   0.30935   0.27619   0.00000  Uiso   1.00
C15    C     0.16556   0.16662   0.16357   0.00000  Uiso   1.00
C16    C     0.16777   0.16671   0.33643   0.00000  Uiso   1.00
C17    C     0.20300   0.18650   0.40709   0.00000  Uiso   1.00
C18    C     0.13034   0.14684   0.09291   0.00000  Uiso   1.00
C19    C     0.16930   0.16683   0.38411   0.00000  Uiso   1.00
C20    C     0.16404   0.16651   0.11589   0.00000  Uiso   1.00
C21    C     0.13666   0.14563   0.40623   0.00000  Uiso   1.00
C22    C     0.19668   0.18770   0.09377   0.00000  Uiso   1.00
C23    C     0.13570   0.14495   0.45233   0.00000  Uiso   1.00
C24    C     0.19763   0.18838   0.04767   0.00000  Uiso   1.00
C25    C     0.16767   0.16646   0.47660   0.00000  Uiso   1.00
C26    C     0.16566   0.16687   0.02340   0.00000  Uiso   1.00
C27    C     0.20154   0.18757   0.45415   0.00000  Uiso   1.00
C28    C     0.13180   0.14577   0.04585   0.00000  Uiso   1.00
C29    C     0.10298   0.12324   0.47430   0.00000  Uiso   1.00
C30    C     0.23036   0.21010   0.02570   0.00000  Uiso   1.00
H31    H     0.11170   0.12995   0.38723   0.00000  Uiso   1.00
H32    H     0.22164   0.20338   0.11277   0.00000  Uiso   1.00
H33    H     0.07876   0.10605   0.45561   0.00000  Uiso   1.00
H34    H     0.25458   0.22729   0.04439   0.00000  Uiso   1.00
H35    H     0.07598   0.10474   0.03611   0.00000  Uiso   1.00
H36    H     0.25735   0.22860   0.46389   0.00000  Uiso   1.00
H37    H     0.03784   0.09764   0.22518   0.00000  Uiso   1.00
H38    H     0.29549   0.23570   0.27482   0.00000  Uiso   1.00
H39    H     0.29576   0.09752   0.22550   0.00000  Uiso   1.00
H40    H     0.03757   0.23582   0.27450   0.00000  Uiso   1.00
H41    H     0.21573   0.04213   0.29714   0.00000  Uiso   1.00
H42    H     0.11760   0.29120   0.20286   0.00000  Uiso   1.00
H43    H     0.11759   0.04215   0.20287   0.00000  Uiso   1.00
H44    H     0.21574   0.29119   0.29713   0.00000  Uiso   1.00
N45    N     0.16667   0.28573   0.25000   0.00000  Uiso   1.00
N46    N     0.16667   0.04760   0.25000   0.00000  Uiso   1.00
O47    O     0.10559   0.20487   0.25000   0.00000  Uiso   1.00
O48    O     0.22774   0.12846   0.25001   0.00000  Uiso   1.00
O49    O     0.22774   0.20487   0.25001   0.00000  Uiso   1.00
O50    O     0.10559   0.12846   0.25000   0.00000  Uiso   1.00
O51    O     0.16666   0.20489   0.18393   0.00000  Uiso   1.00
O52    O     0.16667   0.12844   0.31608   0.00000  Uiso   1.00
O53    O     0.16667   0.20489   0.31608   0.00000  Uiso   1.00
O54    O     0.16666   0.12844   0.18393   0.00000  Uiso   1.00
Zn55   Zn    0.16667   0.21771   0.25000   0.00000  Uiso   1.00
Zn56   Zn    0.16667   0.11563   0.25000   0.00000  Uiso   1.00
C57    C     0.23980   0.20324   0.38147   0.00000  Uiso   1.00
H58    H     0.23564   0.22251   0.35097   0.00000  Uiso   1.00
O59    O     0.27518   0.19362   0.39305   0.00000  Uiso   1.00
C60    C     0.09353   0.13011   0.11853   0.00000  Uiso   1.00
H61    H     0.09769   0.11083   0.14903   0.00000  Uiso   1.00
O62    O     0.05815   0.13975   0.10695   0.00000  Uiso   1.00
C63    C     0.41998   0.16669   0.24991   0.00000  Uiso   1.00
C64    C     0.58002   0.16664   0.25009   0.00000  Uiso   1.00
C65    C     0.43452   0.12321   0.02061   0.00000  Uiso   1.00
C66    C     0.56548   0.21013   0.47939   0.00000  Uiso   1.00
C67    C     0.35476   0.12774   0.23625   0.00000  Uiso   1.00
C68    C     0.64524   0.20560   0.26375   0.00000  Uiso   1.00
C69    C     0.64539   0.12767   0.23644   0.00000  Uiso   1.00
C70    C     0.35461   0.20567   0.26356   0.00000  Uiso   1.00
C71    C     0.62416   0.16661   0.25015   0.00000  Uiso   1.00
C72    C     0.37583   0.16672   0.24985   0.00000  Uiso   1.00
C73    C     0.52727   0.02397   0.27619   0.00000  Uiso   1.00
C74    C     0.47273   0.30936   0.22381   0.00000  Uiso   1.00
C75    C     0.47273   0.02398   0.22381   0.00000  Uiso   1.00
C76    C     0.52727   0.30935   0.27619   0.00000  Uiso   1.00
C77    C     0.49889   0.16662   0.16357   0.00000  Uiso   1.00
C78    C     0.50111   0.16671   0.33643   0.00000  Uiso   1.00
C79    C     0.53633   0.18650   0.40709   0.00000  Uiso   1.00
C80    C     0.46367   0.14684   0.09291   0.00000  Uiso   1.00
C81    C     0.50263   0.16683   0.38411   0.00000  Uiso   1.00
C82    C     0.49737   0.16651   0.11589   0.00000  Uiso   1.00
C83    C     0.46999   0.14563   0.40623   0.00000  Uiso   1.00
C84    C     0.53002   0.18770   0.09377   0.00000  Uiso   1.00
C85    C     0.46904   0.14495   0.45233   0.00000  Uiso   1.00
C86    C     0.53097   0.18838   0.04767   0.00000  Uiso   1.00
C87    C     0.50101   0.16646   0.47660   0.00000  Uiso   1.00
C88    C     0.49900   0.16687   0.02340   0.00000  Uiso   1.00
C89    C     0.53487   0.18757   0.45415   0.00000  Uiso   1.00
C90    C     0.46513   0.14577   0.04585   0.00000  Uiso   1.00
C91    C     0.43631   0.12324   0.47430   0.00000  Uiso   1.00
C92    C     0.56369   0.21010   0.02570   0.00000  Uiso   1.00
H93    H     0.44503   0.12995   0.38723   0.00000  Uiso   1.00
H94    H     0.55497   0.20338   0.11277   0.00000  Uiso   1.00
H95    H     0.41209   0.10605   0.45561   0.00000  Uiso   1.00
H96    H     0.58791   0.22729   0.04439   0.00000  Uiso   1.00
H97    H     0.40932   0.10474   0.03611   0.00000  Uiso   1.00
H98    H     0.59068   0.22860   0.46389   0.00000  Uiso   1.00
H99    H     0.37117   0.09764   0.22518   0.00000  Uiso   1.00
H100   H     0.62883   0.23570   0.27482   0.00000  Uiso   1.00
H101   H     0.62909   0.09752   0.22550   0.00000  Uiso   1.00
H102   H     0.37091   0.23582   0.27450   0.00000  Uiso   1.00
H103   H     0.54906   0.04213   0.29714   0.00000  Uiso   1.00
H104   H     0.45094   0.29120   0.20286   0.00000  Uiso   1.00
H105   H     0.45092   0.04215   0.20287   0.00000  Uiso   1.00
H106   H     0.54908   0.29119   0.29713   0.00000  Uiso   1.00
N107   N     0.50000   0.28573   0.25000   0.00000  Uiso   1.00
N108   N     0.50000   0.04760   0.25000   0.00000  Uiso   1.00
O109   O     0.43892   0.20487   0.25000   0.00000  Uiso   1.00
O110   O     0.56108   0.12846   0.25001   0.00000  Uiso   1.00
O111   O     0.56108   0.20487   0.25001   0.00000  Uiso   1.00
O112   O     0.43892   0.12846   0.25000   0.00000  Uiso   1.00
O113   O     0.49999   0.20489   0.18393   0.00000  Uiso   1.00
O114   O     0.50001   0.12844   0.31608   0.00000  Uiso   1.00
O115   O     0.50001   0.20489   0.31608   0.00000  Uiso   1.00
O116   O     0.49999   0.12844   0.18393   0.00000  Uiso   1.00
Zn117  Zn    0.50000   0.21771   0.25000   0.00000  Uiso   1.00
Zn118  Zn    0.50000   0.11563   0.25000   0.00000  Uiso   1.00
C119   C     0.57313   0.20324   0.38147   0.00000  Uiso   1.00
H120   H     0.56897   0.22251   0.35097   0.00000  Uiso   1.00
O121   O     0.60852   0.19362   0.39305   0.00000  Uiso   1.00
C122   C     0.42687   0.13011   0.11853   0.00000  Uiso   1.00
H123   H     0.43102   0.11083   0.14903   0.00000  Uiso   1.00
O124   O     0.39148   0.13975   0.10695   0.00000  Uiso   1.00
C125   C     0.75331   0.16669   0.24991   0.00000  Uiso   1.00
C126   C     0.91336   0.16664   0.25009   0.00000  Uiso   1.00
C127   C     0.76786   0.12321   0.02061   0.00000  Uiso   1.00
C128   C     0.89881   0.21013   0.47939   0.00000  Uiso   1.00
C129   C     0.68809   0.12774   0.23625   0.00000  Uiso   1.00
C130   C     0.97858   0.20560   0.26375   0.00000  Uiso   1.00
C131   C     0.97872   0.12767   0.23644   0.00000  Uiso   1.00
C132   C     0.68794   0.20567   0.26356   0.00000  Uiso   1.00
C133   C     0.95750   0.16661   0.25015   0.00000  Uiso   1.00
C134   C     0.70917   0.16672   0.24985   0.00000  Uiso   1.00
C135   C     0.86060   0.02397   0.27619   0.00000  Uiso   1.00
C136   C     0.80607   0.30936   0.22381   0.00000  Uiso   1.00
C137   C     0.80607   0.02398   0.22381   0.00000  Uiso   1.00
C138   C     0.86060   0.30935   0.27619   0.00000  Uiso   1.00
C139   C     0.83223   0.16662   0.16357   0.00000  Uiso   1.00
C140   C     0.83444   0.16671   0.33643   0.00000  Uiso   1.00
C141   C     0.86966   0.18650   0.40709   0.00000  Uiso   1.00
C142   C     0.79700   0.14684   0.09291   0.00000  Uiso   1.00
C143   C     0.83596   0.16683   0.38411   0.00000  Uiso   1.00
C144   C     0.83070   0.16651   0.11589   0.00000  Uiso   1.00
C145   C     0.80332   0.14563   0.40623   0.00000  Uiso   1.00
C146   C     0.86335   0.18770   0.09377   0.00000  Uiso   1.00
C147   C     0.80237   0.14495   0.45233   0.00000  Uiso   1.00
C148   C     0.86430   0.18838   0.04767   0.00000  Uiso   1.00
C149   C     0.83434   0.16646   0.47660   0.00000  Uiso   1.00
C150   C     0.83233   0.16687   0.02340   0.00000  Uiso   1.00
C151   C     0.86820   0.18757   0.45415   0.00000  Uiso   1.00
C152   C     0.79847   0.14577   0.04585   0.00000  Uiso   1.00
C153   C     0.76964   0.12324   0.47430   0.00000  Uiso   1.00
C154   C     0.89702   0.21010   0.02570   0.00000  Uiso   1.00
H155   H     0.77837   0.12995   0.38723   0.00000  Uiso   1.00
H156   H     0.88831   0.20338   0.11277   0.00000  Uiso   1.00
H157   H     0.74542   0.10605   0.45561   0.00000  Uiso   1.00
H158   H     0.92124   0.22729   0.04439   0.00000  Uiso   1.00
H159   H     0.74265   0.10474   0.03611   0.00000  Uiso   1.00
H160   H     0.92401   0.22860   0.46389   0.00000  Uiso   1.00
H161   H     0.70451   0.09764   0.22518   0.00000  Uiso   1.00
H162   H     0.96216   0.23570   0.27482   0.00000  Uiso   1.00
H163   H     0.96243   0.09752   0.22550   0.00000  Uiso   1.00
H164   H     0.70424   0.23582   0.27450   0.00000  Uiso   1.00
H165   H     0.88240   0.04213   0.29714   0.00000  Uiso   1.00
H166   H     0.78427   0.29120   0.20286   0.00000  Uiso   1.00
H167   H     0.78426   0.04215   0.20287   0.00000  Uiso   1.00
H168   H     0.88241   0.29119   0.29713   0.00000  Uiso   1.00
N169   N     0.83333   0.28573   0.25000   0.00000  Uiso   1.00
N170   N     0.83333   0.04760   0.25000   0.00000  Uiso   1.00
O171   O     0.77226   0.20487   0.25000   0.00000  Uiso   1.00
O172   O     0.89441   0.12846   0.25001   0.00000  Uiso   1.00
O173   O     0.89441   0.20487   0.25001   0.00000  Uiso   1.00
O174   O     0.77226   0.12846   0.25000   0.00000  Uiso   1.00
O175   O     0.83333   0.20489   0.18393   0.00000  Uiso   1.00
O176   O     0.83334   0.12844   0.31608   0.00000  Uiso   1.00
O177   O     0.83334   0.20489   0.31608   0.00000  Uiso   1.00
O178   O     0.83333   0.12844   0.18393   0.00000  Uiso   1.00
Zn179  Zn    0.83333   0.21771   0.25000   0.00000  Uiso   1.00
Zn180  Zn    0.83333   0.11563   0.25000   0.00000  Uiso   1.00
C181   C     0.90646   0.20324   0.38147   0.00000  Uiso   1.00
H182   H     0.90230   0.22251   0.35097   0.00000  Uiso   1.00
O183   O     0.94185   0.19362   0.39305   0.00000  Uiso   1.00
C184   C     0.76020   0.13011   0.11853   0.00000  Uiso   1.00
H185   H     0.76435   0.11083   0.14903   0.00000  Uiso   1.00
O186   O     0.72482   0.13975   0.10695   0.00000  Uiso   1.00
C187   C     0.08664   0.50003   0.24991   0.00000  Uiso   1.00
C188   C     0.24669   0.49998   0.25009   0.00000  Uiso   1.00
C189   C     0.10119   0.45655   0.02061   0.00000  Uiso   1.00
C190   C     0.23214   0.54346   0.47939   0.00000  Uiso   1.00
C191   C     0.02142   0.46107   0.23625   0.00000  Uiso   1.00
C192   C     0.31191   0.53893   0.26375   0.00000  Uiso   1.00
C193   C     0.31206   0.46100   0.23644   0.00000  Uiso   1.00
C194   C     0.02127   0.53900   0.26356   0.00000  Uiso   1.00
C195   C     0.29083   0.49994   0.25015   0.00000  Uiso   1.00
C196   C     0.04250   0.50006   0.24985   0.00000  Uiso   1.00
C197   C     0.19393   0.35731   0.27619   0.00000  Uiso   1.00
C198   C     0.13940   0.64270   0.22381   0.00000  Uiso   1.00
C199   C     0.13940   0.35732   0.22381   0.00000  Uiso   1.00
C200   C     0.19393   0.64268   0.27619   0.00000  Uiso   1.00
C201   C     0.16556   0.49996   0.16357   0.00000  Uiso   1.00
C202   C     0.16777   0.50004   0.33643   0.00000  Uiso   1.00
C203   C     0.20300   0.51983   0.40709   0.00000  Uiso   1.00
C204   C     0.13034   0.48017   0.09291   0.00000  Uiso   1.00
C205   C     0.16930   0.50016   0.38411   0.00000  Uiso   1.00
C206   C     0.16404   0.49984   0.11589   0.00000  Uiso   1.00
C207   C     0.13666   0.47896   0.40623   0.00000  Uiso   1.00
C208   C     0.19668   0.52103   0.09377   0.00000  Uiso   1.00
C209   C     0.13570   0.47828   0.45233   0.00000  Uiso   1.00
C210   C     0.19763   0.52172   0.04767   0.00000  Uiso   1.00
C211   C     0.16767   0.49979   0.47660   0.00000  Uiso   1.00
C212   C     0.16566   0.50021   0.02340   0.00000  Uiso   1.00
C213   C     0.20154   0.52090   0.45415   0.00000  Uiso   1.00
C214   C     0.13180   0.47910   0.04585   0.00000  Uiso   1.00
C215   C     0.10298   0.45657   0.47430   0.00000  Uiso   1.00
C216   C     0.23036   0.54343   0.02570   0.00000  Uiso   1.00
H217   H     0.11170   0.46328   0.38723   0.00000  Uiso   1.00
H218   H     0.22164   0.53672   0.11277   0.00000  Uiso   1.00
H219   H     0.07876   0.43938   0.45561   0.00000  Uiso   1.00
H220   H     0.25458   0.56062   0.04439   0.00000  Uiso   1.00
H221   H     0.07598   0.43808   0.03611   0.00000  Uiso   1.00
H222   H     0.25735   0.56193   0.46389   0.00000  Uiso   1.00
H223   H     0.03784   0.43097   0.22518   0.00000  Uiso   1.00
H224   H     0.29549   0.56903   0.27482   0.00000  Uiso   1.00
H225   H     0.29576   0.43085   0.22550   0.00000  Uiso   1.00
H226   H     0.03757   0.56915   0.27450   0.00000  Uiso   1.00
H227   H     0.21573   0.37546   0.29714   0.00000  Uiso   1.00
H228   H     0.11760   0.62454   0.20286   0.00000  Uiso   1.00
H229   H     0.11759   0.37548   0.20287   0.00000  Uiso   1.00
H230   H     0.21574   0.62452   0.29713   0.00000  Uiso   1.00
N231   N     0.16667   0.61907   0.25000   0.00000  Uiso   1.00
N232   N     0.16667   0.38093   0.25000   0.00000  Uiso   1.00
O233   O     0.10559   0.53821   0.25000   0.00000  Uiso   1.00
O234   O     0.22774   0.46179   0.25001   0.00000  Uiso   1.00
O235   O     0.22774   0.53821   0.25001   0.00000  Uiso   1.00
O236   O     0.10559   0.46179   0.25000   0.00000  Uiso   1.00
O237   O     0.16666   0.53823   0.18393   0.00000  Uiso   1.00
O238   O     0.16667   0.46177   0.31608   0.00000  Uiso   1.00
O239   O     0.16667   0.53823   0.31608   0.00000  Uiso   1.00
O240   O     0.16666   0.46177   0.18393   0.00000  Uiso   1.00
Zn241  Zn    0.16667   0.55104   0.25000   0.00000  Uiso   1.00
Zn242  Zn    0.16667   0.44896   0.25000   0.00000  Uiso   1.00
C243   C     0.23980   0.53657   0.38147   0.00000  Uiso   1.00
H244   H     0.23564   0.55585   0.35097   0.00000  Uiso   1.00
O245   O     0.27518   0.52695   0.39305   0.00000  Uiso   1.00
C246   C     0.09353   0.46344   0.11853   0.00000  Uiso   1.00
H247   H     0.09769   0.44417   0.14903   0.00000  Uiso   1.00
O248   O     0.05815   0.47308   0.10695   0.00000  Uiso   1.00
C249   C     0.41998   0.50003   0.24991   0.00000  Uiso   1.00
C250   C     0.58002   0.49998   0.25009   0.00000  Uiso   1.00
C251   C     0.43452   0.45655   0.02061   0.00000  Uiso   1.00
C252   C     0.56548   0.54346   0.47939   0.00000  Uiso   1.00
C253   C     0.35476   0.46107   0.23625   0.00000  Uiso   1.00
C254   C     0.64524   0.53893   0.26375   0.00000  Uiso   1.00
C255   C     0.64539   0.46100   0.23644   0.00000  Uiso   1.00
C256   C     0.35461   0.53900   0.26356   0.00000  Uiso   1.00
C257   C     0.62416   0.49994   0.25015   0.00000  Uiso   1.00
C258   C     0.37583   0.50006   0.24985   0.00000  Uiso   1.00
C259   C     0.52727   0.35731   0.27619   0.00000  Uiso   1.00
C260   C     0.47273   0.64270   0.22381   0.00000  Uiso   1.00
C261   C     0.47273   0.35732   0.22381   0.00000  Uiso   1.00
C262   C     0.52727   0.64268   0.27619   0.00000  Uiso   1.00
C263   C     0.49889   0.49996   0.16357   0.00000  Uiso   1.00
C264   C     0.50111   0.50004   0.33643   0.00000  Uiso   1.00
C265   C     0.53633   0.51983   0.40709   0.00000  Uiso   1.00
C266   C     0.46367   0.48017   0.09291   0.00000  Uiso   1.00
C267   C     0.50263   0.50016   0.38411   0.00000  Uiso   1.00
C268   C     0.49737   0.49984   0.11589   0.00000  Uiso   1.00
C269   C     0.46999   0.47896   0.40623   0.00000  Uiso   1.00
C270   C     0.53002   0.52103   0.09377   0.00000  Uiso   1.00
C271   C     0.46904   0.47828   0.45233   0.00000  Uiso   1.00
C272   C     0.53097   0.52172   0.04767   0.00000  Uiso   1.00
C273   C     0.50101   0.49979   0.47660   0.00000  Uiso   1.00
C274   C     0.49900   0.50021   0.02340   0.00000  Uiso   1.00
C275   C     0.53487   0.52090   0.45415   0.00000  Uiso   1.00
C276   C     0.46513   0.47910   0.04585   0.00000  Uiso   1.00
C277   C     0.43631   0.45657   0.47430   0.00000  Uiso   1.00
C278   C     0.56369   0.54343   0.02570   0.00000  Uiso   1.00
H279   H     0.44503   0.46328   0.38723   0.00000  Uiso   1.00
H280   H     0.55497   0.53672   0.11277   0.00000  Uiso   1.00
H281   H     0.41209   0.43938   0.45561   0.00000  Uiso   1.00
H282   H     0.58791   0.56062   0.04439   0.00000  Uiso   1.00
H283   H     0.40932   0.43808   0.03611   0.00000  Uiso   1.00
H284   H     0.59068   0.56193   0.46389   0.00000  Uiso   1.00
H285   H     0.37117   0.43097   0.22518   0.00000  Uiso   1.00
H286   H     0.62883   0.56903   0.27482   0.00000  Uiso   1.00
H287   H     0.62909   0.43085   0.22550   0.00000  Uiso   1.00
H288   H     0.37091   0.56915   0.27450   0.00000  Uiso   1.00
H289   H     0.54906   0.37546   0.29714   0.00000  Uiso   1.00
H290   H     0.45094   0.62454   0.20286   0.00000  Uiso   1.00
H291   H     0.45092   0.37548   0.20287   0.00000  Uiso   1.00
H292   H     0.54908   0.62452   0.29713   0.00000  Uiso   1.00
N293   N     0.50000   0.61907   0.25000   0.00000  Uiso   1.00
N294   N     0.50000   0.38093   0.25000   0.00000  Uiso   1.00
O295   O     0.43892   0.53821   0.25000   0.00000  Uiso   1.00
O296   O     0.56108   0.46179   0.25001   0.00000  Uiso   1.00
O297   O     0.56108   0.53821   0.25001   0.00000  Uiso   1.00
O298   O     0.43892   0.46179   0.25000   0.00000  Uiso   1.00
O299   O     0.49999   0.53823   0.18393   0.00000  Uiso   1.00
O300   O     0.50001   0.46177   0.31608   0.00000  Uiso   1.00
O301   O     0.50001   0.53823   0.31608   0.00000  Uiso   1.00
O302   O     0.49999   0.46177   0.18393   0.00000  Uiso   1.00
Zn303  Zn    0.50000   0.55104   0.25000   0.00000  Uiso   1.00
Zn304  Zn    0.50000   0.44896   0.25000   0.00000  Uiso   1.00
C305   C     0.57313   0.53657   0.38147   0.00000  Uiso   1.00
H306   H     0.56897   0.55585   0.35097   0.00000  Uiso   1.00
O307   O     0.60852   0.52695   0.39305   0.00000  Uiso   1.00
C308   C     0.42687   0.46344   0.11853   0.00000  Uiso   1.00
H309   H     0.43102   0.44417   0.14903   0.00000  Uiso   1.00
O310   O     0.39148   0.47308   0.10695   0.00000  Uiso   1.00
C311   C     0.75331   0.50003   0.24991   0.00000  Uiso   1.00
C312   C     0.91336   0.49998   0.25009   0.00000  Uiso   1.00
C313   C     0.76786   0.45655   0.02061   0.00000  Uiso   1.00
C314   C     0.89881   0.54346   0.47939   0.00000  Uiso   1.00
C315   C     0.68809   0.46107   0.23625   0.00000  Uiso   1.00
C316   C     0.97858   0.53893   0.26375   0.00000  Uiso   1.00
C317   C     0.97872   0.46100   0.23644   0.00000  Uiso   1.00
C318   C     0.68794   0.53900   0.26356   0.00000  Uiso   1.00
C319   C     0.95750   0.49994   0.25015   0.00000  Uiso   1.00
C320   C     0.70917   0.50006   0.24985   0.00000  Uiso   1.00
C321   C     0.86060   0.35731   0.27619   0.00000  Uiso   1.00
C322   C     0.80607   0.64270   0.22381   0.00000  Uiso   1.00
C323   C     0.80607   0.35732   0.22381   0.00000  Uiso   1.00
C324   C     0.86060   0.64268   0.27619   0.00000  Uiso   1.00
C325   C     0.83223   0.49996   0.16357   0.00000  Uiso   1.00
C326   C     0.83444   0.50004   0.33643   0.00000  Uiso   1.00
C327   C     0.86966   0.51983   0.40709   0.00000  Uiso   1.00
C328   C     0.79700   0.48017   0.09291   0.00000  Uiso   1.00
C329   C     0.83596   0.50016   0.38411   0.00000  Uiso   1.00
C330   C     0.83070   0.49984   0.11589   0.00000  Uiso   1.00
C331   C     0.80332   0.47896   0.40623   0.00000  Uiso   1.00
C332   C     0.86335   0.52103   0.09377   0.00000  Uiso   1.00
C333   C     0.80237   0.47828   0.45233   0.00000  Uiso   1.00
C334   C     0.86430   0.52172   0.04767   0.00000  Uiso   1.00
C335   C     0.83434   0.49979   0.47660   0.00000  Uiso   1.00
C336   C     0.83233   0.50021   0.02340   0.00000  Uiso   1.00
C337   C     0.86820   0.52090   0.45415   0.00000  Uiso   1.00
C338   C     0.79847   0.47910   0.04585   0.00000  Uiso   1.00
C339   C     0.76964   0.45657   0.47430   0.00000  Uiso   1.00
C340   C     0.89702   0.54343   0.02570   0.00000  Uiso   1.00
H341   H     0.77837   0.46328   0.38723   0.00000  Uiso   1.00
H342   H     0.88831   0.53672   0.11277   0.00000  Uiso   1.00
H343   H     0.74542   0.43938   0.45561   0.00000  Uiso   1.00
H344   H     0.92124   0.56062   0.04439   0.00000  Uiso   1.00
H345   H     0.74265   0.43808   0.03611   0.00000  Uiso   1.00
H346   H     0.92401   0.56193   0.46389   0.00000  Uiso   1.00
H347   H     0.70451   0.43097   0.22518   0.00000  Uiso   1.00
H348   H     0.96216   0.56903   0.27482   0.00000  Uiso   1.00
H349   H     0.96243   0.43085   0.22550   0.00000  Uiso   1.00
H350   H     0.70424   0.56915   0.27450   0.00000  Uiso   1.00
H351   H     0.88240   0.37546   0.29714   0.00000  Uiso   1.00
H352   H     0.78427   0.62454   0.20286   0.00000  Uiso   1.00
H353   H     0.78426   0.37548   0.20287   0.00000  Uiso   1.00
H354   H     0.88241   0.62452   0.29713   0.00000  Uiso   1.00
N355   N     0.83333   0.61907   0.25000   0.00000  Uiso   1.00
N356   N     0.83333   0.38093   0.25000   0.00000  Uiso   1.00
O357   O     0.77226   0.53821   0.25000   0.00000  Uiso   1.00
O358   O     0.89441   0.46179   0.25001   0.00000  Uiso   1.00
O359   O     0.89441   0.53821   0.25001   0.00000  Uiso   1.00
O360   O     0.77226   0.46179   0.25000   0.00000  Uiso   1.00
O361   O     0.83333   0.53823   0.18393   0.00000  Uiso   1.00
O362   O     0.83334   0.46177   0.31608   0.00000  Uiso   1.00
O363   O     0.83334   0.53823   0.31608   0.00000  Uiso   1.00
O364   O     0.83333   0.46177   0.18393   0.00000  Uiso   1.00
Zn365  Zn    0.83333   0.55104   0.25000   0.00000  Uiso   1.00
Zn366  Zn    0.83333   0.44896   0.25000   0.00000  Uiso   1.00
C367   C     0.90646   0.53657   0.38147   0.00000  Uiso   1.00
H368   H     0.90230   0.55585   0.35097   0.00000  Uiso   1.00
O369   O     0.94185   0.52695   0.39305   0.00000  Uiso   1.00
C370   C     0.76020   0.46344   0.11853   0.00000  Uiso   1.00
H371   H     0.76435   0.44417   0.14903   0.00000  Uiso   1.00
O372   O     0.72482   0.47308   0.10695   0.00000  Uiso   1.00
C373   C     0.08664   0.83336   0.24991   0.00000  Uiso   1.00
C374   C     0.24669   0.83331   0.25009   0.00000  Uiso   1.00
C375   C     0.10119   0.78988   0.02061   0.00000  Uiso   1.00
C376   C     0.23214   0.87679   0.47939   0.00000  Uiso   1.00
C377   C     0.02142   0.79440   0.23625   0.00000  Uiso   1.00
C378   C     0.31191   0.87226   0.26375   0.00000  Uiso   1.00
C379   C     0.31206   0.79433   0.23644   0.00000  Uiso   1.00
C380   C     0.02127   0.87233   0.26356   0.00000  Uiso   1.00
C381   C     0.29083   0.83328   0.25015   0.00000  Uiso   1.00
C382   C     0.04250   0.83339   0.24985   0.00000  Uiso   1.00
C383   C     0.19393   0.69064   0.27619   0.00000  Uiso   1.00
C384   C     0.13940   0.97603   0.22381   0.00000  Uiso   1.00
C385   C     0.13940   0.69065   0.22381   0.00000  Uiso   1.00
C386   C     0.19393   0.97602   0.27619   0.00000  Uiso   1.00
C387   C     0.16556   0.83329   0.16357   0.00000  Uiso   1.00
C388   C     0.16777   0.83338   0.33643   0.00000  Uiso   1.00
C389   C     0.20300   0.85316   0.40709   0.00000  Uiso   1.00
C390   C     0.13034   0.81351   0.09291   0.00000  Uiso   1.00
C391   C     0.16930   0.83349   0.38411   0.00000  Uiso   1.00
C392   C     0.16404   0.83317   0.11589   0.00000  Uiso   1.00
C393   C     0.13666   0.81230   0.40623   0.00000  Uiso   1.00
C394   C     0.19668   0.85437   0.09377   0.00000  Uiso   1.00
C395   C     0.13570   0.81162   0.45233   0.00000  Uiso   1.00
C396   C     0.19763   0.85505   0.04767   0.00000  Uiso   1.00
C397   C     0.16767   0.83313   0.47660   0.00000  Uiso   1.00
C398   C     0.16566   0.83354   0.02340   0.00000  Uiso   1.00
C399   C     0.20154   0.85424   0.45415   0.00000  Uiso   1.00
C400   C     0.13180   0.81244   0.04585   0.00000  Uiso   1.00
C401   C     0.10298   0.78990   0.47430   0.00000  Uiso   1.00
C402   C     0.23036   0.87677   0.02570   0.00000  Uiso   1.00
H403   H     0.11170   0.79661   0.38723   0.00000  Uiso   1.00
H404   H     0.22164   0.87005   0.11277   0.00000  Uiso   1.00
H405   H     0.07876   0.77271   0.45561   0.00000  Uiso   1.00
H406   H     0.25458   0.89396   0.04439   0.00000  Uiso   1.00
H407   H     0.07598   0.77141   0.03611   0.00000  Uiso   1.00
H408   H     0.25735   0.89527   0.46389   0.00000  Uiso   1.00
H409   H     0.03784   0.76430   0.22518   0.00000  Uiso   1.00
H410   H     0.29549   0.90236   0.27482   0.00000  Uiso   1.00
H411   H     0.29576   0.76418   0.22550   0.00000  Uiso   1.00
H412   H     0.03757   0.90248   0.27450   0.00000  Uiso   1.00
H413   H     0.21573   0.70880   0.29714   0.00000  Uiso   1.00
H414   H     0.11760   0.95787   0.20286   0.00000  Uiso   1.00
H415   H     0.11759   0.70881   0.20287   0.00000  Uiso   1.00
H416   H     0.21574   0.95785   0.29713   0.00000  Uiso   1.00
N417   N     0.16667   0.95240   0.25000   0.00000  Uiso   1.00
N418   N     0.16667   0.71427   0.25000   0.00000  Uiso   1.00
O419   O     0.10559   0.87154   0.25000   0.00000  Uiso   1.00
O420   O     0.22774   0.79513   0.25001   0.00000  Uiso   1.00
O421   O     0.22774   0.87154   0.25001   0.00000  Uiso   1.00
O422   O     0.10559   0.79513   0.25000   0.00000  Uiso   1.00
O423   O     0.16666   0.87156   0.18393   0.00000  Uiso   1.00
O424   O     0.16667   0.79511   0.31608   0.00000  Uiso   1.00
O425   O     0.16667   0.87156   0.31608   0.00000  Uiso   1.00
O426   O     0.16666   0.79511   0.18393   0.00000  Uiso   1.00
Zn427  Zn    0.16667   0.88437   0.25000   0.00000  Uiso   1.00
Zn428  Zn    0.16667   0.78229   0.25000   0.00000  Uiso   1.00
C429   C     0.23980   0.86991   0.38147   0.00000  Uiso   1.00
H430   H     0.23564   0.88918   0.35097   0.00000  Uiso   1.00
O431   O     0.27518   0.86029   0.39305   0.00000  Uiso   1.00
C432   C     0.09353   0.79678   0.11853   0.00000  Uiso   1.00
H433   H     0.09769   0.77750   0.14903   0.00000  Uiso   1.00
O434   O     0.05815   0.80641   0.10695   0.00000  Uiso   1.00
C435   C     0.41998   0.83336   0.24991   0.00000  Uiso   1.00
C436   C     0.58002   0.83331   0.25009   0.00000  Uiso   1.00
C437   C     0.43452   0.78988   0.02061   0.00000  Uiso   1.00
C438   C     0.56548   0.87679   0.47939   0.00000  Uiso   1.00
C439   C     0.35476   0.79440   0.23625   0.00000  Uiso   1.00
C440   C     0.64524   0.87226   0.26375   0.00000  Uiso   1.00
C441   C     0.64539   0.79433   0.23644   0.00000  Uiso   1.00
C442   C     0.35461   0.87233   0.26356   0.00000  Uiso   1.00
C443   C     0.62416   0.83328   0.25015   0.00000  Uiso   1.00
C444   C     0.37583   0.83339   0.24985   0.00000  Uiso   1.00
C445   C     0.52727   0.69064   0.27619   0.00000  Uiso   1.00
C446   C     0.47273   0.97603   0.22381   0.00000  Uiso   1.00
C447   C     0.47273   0.69065   0.22381   0.00000  Uiso   1.00
C448   C     0.52727   0.97602   0.27619   0.00000  Uiso   1.00
C449   C     0.49889   0.83329   0.16357   0.00000  Uiso   1.00
C450   C     0.50111   0.83338   0.33643   0.00000  Uiso   1.00
C451   C     0.53633   0.85316   0.40709   0.00000  Uiso   1.00
C452   C     0.46367   0.81351   0.09291   0.00000  Uiso   1.00
C453   C     0.50263   0.83349   0.38411   0.00000  Uiso   1.00
C454   C     0.49737   0.83317   0.11589   0.00000  Uiso   1.00
C455   C     0.46999   0.81230   0.40623   0.00000  Uiso   1.00
C456   C     0.53002   0.85437   0.09377   0.00000  Uiso   1.00
C457   C     0.46904   0.81162   0.45233   0.00000  Uiso   1.00
C458   C     0.53097   0.85505   0.04767   0.00000  Uiso   1.00
C459   C     0.50101   0.83313   0.47660   0.00000  Uiso   1.00
C460   C     0.49900   0.83354   0.02340   0.00000  Uiso   1.00
C461   C     0.53487   0.85424   0.45415   0.00000  Uiso   1.00
C462   C     0.46513   0.81244   0.04585   0.00000  Uiso   1.00
C463   C     0.43631   0.78990   0.47430   0.00000  Uiso   1.00
C464   C     0.56369   0.87677   0.02570   0.00000  Uiso   1.00
H465   H     0.44503   0.79661   0.38723   0.00000  Uiso   1.00
H466   H     0.55497   0.87005   0.11277   0.00000  Uiso   1.00
H467   H     0.41209   0.77271   0.45561   0.00000  Uiso   1.00
H468   H     0.58791   0.89396   0.04439   0.00000  Uiso   1.00
H469   H     0.40932   0.77141   0.03611   0.00000  Uiso   1.00
H470   H     0.59068   0.89527   0.46389   0.00000  Uiso   1.00
H471   H     0.37117   0.76430   0.22518   0.00000  Uiso   1.00
H472   H     0.62883   0.90236   0.27482   0.00000  Uiso   1.00
H473   H     0.62909   0.76418   0.22550   0.00000  Uiso   1.00
H474   H     0.37091   0.90248   0.27450   0.00000  Uiso   1.00
H475   H     0.54906   0.70880   0.29714   0.00000  Uiso   1.00
H476   H     0.45094   0.95787   0.20286   0.00000  Uiso   1.00
H477   H     0.45092   0.70881   0.20287   0.00000  Uiso   1.00
H478   H     0.54908   0.95785   0.29713   0.00000  Uiso   1.00
N479   N     0.50000   0.95240   0.25000   0.00000  Uiso   1.00
N480   N     0.50000   0.71427   0.25000   0.00000  Uiso   1.00
O481   O     0.43892   0.87154   0.25000   0.00000  Uiso   1.00
O482   O     0.56108   0.79513   0.25001   0.00000  Uiso   1.00
O483   O     0.56108   0.87154   0.25001   0.00000  Uiso   1.00
O484   O     0.43892   0.79513   0.25000   0.00000  Uiso   1.00
O485   O     0.49999   0.87156   0.18393   0.00000  Uiso   1.00
O486   O     0.50001   0.79511   0.31608   0.00000  Uiso   1.00
O487   O     0.50001   0.87156   0.31608   0.00000  Uiso   1.00
O488   O     0.49999   0.79511   0.18393   0.00000  Uiso   1.00
Zn489  Zn    0.50000   0.88437   0.25000   0.00000  Uiso   1.00
Zn490  Zn    0.50000   0.78229   0.25000   0.00000  Uiso   1.00
C491   C     0.57313   0.86991   0.38147   0.00000  Uiso   1.00
H492   H     0.56897   0.88918   0.35097   0.00000  Uiso   1.00
O493   O     0.60852   0.86029   0.39305   0.00000  Uiso   1.00
C494   C     0.42687   0.79678   0.11853   0.00000  Uiso   1.00
H495   H     0.43102   0.77750   0.14903   0.00000  Uiso   1.00
O496   O     0.39148   0.80641   0.10695   0.00000  Uiso   1.00
C497   C     0.75331   0.83336   0.24991   0.00000  Uiso   1.00
C498   C     0.91336   0.83331   0.25009   0.00000  Uiso   1.00
C499   C     0.76786   0.78988   0.02061   0.00000  Uiso   1.00
C500   C     0.89881   0.87679   0.47939   0.00000  Uiso   1.00
C501   C     0.68809   0.79440   0.23625   0.00000  Uiso   1.00
C502   C     0.97858   0.87226   0.26375   0.00000  Uiso   1.00
C503   C     0.97872   0.79433   0.23644   0.00000  Uiso   1.00
C504   C     0.68794   0.87233   0.26356   0.00000  Uiso   1.00
C505   C     0.95750   0.83328   0.25015   0.00000  Uiso   1.00
C506   C     0.70917   0.83339   0.24985   0.00000  Uiso   1.00
C507   C     0.86060   0.69064   0.27619   0.00000  Uiso   1.00
C508   C     0.80607   0.97603   0.22381   0.00000  Uiso   1.00
C509   C     0.80607   0.69065   0.22381   0.00000  Uiso   1.00
C510   C     0.86060   0.97602   0.27619   0.00000  Uiso   1.00
C511   C     0.83223   0.83329   0.16357   0.00000  Uiso   1.00
C512   C     0.83444   0.83338   0.33643   0.00000  Uiso   1.00
C513   C     0.86966   0.85316   0.40709   0.00000  Uiso   1.00
C514   C     0.79700   0.81351   0.09291   0.00000  Uiso   1.00
C515   C     0.83596   0.83349   0.38411   0.00000  Uiso   1.00
C516   C     0.83070   0.83317   0.11589   0.00000  Uiso   1.00
C517   C     0.80332   0.81230   0.40623   0.00000  Uiso   1.00
C518   C     0.86335   0.85437   0.09377   0.00000  Uiso   1.00
C519   C     0.80237   0.81162   0.45233   0.00000  Uiso   1.00
C520   C     0.86430   0.85505   0.04767   0.00000  Uiso   1.00
C521   C     0.83434   0.83313   0.47660   0.00000  Uiso   1.00
C522   C     0.83233   0.83354   0.02340   0.00000  Uiso   1.00
C523   C     0.86820   0.85424   0.45415   0.00000  Uiso   1.00
C524   C     0.79847   0.81244   0.04585   0.00000  Uiso   1.00
C525   C     0.76964   0.78990   0.47430   0.00000  Uiso   1.00
C526   C     0.89702   0.87677   0.02570   0.00000  Uiso   1.00
H527   H     0.77837   0.79661   0.38723   0.00000  Uiso   1.00
H528   H     0.88831   0.87005   0.11277   0.00000  Uiso   1.00
H529   H     0.74542   0.77271   0.45561   0.00000  Uiso   1.00
H530   H     0.92124   0.89396   0.04439   0.00000  Uiso   1.00
H531   H     0.74265   0.77141   0.03611   0.00000  Uiso   1.00
H532   H     0.92401   0.89527   0.46389   0.00000  Uiso   1.00
H533   H     0.70451   0.76430   0.22518   0.00000  Uiso   1.00
H534   H     0.96216   0.90236   0.27482   0.00000  Uiso   1.00
H535   H     0.96243   0.76418   0.22550   0.00000  Uiso   1.00
H536   H     0.70424   0.90248   0.27450   0.00000  Uiso   1.00
H537   H     0.88240   0.70880   0.29714   0.00000  Uiso   1.00
H538   H     0.78427   0.95787   0.20286   0.00000  Uiso   1.00
H539   H     0.78426   0.70881   0.20287   0.00000  Uiso   1.00
H540   H     0.88241   0.95785   0.29713   0.00000  Uiso   1.00
N541   N     0.83333   0.95240   0.25000   0.00000  Uiso   1.00
N542   N     0.83333   0.71427   0.25000   0.00000  Uiso   1.00
O543   O     0.77226   0.87154   0.25000   0.00000  Uiso   1.00
O544   O     0.89441   0.79513   0.25001   0.00000  Uiso   1.00
O545   O     0.89441   0.87154   0.25001   0.00000  Uiso   1.00
O546   O     0.77226   0.79513   0.25000   0.00000  Uiso   1.00
O547   O     0.83333   0.87156   0.18393   0.00000  Uiso   1.00
O548   O     0.83334   0.79511   0.31608   0.00000  Uiso   1.00
O549   O     0.83334   0.87156   0.31608   0.00000  Uiso   1.00
O550   O     0.83333   0.79511   0.18393   0.00000  Uiso   1.00
Zn551  Zn    0.83333   0.88437   0.25000   0.00000  Uiso   1.00
Zn552  Zn    0.83333   0.78229   0.25000   0.00000  Uiso   1.00
C553   C     0.90646   0.86991   0.38147   0.00000  Uiso   1.00
H554   H     0.90230   0.88918   0.35097   0.00000  Uiso   1.00
O555   O     0.94185   0.86029   0.39305   0.00000  Uiso   1.00
C556   C     0.76020   0.79678   0.11853   0.00000  Uiso   1.00
H557   H     0.76435   0.77750   0.14903   0.00000  Uiso   1.00
O558   O     0.72482   0.80641   0.10695   0.00000  Uiso   1.00
C559   C     0.08664   0.16669   0.74991   0.00000  Uiso   1.00
C560   C     0.24669   0.16664   0.75009   0.00000  Uiso   1.00
C561   C     0.10119   0.12321   0.52061   0.00000  Uiso   1.00
C562   C     0.23214   0.21013   0.97939   0.00000  Uiso   1.00
C563   C     0.02142   0.12774   0.73625   0.00000  Uiso   1.00
C564   C     0.31191   0.20560   0.76375   0.00000  Uiso   1.00
C565   C     0.31206   0.12767   0.73644   0.00000  Uiso   1.00
C566   C     0.02127   0.20567   0.76356   0.00000  Uiso   1.00
C567   C     0.29083   0.16661   0.75015   0.00000  Uiso   1.00
C568   C     0.04250   0.16672   0.74985   0.00000  Uiso   1.00
C569   C     0.19393   0.02397   0.77619   0.00000  Uiso   1.00
C570   C     0.13940   0.30936   0.72381   0.00000  Uiso   1.00
C571   C     0.13940   0.02398   0.72381   0.00000  Uiso   1.00
C572   C     0.19393   0.30935   0.77619   0.00000  Uiso   1.00
C573   C     0.16556   0.16662   0.66357   0.00000  Uiso   1.00
C574   C     0.16777   0.16671   0.83643   0.00000  Uiso   1.00
C575   C     0.20300   0.18650   0.90709   0.00000  Uiso   1.00
C576   C     0.13034   0.14684   0.59291   0.00000  Uiso   1.00
C577   C     0.16930   0.16683   0.88411   0.00000  Uiso   1.00
C578   C     0.16404   0.16651   0.61589   0.00000  Uiso   1.00
C579   C     0.13666   0.14563   0.90623   0.00000  Uiso   1.00
C580   C     0.19668   0.18770   0.59377   0.00000  Uiso   1.00
C581   C     0.13570   0.14495   0.95233   0.00000  Uiso   1.00
C582   C     0.19763   0.18838   0.54767   0.00000  Uiso   1.00
C583   C     0.16767   0.16646   0.97660   0.00000  Uiso   1.00
C584   C     0.16566   0.16687   0.52340   0.00000  Uiso   1.00
C585   C     0.20154   0.18757   0.95415   0.00000  Uiso   1.00
C586   C     0.13180   0.14577   0.54585   0.00000  Uiso   1.00
C587   C     0.10298   0.12324   0.97430   0.00000  Uiso   1.00
C588   C     0.23036   0.21010   0.52570   0.00000  Uiso   1.00
H589   H     0.11170   0.12995   0.88723   0.00000  Uiso   1.00
H590   H     0.22164   0.20338   0.61277   0.00000  Uiso   1.00
H591   H     0.07876   0.10605   0.95561   0.00000  Uiso   1.00
H592   H     0.25458   0.22729   0.54439   0.00000  Uiso   1.00
H593   H     0.07598   0.10474   0.53611   0.00000  Uiso   1.00
H594   H     0.25735   0.22860   0.96389   0.00000  Uiso   1.00
H595   H     0.03784   0.09764   0.72518   0.00000  Uiso   1.00
H596   H     0.29549   0.23570   0.77482   0.00000  Uiso   1.00
H597   H     0.29576   0.09752   0.72550   0.00000  Uiso   1.00
H598   H     0.03757   0.23582   0.77450   0.00000  Uiso   1.00
H599   H     0.21573   0.04213   0.79714   0.00000  Uiso   1.00
H600   H     0.11760   0.29120   0.70286   0.00000  Uiso   1.00
H601   H     0.11759   0.04215   0.70287   0.00000  Uiso   1.00
H602   H     0.21574   0.29119   0.79713   0.00000  Uiso   1.00
N603   N     0.16667   0.28573   0.75000   0.00000  Uiso   1.00
N604   N     0.16667   0.04760   0.75000   0.00000  Uiso   1.00
O605   O     0.10559   0.20487   0.75000   0.00000  Uiso   1.00
O606   O     0.22774   0.12846   0.75001   0.00000  Uiso   1.00
O607   O     0.22774   0.20487   0.75001   0.00000  Uiso   1.00
O608   O     0.10559   0.12846   0.75000   0.00000  Uiso   1.00
O609   O     0.16666   0.20489   0.68393   0.00000  Uiso   1.00
O610   O     0.16667   0.12844   0.81608   0.00000  Uiso   1.00
O611   O     0.16667   0.20489   0.81608   0.00000  Uiso   1.00
O612   O     0.16666   0.12844   0.68393   0.00000  Uiso   1.00
Zn613  Zn    0.16667   0.21771   0.75000   0.00000  Uiso   1.00
Zn614  Zn    0.16667   0.11563   0.75000   0.00000  Uiso   1.00
C615   C     0.23980   0.20324   0.88147   0.00000  Uiso   1.00
H616   H     0.23564   0.22251   0.85097   0.00000  Uiso   1.00
O617   O     0.27518   0.19362   0.89305   0.00000  Uiso   1.00
C618   C     0.09353   0.13011   0.61853   0.00000  Uiso   1.00
H619   H     0.09769   0.11083   0.64903   0.00000  Uiso   1.00
O620   O     0.05815   0.13975   0.60695   0.00000  Uiso   1.00
C621   C     0.41998   0.16669   0.74991   0.00000  Uiso   1.00
C622   C     0.58002   0.16664   0.75009   0.00000  Uiso   1.00
C623   C     0.43452   0.12321   0.52061   0.00000  Uiso   1.00
C624   C     0.56548   0.21013   0.97939   0.00000  Uiso   1.00
C625   C     0.35476   0.12774   0.73625   0.00000  Uiso   1.00
C626   C     0.64524   0.20560   0.76375   0.00000  Uiso   1.00
C627   C     0.64539   0.12767   0.73644   0.00000  Uiso   1.00
C628   C     0.35461   0.20567   0.76356   0.00000  Uiso   1.00
C629   C     0.62416   0.16661   0.75015   0.00000  Uiso   1.00
C630   C     0.37583   0.16672   0.74985   0.00000  Uiso   1.00
C631   C     0.52727   0.02397   0.77619   0.00000  Uiso   1.00
C632   C     0.47273   0.30936   0.72381   0.00000  Uiso   1.00
C633   C     0.47273   0.02398   0.72381   0.00000  Uiso   1.00
C634   C     0.52727   0.30935   0.77619   0.00000  Uiso   1.00
C635   C     0.49889   0.16662   0.66357   0.00000  Uiso   1.00
C636   C     0.50111   0.16671   0.83643   0.00000  Uiso   1.00
C637   C     0.53633   0.18650   0.90709   0.00000  Uiso   1.00
C638   C     0.46367   0.14684   0.59291   0.00000  Uiso   1.00
C639   C     0.50263   0.16683   0.88411   0.00000  Uiso   1.00
C640   C     0.49737   0.16651   0.61589   0.00000  Uiso   1.00
C641   C     0.46999   0.14563   0.90623   0.00000  Uiso   1.00
C642   C     0.53002   0.18770   0.59377   0.00000  Uiso   1.00
C643   C     0.46904   0.14495   0.95233   0.00000  Uiso   1.00
C644   C     0.53097   0.18838   0.54767   0.00000  Uiso   1.00
C645   C     0.50101   0.16646   0.97660   0.00000  Uiso   1.00
C646   C     0.49900   0.16687   0.52340   0.00000  Uiso   1.00
C647   C     0.53487   0.18757   0.95415   0.00000  Uiso   1.00
C648   C     0.46513   0.14577   0.54585   0.00000  Uiso   1.00
C649   C     0.43631   0.12324   0.97430   0.00000  Uiso   1.00
C650   C     0.56369   0.21010   0.52570   0.00000  Uiso   1.00
H651   H     0.44503   0.12995   0.88723   0.00000  Uiso   1.00
H652   H     0.55497   0.20338   0.61277   0.00000  Uiso   1.00
H653   H     0.41209   0.10605   0.95561   0.00000  Uiso   1.00
H654   H     0.58791   0.22729   0.54439   0.00000  Uiso   1.00
H655   H     0.40932   0.10474   0.53611   0.00000  Uiso   1.00
H656   H     0.59068   0.22860   0.96389   0.00000  Uiso   1.00
H657   H     0.37117   0.09764   0.72518   0.00000  Uiso   1.00
H658   H     0.62883   0.23570   0.77482   0.00000  Uiso   1.00
H659   H     0.62909   0.09752   0.72550   0.00000  Uiso   1.00
H660   H     0.37091   0.23582   0.77450   0.00000  Uiso   1.00
H661   H     0.54906   0.04213   0.79714   0.00000  Uiso   1.00
H662   H     0.45094   0.29120   0.70286   0.00000  Uiso   1.00
H663   H     0.45092   0.04215   0.70287   0.00000  Uiso   1.00
H664   H     0.54908   0.29119   0.79713   0.00000  Uiso   1.00
N665   N     0.50000   0.28573   0.75000   0.00000  Uiso   1.00
N666   N     0.50000   0.04760   0.75000   0.00000  Uiso   1.00
O667   O     0.43892   0.20487   0.75000   0.00000  Uiso   1.00
O668   O     0.56108   0.12846   0.75001   0.00000  Uiso   1.00
O669   O     0.56108   0.20487   0.75001   0.00000  Uiso   1.00
O670   O     0.43892   0.12846   0.75000   0.00000  Uiso   1.00
O671   O     0.49999   0.20489   0.68393   0.00000  Uiso   1.00
O672   O     0.50001   0.12844   0.81608   0.00000  Uiso   1.00
O673   O     0.50001   0.20489   0.81608   0.00000  Uiso   1.00
O674   O     0.49999   0.12844   0.68393   0.00000  Uiso   1.00
Zn675  Zn    0.50000   0.21771   0.75000   0.00000  Uiso   1.00
Zn676  Zn    0.50000   0.11563   0.75000   0.00000  Uiso   1.00
C677   C     0.57313   0.20324   0.88147   0.00000  Uiso   1.00
H678   H     0.56897   0.22251   0.85097   0.00000  Uiso   1.00
O679   O     0.60852   0.19362   0.89305   0.00000  Uiso   1.00
C680   C     0.42687   0.13011   0.61853   0.00000  Uiso   1.00
H681   H     0.43102   0.11083   0.64903   0.00000  Uiso   1.00
O682   O     0.39148   0.13975   0.60695   0.00000  Uiso   1.00
C683   C     0.75331   0.16669   0.74991   0.00000  Uiso   1.00
C684   C     0.91336   0.16664   0.75009   0.00000  Uiso   1.00
C685   C     0.76786   0.12321   0.52061   0.00000  Uiso   1.00
C686   C     0.89881   0.21013   0.97939   0.00000  Uiso   1.00
C687   C     0.68809   0.12774   0.73625   0.00000  Uiso   1.00
C688   C     0.97858   0.20560   0.76375   0.00000  Uiso   1.00
C689   C     0.97872   0.12767   0.73644   0.00000  Uiso   1.00
C690   C     0.68794   0.20567   0.76356   0.00000  Uiso   1.00
C691   C     0.95750   0.16661   0.75015   0.00000  Uiso   1.00
C692   C     0.70917   0.16672   0.74985   0.00000  Uiso   1.00
C693   C     0.86060   0.02397   0.77619   0.00000  Uiso   1.00
C694   C     0.80607   0.30936   0.72381   0.00000  Uiso   1.00
C695   C     0.80607   0.02398   0.72381   0.00000  Uiso   1.00
C696   C     0.86060   0.30935   0.77619   0.00000  Uiso   1.00
C697   C     0.83223   0.16662   0.66357   0.00000  Uiso   1.00
C698   C     0.83444   0.16671   0.83643   0.00000  Uiso   1.00
C699   C     0.86966   0.18650   0.90709   0.00000  Uiso   1.00
C700   C     0.79700   0.14684   0.59291   0.00000  Uiso   1.00
C701   C     0.83596   0.16683   0.88411   0.00000  Uiso   1.00
C702   C     0.83070   0.16651   0.61589   0.00000  Uiso   1.00
C703   C     0.80332   0.14563   0.90623   0.00000  Uiso   1.00
C704   C     0.86335   0.18770   0.59377   0.00000  Uiso   1.00
C705   C     0.80237   0.14495   0.95233   0.00000  Uiso   1.00
C706   C     0.86430   0.18838   0.54767   0.00000  Uiso   1.00
C707   C     0.83434   0.16646   0.97660   0.00000  Uiso   1.00
C708   C     0.83233   0.16687   0.52340   0.00000  Uiso   1.00
C709   C     0.86820   0.18757   0.95415   0.00000  Uiso   1.00
C710   C     0.79847   0.14577   0.54585   0.00000  Uiso   1.00
C711   C     0.76964   0.12324   0.97430   0.00000  Uiso   1.00
C712   C     0.89702   0.21010   0.52570   0.00000  Uiso   1.00
H713   H     0.77837   0.12995   0.88723   0.00000  Uiso   1.00
H714   H     0.88831   0.20338   0.61277   0.00000  Uiso   1.00
H715   H     0.74542   0.10605   0.95561   0.00000  Uiso   1.00
H716   H     0.92124   0.22729   0.54439   0.00000  Uiso   1.00
H717   H     0.74265   0.10474   0.53611   0.00000  Uiso   1.00
H718   H     0.92401   0.22860   0.96389   0.00000  Uiso   1.00
H719   H     0.70451   0.09764   0.72518   0.00000  Uiso   1.00
H720   H     0.96216   0.23570   0.77482   0.00000  Uiso   1.00
H721   H     0.96243   0.09752   0.72550   0.00000  Uiso   1.00
H722   H     0.70424   0.23582   0.77450   0.00000  Uiso   1.00
H723   H     0.88240   0.04213   0.79714   0.00000  Uiso   1.00
H724   H     0.78427   0.29120   0.70286   0.00000  Uiso   1.00
H725   H     0.78426   0.04215   0.70287   0.00000  Uiso   1.00
H726   H     0.88241   0.29119   0.79713   0.00000  Uiso   1.00
N727   N     0.83333   0.28573   0.75000   0.00000  Uiso   1.00
N728   N     0.83333   0.04760   0.75000   0.00000  Uiso   1.00
O729   O     0.77226   0.20487   0.75000   0.00000  Uiso   1.00
O730   O     0.89441   0.12846   0.75001   0.00000  Uiso   1.00
O731   O     0.89441   0.20487   0.75001   0.00000  Uiso   1.00
O732   O     0.77226   0.12846   0.75000   0.00000  Uiso   1.00
O733   O     0.83333   0.20489   0.68393   0.00000  Uiso   1.00
O734   O     0.83334   0.12844   0.81608   0.00000  Uiso   1.00
O735   O     0.83334   0.20489   0.81608   0.00000  Uiso   1.00
O736   O     0.83333   0.12844   0.68393   0.00000  Uiso   1.00
Zn737  Zn    0.83333   0.21771   0.75000   0.00000  Uiso   1.00
Zn738  Zn    0.83333   0.11563   0.75000   0.00000  Uiso   1.00
C739   C     0.90646   0.20324   0.88147   0.00000  Uiso   1.00
H740   H     0.90230   0.22251   0.85097   0.00000  Uiso   1.00
O741   O     0.94185   0.19362   0.89305   0.00000  Uiso   1.00
C742   C     0.76020   0.13011   0.61853   0.00000  Uiso   1.00
H743   H     0.76435   0.11083   0.64903   0.00000  Uiso   1.00
O744   O     0.72482   0.13975   0.60695   0.00000  Uiso   1.00
C745   C     0.08664   0.50003   0.74991   0.00000  Uiso   1.00
C746   C     0.24669   0.49998   0.75009   0.00000  Uiso   1.00
C747   C     0.10119   0.45655   0.52061   0.00000  Uiso   1.00
C748   C     0.23214   0.54346   0.97939   0.00000  Uiso   1.00
C749   C     0.02142   0.46107   0.73625   0.00000  Uiso   1.00
C750   C     0.31191   0.53893   0.76375   0.00000  Uiso   1.00
C751   C     0.31206   0.46100   0.73644   0.00000  Uiso   1.00
C752   C     0.02127   0.53900   0.76356   0.00000  Uiso   1.00
C753   C     0.29083   0.49994   0.75015   0.00000  Uiso   1.00
C754   C     0.04250   0.50006   0.74985   0.00000  Uiso   1.00
C755   C     0.19393   0.35731   0.77619   0.00000  Uiso   1.00
C756   C     0.13940   0.64270   0.72381   0.00000  Uiso   1.00
C757   C     0.13940   0.35732   0.72381   0.00000  Uiso   1.00
C758   C     0.19393   0.64268   0.77619   0.00000  Uiso   1.00
C759   C     0.16556   0.49996   0.66357   0.00000  Uiso   1.00
C760   C     0.16777   0.50004   0.83643   0.00000  Uiso   1.00
C761   C     0.20300   0.51983   0.90709   0.00000  Uiso   1.00
C762   C     0.13034   0.48017   0.59291   0.00000  Uiso   1.00
C763   C     0.16930   0.50016   0.88411   0.00000  Uiso   1.00
C764   C     0.16404   0.49984   0.61589   0.00000  Uiso   1.00
C765   C     0.13666   0.47896   0.90623   0.00000  Uiso   1.00
C766   C     0.19668   0.52103   0.59377   0.00000  Uiso   1.00
C767   C     0.13570   0.47828   0.95233   0.00000  Uiso   1.00
C768   C     0.19763   0.52172   0.54767   0.00000  Uiso   1.00
C769   C     0.16767   0.49979   0.97660   0.00000  Uiso   1.00
C770   C     0.16566   0.50021   0.52340   0.00000  Uiso   1.00
C771   C     0.20154   0.52090   0.95415   0.00000  Uiso   1.00
C772   C     0.13180   0.47910   0.54585   0.00000  Uiso   1.00
C773   C     0.10298   0.45657   0.97430   0.00000  Uiso   1.00
C774   C     0.23036   0.54343   0.52570   0.00000  Uiso   1.00
H775   H     0.11170   0.46328   0.88723   0.00000  Uiso   1.00
H776   H     0.22164   0.53672   0.61277   0.00000  Uiso   1.00
H777   H     0.07876   0.43938   0.95561   0.00000  Uiso   1.00
H778   H     0.25458   0.56062   0.54439   0.00000  Uiso   1.00
H779   H     0.07598   0.43808   0.53611   0.00000  Uiso   1.00
H780   H     0.25735   0.56193   0.96389   0.00000  Uiso   1.00
H781   H     0.03784   0.43097   0.72518   0.00000  Uiso   1.00
H782   H     0.29549   0.56903   0.77482   0.00000  Uiso   1.00
H783   H     0.29576   0.43085   0.72550   0.00000  Uiso   1.00
H784   H     0.03757   0.56915   0.77450   0.00000  Uiso   1.00
H785   H     0.21573   0.37546   0.79714   0.00000  Uiso   1.00
H786   H     0.11760   0.62454   0.70286   0.00000  Uiso   1.00
H787   H     0.11759   0.37548   0.70287   0.00000  Uiso   1.00
H788   H     0.21574   0.62452   0.79713   0.00000  Uiso   1.00
N789   N     0.16667   0.61907   0.75000   0.00000  Uiso   1.00
N790   N     0.16667   0.38093   0.75000   0.00000  Uiso   1.00
O791   O     0.10559   0.53821   0.75000   0.00000  Uiso   1.00
O792   O     0.22774   0.46179   0.75001   0.00000  Uiso   1.00
O793   O     0.22774   0.53821   0.75001   0.00000  Uiso   1.00
O794   O     0.10559   0.46179   0.75000   0.00000  Uiso   1.00
O795   O     0.16666   0.53823   0.68393   0.00000  Uiso   1.00
O796   O     0.16667   0.46177   0.81608   0.00000  Uiso   1.00
O797   O     0.16667   0.53823   0.81608   0.00000  Uiso   1.00
O798   O     0.16666   0.46177   0.68393   0.00000  Uiso   1.00
Zn799  Zn    0.16667   0.55104   0.75000   0.00000  Uiso   1.00
Zn800  Zn    0.16667   0.44896   0.75000   0.00000  Uiso   1.00
C801   C     0.23980   0.53657   0.88147   0.00000  Uiso   1.00
H802   H     0.23564   0.55585   0.85097   0.00000  Uiso   1.00
O803   O     0.27518   0.52695   0.89305   0.00000  Uiso   1.00
C804   C     0.09353   0.46344   0.61853   0.00000  Uiso   1.00
H805   H     0.09769   0.44417   0.64903   0.00000  Uiso   1.00
O806   O     0.05815   0.47308   0.60695   0.00000  Uiso   1.00
C807   C     0.41998   0.50003   0.74991   0.00000  Uiso   1.00
C808   C     0.58002   0.49998   0.75009   0.00000  Uiso   1.00
C809   C     0.43452   0.45655   0.52061   0.00000  Uiso   1.00
C810   C     0.56548   0.54346   0.97939   0.00000  Uiso   1.00
C811   C     0.35476   0.46107   0.73625   0.00000  Uiso   1.00
C812   C     0.64524   0.53893   0.76375   0.00000  Uiso   1.00
C813   C     0.64539   0.46100   0.73644   0.00000  Uiso   1.00
C814   C     0.35461   0.53900   0.76356   0.00000  Uiso   1.00
C815   C     0.62416   0.49994   0.75015   0.00000  Uiso   1.00
C816   C     0.37583   0.50006   0.74985   0.00000  Uiso   1.00
C817   C     0.52727   0.35731   0.77619   0.00000  Uiso   1.00
C818   C     0.47273   0.64270   0.72381   0.00000  Uiso   1.00
C819   C     0.47273   0.35732   0.72381   0.00000  Uiso   1.00
C820   C     0.52727   0.64268   0.77619   0.00000  Uiso   1.00
C821   C     0.49889   0.49996   0.66357   0.00000  Uiso   1.00
C822   C     0.50111   0.50004   0.83643   0.00000  Uiso   1.00
C823   C     0.53633   0.51983   0.90709   0.00000  Uiso   1.00
C824   C     0.46367   0.48017   0.59291   0.00000  Uiso   1.00
C825   C     0.50263   0.50016   0.88411   0.00000  Uiso   1.00
C826   C     0.49737   0.49984   0.61589   0.00000  Uiso   1.00
C827   C     0.46999   0.47896   0.90623   0.00000  Uiso   1.00
C828   C     0.53002   0.52103   0.59377   0.00000  Uiso   1.00
C829   C     0.46904   0.47828   0.95233   0.00000  Uiso   1.00
C830   C     0.53097   0.52172   0.54767   0.00000  Uiso   1.00
C831   C     0.50101   0.49979   0.97660   0.00000  Uiso   1.00
C832   C     0.49900   0.50021   0.52340   0.00000  Uiso   1.00
C833   C     0.53487   0.52090   0.95415   0.00000  Uiso   1.00
C834   C     0.46513   0.47910   0.54585   0.00000  Uiso   1.00
C835   C     0.43631   0.45657   0.97430   0.00000  Uiso   1.00
C836   C     0.56369   0.54343   0.52570   0.00000  Uiso   1.00
H837   H     0.44503   0.46328   0.88723   0.00000  Uiso   1.00
H838   H     0.55497   0.53672   0.61277   0.00000  Uiso   1.00
H839   H     0.41209   0.43938   0.95561   0.00000  Uiso   1.00
H840   H     0.58791   0.56062   0.54439   0.00000  Uiso   1.00
H841   H     0.40932   0.43808   0.53611   0.00000  Uiso   1.00
H842   H     0.59068   0.56193   0.96389   0.00000  Uiso   1.00
H843   H     0.37117   0.43097   0.72518   0.00000  Uiso   1.00
H844   H     0.62883   0.56903   0.77482   0.00000  Uiso   1.00
H845   H     0.62909   0.43085   0.72550   0.00000  Uiso   1.00
H846   H     0.37091   0.56915   0.77450   0.00000  Uiso   1.00
H847   H     0.54906   0.37546   0.79714   0.00000  Uiso   1.00
H848   H     0.45094   0.62454   0.70286   0.00000  Uiso   1.00
H849   H     0.45092   0.37548   0.70287   0.00000  Uiso   1.00
H850   H     0.54908   0.62452   0.79713   0.00000  Uiso   1.00
N851   N     0.50000   0.61907   0.75000   0.00000  Uiso   1.00
N852   N     0.50000   0.38093   0.75000   0.00000  Uiso   1.00
O853   O     0.43892   0.53821   0.75000   0.00000  Uiso   1.00
O854   O     0.56108   0.46179   0.75001   0.00000  Uiso   1.00
O855   O     0.56108   0.53821   0.75001   0.00000  Uiso   1.00
O856   O     0.43892   0.46179   0.75000   0.00000  Uiso   1.00
O857   O     0.49999   0.53823   0.68393   0.00000  Uiso   1.00
O858   O     0.50001   0.46177   0.81608   0.00000  Uiso   1.00
O859   O     0.50001   0.53823   0.81608   0.00000  Uiso   1.00
O860   O     0.49999   0.46177   0.68393   0.00000  Uiso   1.00
Zn861  Zn    0.50000   0.55104   0.75000   0.00000  Uiso   1.00
Zn862  Zn    0.50000   0.44896   0.75000   0.00000  Uiso   1.00
C863   C     0.57313   0.53657   0.88147   0.00000  Uiso   1.00
H864   H     0.56897   0.55585   0.85097   0.00000  Uiso   1.00
O865   O     0.60852   0.52695   0.89305   0.00000  Uiso   1.00
C866   C     0.42687   0.46344   0.61853   0.00000  Uiso   1.00
H867   H     0.43102   0.44417   0.64903   0.00000  Uiso   1.00
O868   O     0.39148   0.47308   0.60695   0.00000  Uiso   1.00
C869   C     0.75331   0.50003   0.74991   0.00000  Uiso   1.00
C870   C     0.91336   0.49998   0.75009   0.00000  Uiso   1.00
C871   C     0.76786   0.45655   0.52061   0.00000  Uiso   1.00
C872   C     0.89881   0.54346   0.97939   0.00000  Uiso   1.00
C873   C     0.68809   0.46107   0.73625   0.00000  Uiso   1.00
C874   C     0.97858   0.53893   0.76375   0.00000  Uiso   1.00
C875   C     0.97872   0.46100   0.73644   0.00000  Uiso   1.00
C876   C     0.68794   0.53900   0.76356   0.00000  Uiso   1.00
C877   C     0.95750   0.49994   0.75015   0.00000  Uiso   1.00
C878   C     0.70917   0.50006   0.74985   0.00000  Uiso   1.00
C879   C     0.86060   0.35731   0.77619   0.00000  Uiso   1.00
C880   C     0.80607   0.64270   0.72381   0.00000  Uiso   1.00
C881   C     0.80607   0.35732   0.72381   0.00000  Uiso   1.00
C882   C     0.86060   0.64268   0.77619   0.00000  Uiso   1.00
C883   C     0.83223   0.49996   0.66357   0.00000  Uiso   1.00
C884   C     0.83444   0.50004   0.83643   0.00000  Uiso   1.00
C885   C     0.86966   0.51983   0.90709   0.00000  Uiso   1.00
C886   C     0.79700   0.48017   0.59291   0.00000  Uiso   1.00
C887   C     0.83596   0.50016   0.88411   0.00000  Uiso   1.00
C888   C     0.83070   0.49984   0.61589   0.00000  Uiso   1.00
C889   C     0.80332   0.47896   0.90623   0.00000  Uiso   1.00
C890   C     0.86335   0.52103   0.59377   0.00000  Uiso   1.00
C891   C     0.80237   0.47828   0.95233   0.00000  Uiso   1.00
C892   C     0.86430   0.52172   0.54767   0.00000  Uiso   1.00
C893   C     0.83434   0.49979   0.97660   0.00000  Uiso   1.00
C894   C     0.83233   0.50021   0.52340   0.00000  Uiso   1.00
C895   C     0.86820   0.52090   0.95415   0.00000  Uiso   1.00
C896   C     0.79847   0.47910   0.54585   0.00000  Uiso   1.00
C897   C     0.76964   0.45657   0.97430   0.00000  Uiso   1.00
C898   C     0.89702   0.54343   0.52570   0.00000  Uiso   1.00
H899   H     0.77837   0.46328   0.88723   0.00000  Uiso   1.00
H900   H     0.88831   0.53672   0.61277   0.00000  Uiso   1.00
H901   H     0.74542   0.43938   0.95561   0.00000  Uiso   1.00
H902   H     0.92124   0.56062   0.54439   0.00000  Uiso   1.00
H903   H     0.74265   0.43808   0.53611   0.00000  Uiso   1.00
H904   H     0.92401   0.56193   0.96389   0.00000  Uiso   1.00
H905   H     0.70451   0.43097   0.72518   0.00000  Uiso   1.00
H906   H     0.96216   0.56903   0.77482   0.00000  Uiso   1.00
H907   H     0.96243   0.43085   0.72550   0.00000  Uiso   1.00
H908   H     0.70424   0.56915   0.77450   0.00000  Uiso   1.00
H909   H     0.88240   0.37546   0.79714   0.00000  Uiso   1.00
H910   H     0.78427   0.62454   0.70286   0.00000  Uiso   1.00
H911   H     0.78426   0.37548   0.70287   0.00000  Uiso   1.00
H912   H     0.88241   0.62452   0.79713   0.00000  Uiso   1.00
N913   N     0.83333   0.61907   0.75000   0.00000  Uiso   1.00
N914   N     0.83333   0.38093   0.75000   0.00000  Uiso   1.00
O915   O     0.77226   0.53821   0.75000   0.00000  Uiso   1.00
O916   O     0.89441   0.46179   0.75001   0.00000  Uiso   1.00
O917   O     0.89441   0.53821   0.75001   0.00000  Uiso   1.00
O918   O     0.77226   0.46179   0.75000   0.00000  Uiso   1.00
O919   O     0.83333   0.53823   0.68393   0.00000  Uiso   1.00
O920   O     0.83334   0.46177   0.81608   0.00000  Uiso   1.00
O921   O     0.83334   0.53823   0.81608   0.00000  Uiso   1.00
O922   O     0.83333   0.46177   0.68393   0.00000  Uiso   1.00
Zn923  Zn    0.83333   0.55104   0.75000   0.00000  Uiso   1.00
Zn924  Zn    0.83333   0.44896   0.75000   0.00000  Uiso   1.00
C925   C     0.90646   0.53657   0.88147   0.00000  Uiso   1.00
H926   H     0.90230   0.55585   0.85097   0.00000  Uiso   1.00
O927   O     0.94185   0.52695   0.89305   0.00000  Uiso   1.00
C928   C     0.76020   0.46344   0.61853   0.00000  Uiso   1.00
H929   H     0.76435   0.44417   0.64903   0.00000  Uiso   1.00
O930   O     0.72482   0.47308   0.60695   0.00000  Uiso   1.00
C931   C     0.08664   0.83336   0.74991   0.00000  Uiso   1.00
C932   C     0.24669   0.83331   0.75009   0.00000  Uiso   1.00
C933   C     0.10119   0.78988   0.52061   0.00000  Uiso   1.00
C934   C     0.23214   0.87679   0.97939   0.00000  Uiso   1.00
C935   C     0.02142   0.79440   0.73625   0.00000  Uiso   1.00
C936   C     0.31191   0.87226   0.76375   0.00000  Uiso   1.00
C937   C     0.31206   0.79433   0.73644   0.00000  Uiso   1.00
C938   C     0.02127   0.87233   0.76356   0.00000  Uiso   1.00
C939   C     0.29083   0.83328   0.75015   0.00000  Uiso   1.00
C940   C     0.04250   0.83339   0.74985   0.00000  Uiso   1.00
C941   C     0.19393   0.69064   0.77619   0.00000  Uiso   1.00
C942   C     0.13940   0.97603   0.72381   0.00000  Uiso   1.00
C943   C     0.13940   0.69065   0.72381   0.00000  Uiso   1.00
C944   C     0.19393   0.97602   0.77619   0.00000  Uiso   1.00
C945   C     0.16556   0.83329   0.66357   0.00000  Uiso   1.00
C946   C     0.16777   0.83338   0.83643   0.00000  Uiso   1.00
C947   C     0.20300   0.85316   0.90709   0.00000  Uiso   1.00
C948   C     0.13034   0.81351   0.59291   0.00000  Uiso   1.00
C949   C     0.16930   0.83349   0.88411   0.00000  Uiso   1.00
C950   C     0.16404   0.83317   0.61589   0.00000  Uiso   1.00
C951   C     0.13666   0.81230   0.90623   0.00000  Uiso   1.00
C952   C     0.19668   0.85437   0.59377   0.00000  Uiso   1.00
C953   C     0.13570   0.81162   0.95233   0.00000  Uiso   1.00
C954   C     0.19763   0.85505   0.54767   0.00000  Uiso   1.00
C955   C     0.16767   0.83313   0.97660   0.00000  Uiso   1.00
C956   C     0.16566   0.83354   0.52340   0.00000  Uiso   1.00
C957   C     0.20154   0.85424   0.95415   0.00000  Uiso   1.00
C958   C     0.13180   0.81244   0.54585   0.00000  Uiso   1.00
C959   C     0.10298   0.78990   0.97430   0.00000  Uiso   1.00
C960   C     0.23036   0.87677   0.52570   0.00000  Uiso   1.00
H961   H     0.11170   0.79661   0.88723   0.00000  Uiso   1.00
H962   H     0.22164   0.87005   0.61277   0.00000  Uiso   1.00
H963   H     0.07876   0.77271   0.95561   0.00000  Uiso   1.00
H964   H     0.25458   0.89396   0.54439   0.00000  Uiso   1.00
H965   H     0.07598   0.77141   0.53611   0.00000  Uiso   1.00
H966   H     0.25735   0.89527   0.96389   0.00000  Uiso   1.00
H967   H     0.03784   0.76430   0.72518   0.00000  Uiso   1.00
H968   H     0.29549   0.90236   0.77482   0.00000  Uiso   1.00
H969   H     0.29576   0.76418   0.72550   0.00000  Uiso   1.00
H970   H     0.03757   0.90248   0.77450   0.00000  Uiso   1.00
H971   H     0.21573   0.70880   0.79714   0.00000  Uiso   1.00
H972   H     0.11760   0.95787   0.70286   0.00000  Uiso   1.00
H973   H     0.11759   0.70881   0.70287   0.00000  Uiso   1.00
H974   H     0.21574   0.95785   0.79713   0.00000  Uiso   1.00
N975   N     0.16667   0.95240   0.75000   0.00000  Uiso   1.00
N976   N     0.16667   0.71427   0.75000   0.00000  Uiso   1.00
O977   O     0.10559   0.87154   0.75000   0.00000  Uiso   1.00
O978   O     0.22774   0.79513   0.75001   0.00000  Uiso   1.00
O979   O     0.22774   0.87154   0.75001   0.00000  Uiso   1.00
O980   O     0.10559   0.79513   0.75000   0.00000  Uiso   1.00
O981   O     0.16666   0.87156   0.68393   0.00000  Uiso   1.00
O982   O     0.16667   0.79511   0.81608   0.00000  Uiso   1.00
O983   O     0.16667   0.87156   0.81608   0.00000  Uiso   1.00
O984   O     0.16666   0.79511   0.68393   0.00000  Uiso   1.00
Zn985  Zn    0.16667   0.88437   0.75000   0.00000  Uiso   1.00
Zn986  Zn    0.16667   0.78229   0.75000   0.00000  Uiso   1.00
C987   C     0.23980   0.86991   0.88147   0.00000  Uiso   1.00
H988   H     0.23564   0.88918   0.85097   0.00000  Uiso   1.00
O989   O     0.27518   0.86029   0.89305   0.00000  Uiso   1.00
C990   C     0.09353   0.79678   0.61853   0.00000  Uiso   1.00
H991   H     0.09769   0.77750   0.64903   0.00000  Uiso   1.00
O992   O     0.05815   0.80641   0.60695   0.00000  Uiso   1.00
C993   C     0.41998   0.83336   0.74991   0.00000  Uiso   1.00
C994   C     0.58002   0.83331   0.75009   0.00000  Uiso   1.00
C995   C     0.43452   0.78988   0.52061   0.00000  Uiso   1.00
C996   C     0.56548   0.87679   0.97939   0.00000  Uiso   1.00
C997   C     0.35476   0.79440   0.73625   0.00000  Uiso   1.00
C998   C     0.64524   0.87226   0.76375   0.00000  Uiso   1.00
C999   C     0.64539   0.79433   0.73644   0.00000  Uiso   1.00
C1000  C     0.35461   0.87233   0.76356   0.00000  Uiso   1.00
C1001  C     0.62416   0.83328   0.75015   0.00000  Uiso   1.00
C1002  C     0.37583   0.83339   0.74985   0.00000  Uiso   1.00
C1003  C     0.52727   0.69064   0.77619   0.00000  Uiso   1.00
C1004  C     0.47273   0.97603   0.72381   0.00000  Uiso   1.00
C1005  C     0.47273   0.69065   0.72381   0.00000  Uiso   1.00
C1006  C     0.52727   0.97602   0.77619   0.00000  Uiso   1.00
C1007  C     0.49889   0.83329   0.66357   0.00000  Uiso   1.00
C1008  C     0.50111   0.83338   0.83643   0.00000  Uiso   1.00
C1009  C     0.53633   0.85316   0.90709   0.00000  Uiso   1.00
C1010  C     0.46367   0.81351   0.59291   0.00000  Uiso   1.00
C1011  C     0.50263   0.83349   0.88411   0.00000  Uiso   1.00
C1012  C     0.49737   0.83317   0.61589   0.00000  Uiso   1.00
C1013  C     0.46999   0.81230   0.90623   0.00000  Uiso   1.00
C1014  C     0.53002   0.85437   0.59377   0.00000  Uiso   1.00
C1015  C     0.46904   0.81162   0.95233   0.00000  Uiso   1.00
C1016  C     0.53097   0.85505   0.54767   0.00000  Uiso   1.00
C1017  C     0.50101   0.83313   0.97660   0.00000  Uiso   1.00
C1018  C     0.49900   0.83354   0.52340   0.00000  Uiso   1.00
C1019  C     0.53487   0.85424   0.95415   0.00000  Uiso   1.00
C1020  C     0.46513   0.81244   0.54585   0.00000  Uiso   1.00
C1021  C     0.43631   0.78990   0.97430   0.00000  Uiso   1.00
C1022  C     0.56369   0.87677   0.52570   0.00000  Uiso   1.00
H1023  H     0.44503   0.79661   0.88723   0.00000  Uiso   1.00
H1024  H     0.55497   0.87005   0.61277   0.00000  Uiso   1.00
H1025  H     0.41209   0.77271   0.95561   0.00000  Uiso   1.00
H1026  H     0.58791   0.89396   0.54439   0.00000  Uiso   1.00
H1027  H     0.40932   0.77141   0.53611   0.00000  Uiso   1.00
H1028  H     0.59068   0.89527   0.96389   0.00000  Uiso   1.00
H1029  H     0.37117   0.76430   0.72518   0.00000  Uiso   1.00
H1030  H     0.62883   0.90236   0.77482   0.00000  Uiso   1.00
H1031  H     0.62909   0.76418   0.72550   0.00000  Uiso   1.00
H1032  H     0.37091   0.90248   0.77450   0.00000  Uiso   1.00
H1033  H     0.54906   0.70880   0.79714   0.00000  Uiso   1.00
H1034  H     0.45094   0.95787   0.70286   0.00000  Uiso   1.00
H1035  H     0.45092   0.70881   0.70287   0.00000  Uiso   1.00
H1036  H     0.54908   0.95785   0.79713   0.00000  Uiso   1.00
N1037  N     0.50000   0.95240   0.75000   0.00000  Uiso   1.00
N1038  N     0.50000   0.71427   0.75000   0.00000  Uiso   1.00
O1039  O     0.43892   0.87154   0.75000   0.00000  Uiso   1.00
O1040  O     0.56108   0.79513   0.75001   0.00000  Uiso   1.00
O1041  O     0.56108   0.87154   0.75001   0.00000  Uiso   1.00
O1042  O     0.43892   0.79513   0.75000   0.00000  Uiso   1.00
O1043  O     0.49999   0.87156   0.68393   0.00000  Uiso   1.00
O1044  O     0.50001   0.79511   0.81608   0.00000  Uiso   1.00
O1045  O     0.50001   0.87156   0.81608   0.00000  Uiso   1.00
O1046  O     0.49999   0.79511   0.68393   0.00000  Uiso   1.00
Zn1047 Zn    0.50000   0.88437   0.75000   0.00000  Uiso   1.00
Zn1048 Zn    0.50000   0.78229   0.75000   0.00000  Uiso   1.00
C1049  C     0.57313   0.86991   0.88147   0.00000  Uiso   1.00
H1050  H     0.56897   0.88918   0.85097   0.00000  Uiso   1.00
O1051  O     0.60852   0.86029   0.89305   0.00000  Uiso   1.00
C1052  C     0.42687   0.79678   0.61853   0.00000  Uiso   1.00
H1053  H     0.43102   0.77750   0.64903   0.00000  Uiso   1.00
O1054  O     0.39148   0.80641   0.60695   0.00000  Uiso   1.00
C1055  C     0.75331   0.83336   0.74991   0.00000  Uiso   1.00
C1056  C     0.91336   0.83331   0.75009   0.00000  Uiso   1.00
C1057  C     0.76786   0.78988   0.52061   0.00000  Uiso   1.00
C1058  C     0.89881   0.87679   0.97939   0.00000  Uiso   1.00
C1059  C     0.68809   0.79440   0.73625   0.00000  Uiso   1.00
C1060  C     0.97858   0.87226   0.76375   0.00000  Uiso   1.00
C1061  C     0.97872   0.79433   0.73644   0.00000  Uiso   1.00
C1062  C     0.68794   0.87233   0.76356   0.00000  Uiso   1.00
C1063  C     0.95750   0.83328   0.75015   0.00000  Uiso   1.00
C1064  C     0.70917   0.83339   0.74985   0.00000  Uiso   1.00
C1065  C     0.86060   0.69064   0.77619   0.00000  Uiso   1.00
C1066  C     0.80607   0.97603   0.72381   0.00000  Uiso   1.00
C1067  C     0.80607   0.69065   0.72381   0.00000  Uiso   1.00
C1068  C     0.86060   0.97602   0.77619   0.00000  Uiso   1.00
C1069  C     0.83223   0.83329   0.66357   0.00000  Uiso   1.00
C1070  C     0.83444   0.83338   0.83643   0.00000  Uiso   1.00
C1071  C     0.86966   0.85316   0.90709   0.00000  Uiso   1.00
C1072  C     0.79700   0.81351   0.59291   0.00000  Uiso   1.00
C1073  C     0.83596   0.83349   0.88411   0.00000  Uiso   1.00
C1074  C     0.83070   0.83317   0.61589   0.00000  Uiso   1.00
C1075  C     0.80332   0.81230   0.90623   0.00000  Uiso   1.00
C1076  C     0.86335   0.85437   0.59377   0.00000  Uiso   1.00
C1077  C     0.80237   0.81162   0.95233   0.00000  Uiso   1.00
C1078  C     0.86430   0.85505   0.54767   0.00000  Uiso   1.00
C1079  C     0.83434   0.83313   0.97660   0.00000  Uiso   1.00
C1080  C     0.83233   0.83354   0.52340   0.00000  Uiso   1.00
C1081  C     0.86820   0.85424   0.95415   0.00000  Uiso   1.00
C1082  C     0.79847   0.81244   0.54585   0.00000  Uiso   1.00
C1083  C     0.76964   0.78990   0.97430   0.00000  Uiso   1.00
C1084  C     0.89702   0.87677   0.52570   0.00000  Uiso   1.00
H1085  H     0.77837   0.79661   0.88723   0.00000  Uiso   1.00
H1086  H     0.88831   0.87005   0.61277   0.00000  Uiso   1.00
H1087  H     0.74542   0.77271   0.95561   0.00000  Uiso   1.00
H1088  H     0.92124   0.89396   0.54439   0.00000  Uiso   1.00
H1089  H     0.74265   0.77141   0.53611   0.00000  Uiso   1.00
H1090  H     0.92401   0.89527   0.96389   0.00000  Uiso   1.00
H1091  H     0.70451   0.76430   0.72518   0.00000  Uiso   1.00
H1092  H     0.96216   0.90236   0.77482   0.00000  Uiso   1.00
H1093  H     0.96243   0.76418   0.72550   0.00000  Uiso   1.00
H1094  H     0.70424   0.90248   0.77450   0.00000  Uiso   1.00
H1095  H     0.88240   0.70880   0.79714   0.00000  Uiso   1.00
H1096  H     0.78427   0.95787   0.70286   0.00000  Uiso   1.00
H1097  H     0.78426   0.70881   0.70287   0.00000  Uiso   1.00
H1098  H     0.88241   0.95785   0.79713   0.00000  Uiso   1.00
N1099  N     0.83333   0.95240   0.75000   0.00000  Uiso   1.00
N1100  N     0.83333   0.71427   0.75000   0.00000  Uiso   1.00
O1101  O     0.77226   0.87154   0.75000   0.00000  Uiso   1.00
O1102  O     0.89441   0.79513   0.75001   0.00000  Uiso   1.00
O1103  O     0.89441   0.87154   0.75001   0.00000  Uiso   1.00
O1104  O     0.77226   0.79513   0.75000   0.00000  Uiso   1.00
O1105  O     0.83333   0.87156   0.68393   0.00000  Uiso   1.00
O1106  O     0.83334   0.79511   0.81608   0.00000  Uiso   1.00
O1107  O     0.83334   0.87156   0.81608   0.00000  Uiso   1.00
O1108  O     0.83333   0.79511   0.68393   0.00000  Uiso   1.00
Zn1109 Zn    0.83333   0.88437   0.75000   0.00000  Uiso   1.00
Zn1110 Zn    0.83333   0.78229   0.75000   0.00000  Uiso   1.00
C1111  C     0.90646   0.86991   0.88147   0.00000  Uiso   1.00
H1112  H     0.90230   0.88918   0.85097   0.00000  Uiso   1.00
O1113  O     0.94185   0.86029   0.89305   0.00000  Uiso   1.00
C1114  C     0.76020   0.79678   0.61853   0.00000  Uiso   1.00
H1115  H     0.76435   0.77750   0.64903   0.00000  Uiso   1.00
O1116  O     0.72482   0.80641   0.60695   0.00000  Uiso   1.00
loop_
_geom_bond_atom_site_label_1
_geom_bond_atom_site_label_2
_geom_bond_distance
_geom_bond_site_symmetry_2
_ccdc_geom_bond_type
C1     O50     1.282   .     A
C1     O47     1.282   .     A
C1     C10     1.417   .     S
C2     O49     1.282   .     A
C2     O48     1.282   .     A
C2     C9      1.417   .     S
C3     H35     1.080   .     S
C3     C28     1.407   .     A
C3     C587    1.385   1_554 S
C4     H36     1.080   .     S
C4     C27     1.407   .     A
C4     C588    1.385   .     S
C5     H37     1.084   .     S
C5     C10     1.397   .     A
C5     C131    1.370   1_455 S
C6     C9      1.397   .     A
C6     H38     1.084   .     S
C6     C70     1.370   .     S
C7     C9      1.396   .     A
C7     H39     1.084   .     S
C7     C67     1.370   .     S
C8     H40     1.084   .     S
C8     C10     1.396   .     A
C8     C130    1.370   1_455 S
C11    H41     1.082   .     S
C11    N46     1.366   .     A
C11    C386    1.416   1_545 S
C12    H42     1.082   .     S
C12    N45     1.366   .     A
C12    C199    1.416   .     S
C13    N46     1.366   .     A
C13    H43     1.082   .     S
C13    C384    1.416   1_545 S
C14    H44     1.082   .     S
C14    N45     1.366   .     A
C14    C197    1.416   .     S
C15    C20     1.426   .     S
C15    O51     1.283   .     A
C15    O54     1.283   .     A
C16    C19     1.426   .     S
C16    O52     1.283   .     A
C16    O53     1.283   .     A
C17    C19     1.408   .     A
C17    C27     1.407   .     A
C17    C57     1.492   .     S
C18    C60     1.492   .     S
C18    C28     1.407   .     A
C18    C20     1.408   .     A
C19    C21     1.388   .     A
C20    C22     1.388   .     A
C21    H31     1.086   .     S
C21    C23     1.378   .     A
C22    H32     1.086   .     S
C22    C24     1.378   .     A
C23    C29     1.395   .     A
C23    C25     1.409   .     A
C24    C26     1.409   .     A
C24    C30     1.395   .     A
C25    C27     1.421   .     A
C25    C584    1.400   .     S
C26    C28     1.421   .     A
C26    C583    1.400   1_554 S
C29    H33     1.084   .     S
C29    C561    1.385   .     S
C30    H34     1.084   .     S
C30    C562    1.385   1_554 S
N45    Zn55    2.009   .     S
N46    Zn56    2.009   .     S
O47    Zn55    1.997   .     S
O48    Zn56    1.997   .     S
O49    Zn55    1.996   .     S
O50    Zn56    1.996   .     S
O51    Zn55    2.010   .     S
O52    Zn56    2.010   .     S
O53    Zn55    2.011   .     S
O54    Zn56    2.011   .     S
C57    H58     1.084   .     S
C57    O59     1.221   .     D
C60    O62     1.221   .     D
C60    H61     1.084   .     S
C63    O112    1.282   .     A
C63    O109    1.282   .     A
C63    C72     1.417   .     S
C64    O111    1.282   .     A
C64    O110    1.282   .     A
C64    C71     1.417   .     S
C65    H97     1.080   .     S
C65    C90     1.407   .     A
C65    C649    1.385   1_554 S
C66    H98     1.080   .     S
C66    C89     1.407   .     A
C66    C650    1.385   .     S
C67    H99     1.084   .     S
C67    C72     1.397   .     A
C68    C71     1.397   .     A
C68    H100    1.084   .     S
C68    C132    1.370   .     S
C69    C71     1.396   .     A
C69    H101    1.084   .     S
C69    C129    1.370   .     S
C70    H102    1.084   .     S
C70    C72     1.396   .     A
C73    H103    1.082   .     S
C73    N108    1.366   .     A
C73    C448    1.416   1_545 S
C74    H104    1.082   .     S
C74    N107    1.366   .     A
C74    C261    1.416   .     S
C75    N108    1.366   .     A
C75    H105    1.082   .     S
C75    C446    1.416   1_545 S
C76    H106    1.082   .     S
C76    N107    1.366   .     A
C76    C259    1.416   .     S
C77    C82     1.426   .     S
C77    O113    1.283   .     A
C77    O116    1.283   .     A
C78    C81     1.426   .     S
C78    O114    1.283   .     A
C78    O115    1.283   .     A
C79    C81     1.408   .     A
C79    C89     1.407   .     A
C79    C119    1.492   .     S
C80    C122    1.492   .     S
C80    C90     1.407   .     A
C80    C82     1.408   .     A
C81    C83     1.388   .     A
C82    C84     1.388   .     A
C83    H93     1.086   .     S
C83    C85     1.378   .     A
C84    H94     1.086   .     S
C84    C86     1.378   .     A
C85    C91     1.395   .     A
C85    C87     1.409   .     A
C86    C88     1.409   .     A
C86    C92     1.395   .     A
C87    C89     1.421   .     A
C87    C646    1.400   .     S
C88    C90     1.421   .     A
C88    C645    1.400   1_554 S
C91    H95     1.084   .     S
C91    C623    1.385   .     S
C92    H96     1.084   .     S
C92    C624    1.385   1_554 S
N107   Zn117   2.009   .     S
N108   Zn118   2.009   .     S
O109   Zn117   1.997   .     S
O110   Zn118   1.997   .     S
O111   Zn117   1.996   .     S
O112   Zn118   1.996   .     S
O113   Zn117   2.010   .     S
O114   Zn118   2.010   .     S
O115   Zn117   2.011   .     S
O116   Zn118   2.011   .     S
C119   H120    1.084   .     S
C119   O121    1.221   .     D
C122   O124    1.221   .     D
C122   H123    1.084   .     S
C125   O174    1.282   .     A
C125   O171    1.282   .     A
C125   C134    1.417   .     S
C126   O173    1.282   .     A
C126   O172    1.282   .     A
C126   C133    1.417   .     S
C127   H159    1.080   .     S
C127   C152    1.407   .     A
C127   C711    1.385   1_554 S
C128   H160    1.080   .     S
C128   C151    1.407   .     A
C128   C712    1.385   .     S
C129   H161    1.084   .     S
C129   C134    1.397   .     A
C130   C133    1.397   .     A
C130   H162    1.084   .     S
C130   C8      1.370   1_655 S
C131   C133    1.396   .     A
C131   H163    1.084   .     S
C131   C5      1.370   1_655 S
C132   H164    1.084   .     S
C132   C134    1.396   .     A
C135   H165    1.082   .     S
C135   N170    1.366   .     A
C135   C510    1.416   1_545 S
C136   H166    1.082   .     S
C136   N169    1.366   .     A
C136   C323    1.416   .     S
C137   N170    1.366   .     A
C137   H167    1.082   .     S
C137   C508    1.416   1_545 S
C138   H168    1.082   .     S
C138   N169    1.366   .     A
C138   C321    1.416   .     S
C139   C144    1.426   .     S
C139   O175    1.283   .     A
C139   O178    1.283   .     A
C140   C143    1.426   .     S
C140   O176    1.283   .     A
C140   O177    1.283   .     A
C141   C143    1.408   .     A
C141   C151    1.407   .     A
C141   C181    1.492   .     S
C142   C184    1.492   .     S
C142   C152    1.407   .     A
C142   C144    1.408   .     A
C143   C145    1.388   .     A
C144   C146    1.388   .     A
C145   H155    1.086   .     S
C145   C147    1.378   .     A
C146   H156    1.086   .     S
C146   C148    1.378   .     A
C147   C153    1.395   .     A
C147   C149    1.409   .     A
C148   C150    1.409   .     A
C148   C154    1.395   .     A
C149   C151    1.421   .     A
C149   C708    1.400   .     S
C150   C152    1.421   .     A
C150   C707    1.400   1_554 S
C153   H157    1.084   .     S
C153   C685    1.385   .     S
C154   H158    1.084   .     S
C154   C686    1.385   1_554 S
N169   Zn179   2.009   .     S
N170   Zn180   2.009   .     S
O171   Zn179   1.997   .     S
O172   Zn180   1.997   .     S
O173   Zn179   1.996   .     S
O174   Zn180   1.996   .     S
O175   Zn179   2.010   .     S
O176   Zn180   2.010   .     S
O177   Zn179   2.011   .     S
O178   Zn180   2.011   .     S
C181   H182    1.084   .     S
C181   O183    1.221   .     D
C184   O186    1.221   .     D
C184   H185    1.084   .     S
C187   O236    1.282   .     A
C187   O233    1.282   .     A
C187   C196    1.417   .     S
C188   O235    1.282   .     A
C188   O234    1.282   .     A
C188   C195    1.417   .     S
C189   H221    1.080   .     S
C189   C214    1.407   .     A
C189   C773    1.385   1_554 S
C190   H222    1.080   .     S
C190   C213    1.407   .     A
C190   C774    1.385   .     S
C191   H223    1.084   .     S
C191   C196    1.397   .     A
C191   C317    1.370   1_455 S
C192   C195    1.397   .     A
C192   H224    1.084   .     S
C192   C256    1.370   .     S
C193   C195    1.396   .     A
C193   H225    1.084   .     S
C193   C253    1.370   .     S
C194   H226    1.084   .     S
C194   C196    1.396   .     A
C194   C316    1.370   1_455 S
C197   H227    1.082   .     S
C197   N232    1.366   .     A
C198   H228    1.082   .     S
C198   N231    1.366   .     A
C198   C385    1.416   .     S
C199   N232    1.366   .     A
C199   H229    1.082   .     S
C200   H230    1.082   .     S
C200   N231    1.366   .     A
C200   C383    1.416   .     S
C201   C206    1.426   .     S
C201   O237    1.283   .     A
C201   O240    1.283   .     A
C202   C205    1.426   .     S
C202   O238    1.283   .     A
C202   O239    1.283   .     A
C203   C205    1.408   .     A
C203   C213    1.407   .     A
C203   C243    1.492   .     S
C204   C246    1.492   .     S
C204   C214    1.407   .     A
C204   C206    1.408   .     A
C205   C207    1.388   .     A
C206   C208    1.388   .     A
C207   H217    1.086   .     S
C207   C209    1.378   .     A
C208   H218    1.086   .     S
C208   C210    1.378   .     A
C209   C215    1.395   .     A
C209   C211    1.409   .     A
C210   C212    1.409   .     A
C210   C216    1.395   .     A
C211   C213    1.421   .     A
C211   C770    1.400   .     S
C212   C214    1.421   .     A
C212   C769    1.400   1_554 S
C215   H219    1.084   .     S
C215   C747    1.385   .     S
C216   H220    1.084   .     S
C216   C748    1.385   1_554 S
N231   Zn241   2.009   .     S
N232   Zn242   2.009   .     S
O233   Zn241   1.997   .     S
O234   Zn242   1.997   .     S
O235   Zn241   1.996   .     S
O236   Zn242   1.996   .     S
O237   Zn241   2.010   .     S
O238   Zn242   2.010   .     S
O239   Zn241   2.011   .     S
O240   Zn242   2.011   .     S
C243   H244    1.084   .     S
C243   O245    1.221   .     D
C246   O248    1.221   .     D
C246   H247    1.084   .     S
C249   O298    1.282   .     A
C249   O295    1.282   .     A
C249   C258    1.417   .     S
C250   O297    1.282   .     A
C250   O296    1.282   .     A
C250   C257    1.417   .     S
C251   H283    1.080   .     S
C251   C276    1.407   .     A
C251   C835    1.385   1_554 S
C252   H284    1.080   .     S
C252   C275    1.407   .     A
C252   C836    1.385   .     S
C253   H285    1.084   .     S
C253   C258    1.397   .     A
C254   C257    1.397   .     A
C254   H286    1.084   .     S
C254   C318    1.370   .     S
C255   C257    1.396   .     A
C255   H287    1.084   .     S
C255   C315    1.370   .     S
C256   H288    1.084   .     S
C256   C258    1.396   .     A
C259   H289    1.082   .     S
C259   N294    1.366   .     A
C260   H290    1.082   .     S
C260   N293    1.366   .     A
C260   C447    1.416   .     S
C261   N294    1.366   .     A
C261   H291    1.082   .     S
C262   H292    1.082   .     S
C262   N293    1.366   .     A
C262   C445    1.416   .     S
C263   C268    1.426   .     S
C263   O299    1.283   .     A
C263   O302    1.283   .     A
C264   C267    1.426   .     S
C264   O300    1.283   .     A
C264   O301    1.283   .     A
C265   C267    1.408   .     A
C265   C275    1.407   .     A
C265   C305    1.492   .     S
C266   C308    1.492   .     S
C266   C276    1.407   .     A
C266   C268    1.408   .     A
C267   C269    1.388   .     A
C268   C270    1.388   .     A
C269   H279    1.086   .     S
C269   C271    1.378   .     A
C270   H280    1.086   .     S
C270   C272    1.378   .     A
C271   C277    1.395   .     A
C271   C273    1.409   .     A
C272   C274    1.409   .     A
C272   C278    1.395   .     A
C273   C275    1.421   .     A
C273   C832    1.400   .     S
C274   C276    1.421   .     A
C274   C831    1.400   1_554 S
C277   H281    1.084   .     S
C277   C809    1.385   .     S
C278   H282    1.084   .     S
C278   C810    1.385   1_554 S
N293   Zn303   2.009   .     S
N294   Zn304   2.009   .     S
O295   Zn303   1.997   .     S
O296   Zn304   1.997   .     S
O297   Zn303   1.996   .     S
O298   Zn304   1.996   .     S
O299   Zn303   2.010   .     S
O300   Zn304   2.010   .     S
O301   Zn303   2.011   .     S
O302   Zn304   2.011   .     S
C305   H306    1.084   .     S
C305   O307    1.221   .     D
C308   O310    1.221   .     D
C308   H309    1.084   .     S
C311   O360    1.282   .     A
C311   O357    1.282   .     A
C311   C320    1.417   .     S
C312   O359    1.282   .     A
C312   O358    1.282   .     A
C312   C319    1.417   .     S
C313   H345    1.080   .     S
C313   C338    1.407   .     A
C313   C897    1.385   1_554 S
C314   H346    1.080   .     S
C314   C337    1.407   .     A
C314   C898    1.385   .     S
C315   H347    1.084   .     S
C315   C320    1.397   .     A
C316   C319    1.397   .     A
C316   H348    1.084   .     S
C316   C194    1.370   1_655 S
C317   C319    1.396   .     A
C317   H349    1.084   .     S
C317   C191    1.370   1_655 S
C318   H350    1.084   .     S
C318   C320    1.396   .     A
C321   H351    1.082   .     S
C321   N356    1.366   .     A
C322   H352    1.082   .     S
C322   N355    1.366   .     A
C322   C509    1.416   .     S
C323   N356    1.366   .     A
C323   H353    1.082   .     S
C324   H354    1.082   .     S
C324   N355    1.366   .     A
C324   C507    1.416   .     S
C325   C330    1.426   .     S
C325   O361    1.283   .     A
C325   O364    1.283   .     A
C326   C329    1.426   .     S
C326   O362    1.283   .     A
C326   O363    1.283   .     A
C327   C329    1.408   .     A
C327   C337    1.407   .     A
C327   C367    1.492   .     S
C328   C370    1.492   .     S
C328   C338    1.407   .     A
C328   C330    1.408   .     A
C329   C331    1.388   .     A
C330   C332    1.388   .     A
C331   H341    1.086   .     S
C331   C333    1.378   .     A
C332   H342    1.086   .     S
C332   C334    1.378   .     A
C333   C339    1.395   .     A
C333   C335    1.409   .     A
C334   C336    1.409   .     A
C334   C340    1.395   .     A
C335   C337    1.421   .     A
C335   C894    1.400   .     S
C336   C338    1.421   .     A
C336   C893    1.400   1_554 S
C339   H343    1.084   .     S
C339   C871    1.385   .     S
C340   H344    1.084   .     S
C340   C872    1.385   1_554 S
N355   Zn365   2.009   .     S
N356   Zn366   2.009   .     S
O357   Zn365   1.997   .     S
O358   Zn366   1.997   .     S
O359   Zn365   1.996   .     S
O360   Zn366   1.996   .     S
O361   Zn365   2.010   .     S
O362   Zn366   2.010   .     S
O363   Zn365   2.011   .     S
O364   Zn366   2.011   .     S
C367   H368    1.084   .     S
C367   O369    1.221   .     D
C370   O372    1.221   .     D
C370   H371    1.084   .     S
C373   O422    1.282   .     A
C373   O419    1.282   .     A
C373   C382    1.417   .     S
C374   O421    1.282   .     A
C374   O420    1.282   .     A
C374   C381    1.417   .     S
C375   H407    1.080   .     S
C375   C400    1.407   .     A
C375   C959    1.385   1_554 S
C376   H408    1.080   .     S
C376   C399    1.407   .     A
C376   C960    1.385   .     S
C377   H409    1.084   .     S
C377   C382    1.397   .     A
C377   C503    1.370   1_455 S
C378   C381    1.397   .     A
C378   H410    1.084   .     S
C378   C442    1.370   .     S
C379   C381    1.396   .     A
C379   H411    1.084   .     S
C379   C439    1.370   .     S
C380   H412    1.084   .     S
C380   C382    1.396   .     A
C380   C502    1.370   1_455 S
C383   H413    1.082   .     S
C383   N418    1.366   .     A
C384   H414    1.082   .     S
C384   N417    1.366   .     A
C384   C13     1.416   1_565 S
C385   N418    1.366   .     A
C385   H415    1.082   .     S
C386   H416    1.082   .     S
C386   N417    1.366   .     A
C386   C11     1.416   1_565 S
C387   C392    1.426   .     S
C387   O423    1.283   .     A
C387   O426    1.283   .     A
C388   C391    1.426   .     S
C388   O424    1.283   .     A
C388   O425    1.283   .     A
C389   C391    1.408   .     A
C389   C399    1.407   .     A
C389   C429    1.492   .     S
C390   C432    1.492   .     S
C390   C400    1.407   .     A
C390   C392    1.408   .     A
C391   C393    1.388   .     A
C392   C394    1.388   .     A
C393   H403    1.086   .     S
C393   C395    1.378   .     A
C394   H404    1.086   .     S
C394   C396    1.378   .     A
C395   C401    1.395   .     A
C395   C397    1.409   .     A
C396   C398    1.409   .     A
C396   C402    1.395   .     A
C397   C399    1.421   .     A
C397   C956    1.400   .     S
C398   C400    1.421   .     A
C398   C955    1.400   1_554 S
C401   H405    1.084   .     S
C401   C933    1.385   .     S
C402   H406    1.084   .     S
C402   C934    1.385   1_554 S
N417   Zn427   2.009   .     S
N418   Zn428   2.009   .     S
O419   Zn427   1.997   .     S
O420   Zn428   1.997   .     S
O421   Zn427   1.996   .     S
O422   Zn428   1.996   .     S
O423   Zn427   2.010   .     S
O424   Zn428   2.010   .     S
O425   Zn427   2.011   .     S
O426   Zn428   2.011   .     S
C429   H430    1.084   .     S
C429   O431    1.221   .     D
C432   O434    1.221   .     D
C432   H433    1.084   .     S
C435   O484    1.282   .     A
C435   O481    1.282   .     A
C435   C444    1.417   .     S
C436   O483    1.282   .     A
C436   O482    1.282   .     A
C436   C443    1.417   .     S
C437   H469    1.080   .     S
C437   C462    1.407   .     A
C437   C1021   1.385   1_554 S
C438   H470    1.080   .     S
C438   C461    1.407   .     A
C438   C1022   1.385   .     S
C439   H471    1.084   .     S
C439   C444    1.397   .     A
C440   C443    1.397   .     A
C440   H472    1.084   .     S
C440   C504    1.370   .     S
C441   C443    1.396   .     A
C441   H473    1.084   .     S
C441   C501    1.370   .     S
C442   H474    1.084   .     S
C442   C444    1.396   .     A
C445   H475    1.082   .     S
C445   N480    1.366   .     A
C446   H476    1.082   .     S
C446   N479    1.366   .     A
C446   C75     1.416   1_565 S
C447   N480    1.366   .     A
C447   H477    1.082   .     S
C448   H478    1.082   .     S
C448   N479    1.366   .     A
C448   C73     1.416   1_565 S
C449   C454    1.426   .     S
C449   O485    1.283   .     A
C449   O488    1.283   .     A
C450   C453    1.426   .     S
C450   O486    1.283   .     A
C450   O487    1.283   .     A
C451   C453    1.408   .     A
C451   C461    1.407   .     A
C451   C491    1.492   .     S
C452   C494    1.492   .     S
C452   C462    1.407   .     A
C452   C454    1.408   .     A
C453   C455    1.388   .     A
C454   C456    1.388   .     A
C455   H465    1.086   .     S
C455   C457    1.378   .     A
C456   H466    1.086   .     S
C456   C458    1.378   .     A
C457   C463    1.395   .     A
C457   C459    1.409   .     A
C458   C460    1.409   .     A
C458   C464    1.395   .     A
C459   C461    1.421   .     A
C459   C1018   1.400   .     S
C460   C462    1.421   .     A
C460   C1017   1.400   1_554 S
C463   H467    1.084   .     S
C463   C995    1.385   .     S
C464   H468    1.084   .     S
C464   C996    1.385   1_554 S
N479   Zn489   2.009   .     S
N480   Zn490   2.009   .     S
O481   Zn489   1.997   .     S
O482   Zn490   1.997   .     S
O483   Zn489   1.996   .     S
O484   Zn490   1.996   .     S
O485   Zn489   2.010   .     S
O486   Zn490   2.010   .     S
O487   Zn489   2.011   .     S
O488   Zn490   2.011   .     S
C491   H492    1.084   .     S
C491   O493    1.221   .     D
C494   O496    1.221   .     D
C494   H495    1.084   .     S
C497   O546    1.282   .     A
C497   O543    1.282   .     A
C497   C506    1.417   .     S
C498   O545    1.282   .     A
C498   O544    1.282   .     A
C498   C505    1.417   .     S
C499   H531    1.080   .     S
C499   C524    1.407   .     A
C499   C1083   1.385   1_554 S
C500   H532    1.080   .     S
C500   C523    1.407   .     A
C500   C1084   1.385   .     S
C501   H533    1.084   .     S
C501   C506    1.397   .     A
C502   C505    1.397   .     A
C502   H534    1.084   .     S
C502   C380    1.370   1_655 S
C503   C505    1.396   .     A
C503   H535    1.084   .     S
C503   C377    1.370   1_655 S
C504   H536    1.084   .     S
C504   C506    1.396   .     A
C507   H537    1.082   .     S
C507   N542    1.366   .     A
C508   H538    1.082   .     S
C508   N541    1.366   .     A
C508   C137    1.416   1_565 S
C509   N542    1.366   .     A
C509   H539    1.082   .     S
C510   H540    1.082   .     S
C510   N541    1.366   .     A
C510   C135    1.416   1_565 S
C511   C516    1.426   .     S
C511   O547    1.283   .     A
C511   O550    1.283   .     A
C512   C515    1.426   .     S
C512   O548    1.283   .     A
C512   O549    1.283   .     A
C513   C515    1.408   .     A
C513   C523    1.407   .     A
C513   C553    1.492   .     S
C514   C556    1.492   .     S
C514   C524    1.407   .     A
C514   C516    1.408   .     A
C515   C517    1.388   .     A
C516   C518    1.388   .     A
C517   H527    1.086   .     S
C517   C519    1.378   .     A
C518   H528    1.086   .     S
C518   C520    1.378   .     A
C519   C525    1.395   .     A
C519   C521    1.409   .     A
C520   C522    1.409   .     A
C520   C526    1.395   .     A
C521   C523    1.421   .     A
C521   C1080   1.400   .     S
C522   C524    1.421   .     A
C522   C1079   1.400   1_554 S
C525   H529    1.084   .     S
C525   C1057   1.385   .     S
C526   H530    1.084   .     S
C526   C1058   1.385   1_554 S
N541   Zn551   2.009   .     S
N542   Zn552   2.009   .     S
O543   Zn551   1.997   .     S
O544   Zn552   1.997   .     S
O545   Zn551   1.996   .     S
O546   Zn552   1.996   .     S
O547   Zn551   2.010   .     S
O548   Zn552   2.010   .     S
O549   Zn551   2.011   .     S
O550   Zn552   2.011   .     S
C553   H554    1.084   .     S
C553   O555    1.221   .     D
C556   O558    1.221   .     D
C556   H557    1.084   .     S
C559   O608    1.282   .     A
C559   O605    1.282   .     A
C559   C568    1.417   .     S
C560   O607    1.282   .     A
C560   O606    1.282   .     A
C560   C567    1.417   .     S
C561   H593    1.080   .     S
C561   C586    1.407   .     A
C562   H594    1.080   .     S
C562   C585    1.407   .     A
C562   C30     1.385   1_556 S
C563   H595    1.084   .     S
C563   C568    1.397   .     A
C563   C689    1.370   1_455 S
C564   C567    1.397   .     A
C564   H596    1.084   .     S
C564   C628    1.370   .     S
C565   C567    1.396   .     A
C565   H597    1.084   .     S
C565   C625    1.370   .     S
C566   H598    1.084   .     S
C566   C568    1.396   .     A
C566   C688    1.370   1_455 S
C569   H599    1.082   .     S
C569   N604    1.366   .     A
C569   C944    1.416   1_545 S
C570   H600    1.082   .     S
C570   N603    1.366   .     A
C570   C757    1.416   .     S
C571   N604    1.366   .     A
C571   H601    1.082   .     S
C571   C942    1.416   1_545 S
C572   H602    1.082   .     S
C572   N603    1.366   .     A
C572   C755    1.416   .     S
C573   C578    1.426   .     S
C573   O609    1.283   .     A
C573   O612    1.283   .     A
C574   C577    1.426   .     S
C574   O610    1.283   .     A
C574   O611    1.283   .     A
C575   C577    1.408   .     A
C575   C585    1.407   .     A
C575   C615    1.492   .     S
C576   C618    1.492   .     S
C576   C586    1.407   .     A
C576   C578    1.408   .     A
C577   C579    1.388   .     A
C578   C580    1.388   .     A
C579   H589    1.086   .     S
C579   C581    1.378   .     A
C580   H590    1.086   .     S
C580   C582    1.378   .     A
C581   C587    1.395   .     A
C581   C583    1.409   .     A
C582   C584    1.409   .     A
C582   C588    1.395   .     A
C583   C585    1.421   .     A
C583   C26     1.400   1_556 S
C584   C586    1.421   .     A
C587   H591    1.084   .     S
C587   C3      1.385   1_556 S
C588   H592    1.084   .     S
N603   Zn613   2.009   .     S
N604   Zn614   2.009   .     S
O605   Zn613   1.997   .     S
O606   Zn614   1.997   .     S
O607   Zn613   1.996   .     S
O608   Zn614   1.996   .     S
O609   Zn613   2.010   .     S
O610   Zn614   2.010   .     S
O611   Zn613   2.011   .     S
O612   Zn614   2.011   .     S
C615   H616    1.084   .     S
C615   O617    1.221   .     D
C618   O620    1.221   .     D
C618   H619    1.084   .     S
C621   O670    1.282   .     A
C621   O667    1.282   .     A
C621   C630    1.417   .     S
C622   O669    1.282   .     A
C622   O668    1.282   .     A
C622   C629    1.417   .     S
C623   H655    1.080   .     S
C623   C648    1.407   .     A
C624   H656    1.080   .     S
C624   C647    1.407   .     A
C624   C92     1.385   1_556 S
C625   H657    1.084   .     S
C625   C630    1.397   .     A
C626   C629    1.397   .     A
C626   H658    1.084   .     S
C626   C690    1.370   .     S
C627   C629    1.396   .     A
C627   H659    1.084   .     S
C627   C687    1.370   .     S
C628   H660    1.084   .     S
C628   C630    1.396   .     A
C631   H661    1.082   .     S
C631   N666    1.366   .     A
C631   C1006   1.416   1_545 S
C632   H662    1.082   .     S
C632   N665    1.366   .     A
C632   C819    1.416   .     S
C633   N666    1.366   .     A
C633   H663    1.082   .     S
C633   C1004   1.416   1_545 S
C634   H664    1.082   .     S
C634   N665    1.366   .     A
C634   C817    1.416   .     S
C635   C640    1.426   .     S
C635   O671    1.283   .     A
C635   O674    1.283   .     A
C636   C639    1.426   .     S
C636   O672    1.283   .     A
C636   O673    1.283   .     A
C637   C639    1.408   .     A
C637   C647    1.407   .     A
C637   C677    1.492   .     S
C638   C680    1.492   .     S
C638   C648    1.407   .     A
C638   C640    1.408   .     A
C639   C641    1.388   .     A
C640   C642    1.388   .     A
C641   H651    1.086   .     S
C641   C643    1.378   .     A
C642   H652    1.086   .     S
C642   C644    1.378   .     A
C643   C649    1.395   .     A
C643   C645    1.409   .     A
C644   C646    1.409   .     A
C644   C650    1.395   .     A
C645   C647    1.421   .     A
C645   C88     1.400   1_556 S
C646   C648    1.421   .     A
C649   H653    1.084   .     S
C649   C65     1.385   1_556 S
C650   H654    1.084   .     S
N665   Zn675   2.009   .     S
N666   Zn676   2.009   .     S
O667   Zn675   1.997   .     S
O668   Zn676   1.997   .     S
O669   Zn675   1.996   .     S
O670   Zn676   1.996   .     S
O671   Zn675   2.010   .     S
O672   Zn676   2.010   .     S
O673   Zn675   2.011   .     S
O674   Zn676   2.011   .     S
C677   H678    1.084   .     S
C677   O679    1.221   .     D
C680   O682    1.221   .     D
C680   H681    1.084   .     S
C683   O732    1.282   .     A
C683   O729    1.282   .     A
C683   C692    1.417   .     S
C684   O731    1.282   .     A
C684   O730    1.282   .     A
C684   C691    1.417   .     S
C685   H717    1.080   .     S
C685   C710    1.407   .     A
C686   H718    1.080   .     S
C686   C709    1.407   .     A
C686   C154    1.385   1_556 S
C687   H719    1.084   .     S
C687   C692    1.397   .     A
C688   C691    1.397   .     A
C688   H720    1.084   .     S
C688   C566    1.370   1_655 S
C689   C691    1.396   .     A
C689   H721    1.084   .     S
C689   C563    1.370   1_655 S
C690   H722    1.084   .     S
C690   C692    1.396   .     A
C693   H723    1.082   .     S
C693   N728    1.366   .     A
C693   C1068   1.416   1_545 S
C694   H724    1.082   .     S
C694   N727    1.366   .     A
C694   C881    1.416   .     S
C695   N728    1.366   .     A
C695   H725    1.082   .     S
C695   C1066   1.416   1_545 S
C696   H726    1.082   .     S
C696   N727    1.366   .     A
C696   C879    1.416   .     S
C697   C702    1.426   .     S
C697   O733    1.283   .     A
C697   O736    1.283   .     A
C698   C701    1.426   .     S
C698   O734    1.283   .     A
C698   O735    1.283   .     A
C699   C701    1.408   .     A
C699   C709    1.407   .     A
C699   C739    1.492   .     S
C700   C742    1.492   .     S
C700   C710    1.407   .     A
C700   C702    1.408   .     A
C701   C703    1.388   .     A
C702   C704    1.388   .     A
C703   H713    1.086   .     S
C703   C705    1.378   .     A
C704   H714    1.086   .     S
C704   C706    1.378   .     A
C705   C711    1.395   .     A
C705   C707    1.409   .     A
C706   C708    1.409   .     A
C706   C712    1.395   .     A
C707   C709    1.421   .     A
C707   C150    1.400   1_556 S
C708   C710    1.421   .     A
C711   H715    1.084   .     S
C711   C127    1.385   1_556 S
C712   H716    1.084   .     S
N727   Zn737   2.009   .     S
N728   Zn738   2.009   .     S
O729   Zn737   1.997   .     S
O730   Zn738   1.997   .     S
O731   Zn737   1.996   .     S
O732   Zn738   1.996   .     S
O733   Zn737   2.010   .     S
O734   Zn738   2.010   .     S
O735   Zn737   2.011   .     S
O736   Zn738   2.011   .     S
C739   H740    1.084   .     S
C739   O741    1.221   .     D
C742   O744    1.221   .     D
C742   H743    1.084   .     S
C745   O794    1.282   .     A
C745   O791    1.282   .     A
C745   C754    1.417   .     S
C746   O793    1.282   .     A
C746   O792    1.282   .     A
C746   C753    1.417   .     S
C747   H779    1.080   .     S
C747   C772    1.407   .     A
C748   H780    1.080   .     S
C748   C771    1.407   .     A
C748   C216    1.385   1_556 S
C749   H781    1.084   .     S
C749   C754    1.397   .     A
C749   C875    1.370   1_455 S
C750   C753    1.397   .     A
C750   H782    1.084   .     S
C750   C814    1.370   .     S
C751   C753    1.396   .     A
C751   H783    1.084   .     S
C751   C811    1.370   .     S
C752   H784    1.084   .     S
C752   C754    1.396   .     A
C752   C874    1.370   1_455 S
C755   H785    1.082   .     S
C755   N790    1.366   .     A
C756   H786    1.082   .     S
C756   N789    1.366   .     A
C756   C943    1.416   .     S
C757   N790    1.366   .     A
C757   H787    1.082   .     S
C758   H788    1.082   .     S
C758   N789    1.366   .     A
C758   C941    1.416   .     S
C759   C764    1.426   .     S
C759   O795    1.283   .     A
C759   O798    1.283   .     A
C760   C763    1.426   .     S
C760   O796    1.283   .     A
C760   O797    1.283   .     A
C761   C763    1.408   .     A
C761   C771    1.407   .     A
C761   C801    1.492   .     S
C762   C804    1.492   .     S
C762   C772    1.407   .     A
C762   C764    1.408   .     A
C763   C765    1.388   .     A
C764   C766    1.388   .     A
C765   H775    1.086   .     S
C765   C767    1.378   .     A
C766   H776    1.086   .     S
C766   C768    1.378   .     A
C767   C773    1.395   .     A
C767   C769    1.409   .     A
C768   C770    1.409   .     A
C768   C774    1.395   .     A
C769   C771    1.421   .     A
C769   C212    1.400   1_556 S
C770   C772    1.421   .     A
C773   H777    1.084   .     S
C773   C189    1.385   1_556 S
C774   H778    1.084   .     S
N789   Zn799   2.009   .     S
N790   Zn800   2.009   .     S
O791   Zn799   1.997   .     S
O792   Zn800   1.997   .     S
O793   Zn799   1.996   .     S
O794   Zn800   1.996   .     S
O795   Zn799   2.010   .     S
O796   Zn800   2.010   .     S
O797   Zn799   2.011   .     S
O798   Zn800   2.011   .     S
C801   H802    1.084   .     S
C801   O803    1.221   .     D
C804   O806    1.221   .     D
C804   H805    1.084   .     S
C807   O856    1.282   .     A
C807   O853    1.282   .     A
C807   C816    1.417   .     S
C808   O855    1.282   .     A
C808   O854    1.282   .     A
C808   C815    1.417   .     S
C809   H841    1.080   .     S
C809   C834    1.407   .     A
C810   H842    1.080   .     S
C810   C833    1.407   .     A
C810   C278    1.385   1_556 S
C811   H843    1.084   .     S
C811   C816    1.397   .     A
C812   C815    1.397   .     A
C812   H844    1.084   .     S
C812   C876    1.370   .     S
C813   C815    1.396   .     A
C813   H845    1.084   .     S
C813   C873    1.370   .     S
C814   H846    1.084   .     S
C814   C816    1.396   .     A
C817   H847    1.082   .     S
C817   N852    1.366   .     A
C818   H848    1.082   .     S
C818   N851    1.366   .     A
C818   C1005   1.416   .     S
C819   N852    1.366   .     A
C819   H849    1.082   .     S
C820   H850    1.082   .     S
C820   N851    1.366   .     A
C820   C1003   1.416   .     S
C821   C826    1.426   .     S
C821   O857    1.283   .     A
C821   O860    1.283   .     A
C822   C825    1.426   .     S
C822   O858    1.283   .     A
C822   O859    1.283   .     A
C823   C825    1.408   .     A
C823   C833    1.407   .     A
C823   C863    1.492   .     S
C824   C866    1.492   .     S
C824   C834    1.407   .     A
C824   C826    1.408   .     A
C825   C827    1.388   .     A
C826   C828    1.388   .     A
C827   H837    1.086   .     S
C827   C829    1.378   .     A
C828   H838    1.086   .     S
C828   C830    1.378   .     A
C829   C835    1.395   .     A
C829   C831    1.409   .     A
C830   C832    1.409   .     A
C830   C836    1.395   .     A
C831   C833    1.421   .     A
C831   C274    1.400   1_556 S
C832   C834    1.421   .     A
C835   H839    1.084   .     S
C835   C251    1.385   1_556 S
C836   H840    1.084   .     S
N851   Zn861   2.009   .     S
N852   Zn862   2.009   .     S
O853   Zn861   1.997   .     S
O854   Zn862   1.997   .     S
O855   Zn861   1.996   .     S
O856   Zn862   1.996   .     S
O857   Zn861   2.010   .     S
O858   Zn862   2.010   .     S
O859   Zn861   2.011   .     S
O860   Zn862   2.011   .     S
C863   H864    1.084   .     S
C863   O865    1.221   .     D
C866   O868    1.221   .     D
C866   H867    1.084   .     S
C869   O918    1.282   .     A
C869   O915    1.282   .     A
C869   C878    1.417   .     S
C870   O917    1.282   .     A
C870   O916    1.282   .     A
C870   C877    1.417   .     S
C871   H903    1.080   .     S
C871   C896    1.407   .     A
C872   H904    1.080   .     S
C872   C895    1.407   .     A
C872   C340    1.385   1_556 S
C873   H905    1.084   .     S
C873   C878    1.397   .     A
C874   C877    1.397   .     A
C874   H906    1.084   .     S
C874   C752    1.370   1_655 S
C875   C877    1.396   .     A
C875   H907    1.084   .     S
C875   C749    1.370   1_655 S
C876   H908    1.084   .     S
C876   C878    1.396   .     A
C879   H909    1.082   .     S
C879   N914    1.366   .     A
C880   H910    1.082   .     S
C880   N913    1.366   .     A
C880   C1067   1.416   .     S
C881   N914    1.366   .     A
C881   H911    1.082   .     S
C882   H912    1.082   .     S
C882   N913    1.366   .     A
C882   C1065   1.416   .     S
C883   C888    1.426   .     S
C883   O919    1.283   .     A
C883   O922    1.283   .     A
C884   C887    1.426   .     S
C884   O920    1.283   .     A
C884   O921    1.283   .     A
C885   C887    1.408   .     A
C885   C895    1.407   .     A
C885   C925    1.492   .     S
C886   C928    1.492   .     S
C886   C896    1.407   .     A
C886   C888    1.408   .     A
C887   C889    1.388   .     A
C888   C890    1.388   .     A
C889   H899    1.086   .     S
C889   C891    1.378   .     A
C890   H900    1.086   .     S
C890   C892    1.378   .     A
C891   C897    1.395   .     A
C891   C893    1.409   .     A
C892   C894    1.409   .     A
C892   C898    1.395   .     A
C893   C895    1.421   .     A
C893   C336    1.400   1_556 S
C894   C896    1.421   .     A
C897   H901    1.084   .     S
C897   C313    1.385   1_556 S
C898   H902    1.084   .     S
N913   Zn923   2.009   .     S
N914   Zn924   2.009   .     S
O915   Zn923   1.997   .     S
O916   Zn924   1.997   .     S
O917   Zn923   1.996   .     S
O918   Zn924   1.996   .     S
O919   Zn923   2.010   .     S
O920   Zn924   2.010   .     S
O921   Zn923   2.011   .     S
O922   Zn924   2.011   .     S
C925   H926    1.084   .     S
C925   O927    1.221   .     D
C928   O930    1.221   .     D
C928   H929    1.084   .     S
C931   O980    1.282   .     A
C931   O977    1.282   .     A
C931   C940    1.417   .     S
C932   O979    1.282   .     A
C932   O978    1.282   .     A
C932   C939    1.417   .     S
C933   H965    1.080   .     S
C933   C958    1.407   .     A
C934   H966    1.080   .     S
C934   C957    1.407   .     A
C934   C402    1.385   1_556 S
C935   H967    1.084   .     S
C935   C940    1.397   .     A
C935   C1061   1.370   1_455 S
C936   C939    1.397   .     A
C936   H968    1.084   .     S
C936   C1000   1.370   .     S
C937   C939    1.396   .     A
C937   H969    1.084   .     S
C937   C997    1.370   .     S
C938   H970    1.084   .     S
C938   C940    1.396   .     A
C938   C1060   1.370   1_455 S
C941   H971    1.082   .     S
C941   N976    1.366   .     A
C942   H972    1.082   .     S
C942   N975    1.366   .     A
C942   C571    1.416   1_565 S
C943   N976    1.366   .     A
C943   H973    1.082   .     S
C944   H974    1.082   .     S
C944   N975    1.366   .     A
C944   C569    1.416   1_565 S
C945   C950    1.426   .     S
C945   O981    1.283   .     A
C945   O984    1.283   .     A
C946   C949    1.426   .     S
C946   O982    1.283   .     A
C946   O983    1.283   .     A
C947   C949    1.408   .     A
C947   C957    1.407   .     A
C947   C987    1.492   .     S
C948   C990    1.492   .     S
C948   C958    1.407   .     A
C948   C950    1.408   .     A
C949   C951    1.388   .     A
C950   C952    1.388   .     A
C951   H961    1.086   .     S
C951   C953    1.378   .     A
C952   H962    1.086   .     S
C952   C954    1.378   .     A
C953   C959    1.395   .     A
C953   C955    1.409   .     A
C954   C956    1.409   .     A
C954   C960    1.395   .     A
C955   C957    1.421   .     A
C955   C398    1.400   1_556 S
C956   C958    1.421   .     A
C959   H963    1.084   .     S
C959   C375    1.385   1_556 S
C960   H964    1.084   .     S
N975   Zn985   2.009   .     S
N976   Zn986   2.009   .     S
O977   Zn985   1.997   .     S
O978   Zn986   1.997   .     S
O979   Zn985   1.996   .     S
O980   Zn986   1.996   .     S
O981   Zn985   2.010   .     S
O982   Zn986   2.010   .     S
O983   Zn985   2.011   .     S
O984   Zn986   2.011   .     S
C987   H988    1.084   .     S
C987   O989    1.221   .     D
C990   O992    1.221   .     D
C990   H991    1.084   .     S
C993   O1042   1.282   .     A
C993   O1039   1.282   .     A
C993   C1002   1.417   .     S
C994   O1041   1.282   .     A
C994   O1040   1.282   .     A
C994   C1001   1.417   .     S
C995   H1027   1.080   .     S
C995   C1020   1.407   .     A
C996   H1028   1.080   .     S
C996   C1019   1.407   .     A
C996   C464    1.385   1_556 S
C997   H1029   1.084   .     S
C997   C1002   1.397   .     A
C998   C1001   1.397   .     A
C998   H1030   1.084   .     S
C998   C1062   1.370   .     S
C999   C1001   1.396   .     A
C999   H1031   1.084   .     S
C999   C1059   1.370   .     S
C1000  H1032   1.084   .     S
C1000  C1002   1.396   .     A
C1003  H1033   1.082   .     S
C1003  N1038   1.366   .     A
C1004  H1034   1.082   .     S
C1004  N1037   1.366   .     A
C1004  C633    1.416   1_565 S
C1005  N1038   1.366   .     A
C1005  H1035   1.082   .     S
C1006  H1036   1.082   .     S
C1006  N1037   1.366   .     A
C1006  C631    1.416   1_565 S
C1007  C1012   1.426   .     S
C1007  O1043   1.283   .     A
C1007  O1046   1.283   .     A
C1008  C1011   1.426   .     S
C1008  O1044   1.283   .     A
C1008  O1045   1.283   .     A
C1009  C1011   1.408   .     A
C1009  C1019   1.407   .     A
C1009  C1049   1.492   .     S
C1010  C1052   1.492   .     S
C1010  C1020   1.407   .     A
C1010  C1012   1.408   .     A
C1011  C1013   1.388   .     A
C1012  C1014   1.388   .     A
C1013  H1023   1.086   .     S
C1013  C1015   1.378   .     A
C1014  H1024   1.086   .     S
C1014  C1016   1.378   .     A
C1015  C1021   1.395   .     A
C1015  C1017   1.409   .     A
C1016  C1018   1.409   .     A
C1016  C1022   1.395   .     A
C1017  C1019   1.421   .     A
C1017  C460    1.400   1_556 S
C1018  C1020   1.421   .     A
C1021  H1025   1.084   .     S
C1021  C437    1.385   1_556 S
C1022  H1026   1.084   .     S
N1037  Zn1047  2.009   .     S
N1038  Zn1048  2.009   .     S
O1039  Zn1047  1.997   .     S
O1040  Zn1048  1.997   .     S
O1041  Zn1047  1.996   .     S
O1042  Zn1048  1.996   .     S
O1043  Zn1047  2.010   .     S
O1044  Zn1048  2.010   .     S
O1045  Zn1047  2.011   .     S
O1046  Zn1048  2.011   .     S
C1049  H1050   1.084   .     S
C1049  O1051   1.221   .     D
C1052  O1054   1.221   .     D
C1052  H1053   1.084   .     S
C1055  O1104   1.282   .     A
C1055  O1101   1.282   .     A
C1055  C1064   1.417   .     S
C1056  O1103   1.282   .     A
C1056  O1102   1.282   .     A
C1056  C1063   1.417   .     S
C1057  H1089   1.080   .     S
C1057  C1082   1.407   .     A
C1058  H1090   1.080   .     S
C1058  C1081   1.407   .     A
C1058  C526    1.385   1_556 S
C1059  H1091   1.084   .     S
C1059  C1064   1.397   .     A
C1060  C1063   1.397   .     A
C1060  H1092   1.084   .     S
C1060  C938    1.370   1_655 S
C1061  C1063   1.396   .     A
C1061  H1093   1.084   .     S
C1061  C935    1.370   1_655 S
C1062  H1094   1.084   .     S
C1062  C1064   1.396   .     A
C1065  H1095   1.082   .     S
C1065  N1100   1.366   .     A
C1066  H1096   1.082   .     S
C1066  N1099   1.366   .     A
C1066  C695    1.416   1_565 S
C1067  N1100   1.366   .     A
C1067  H1097   1.082   .     S
C1068  H1098   1.082   .     S
C1068  N1099   1.366   .     A
C1068  C693    1.416   1_565 S
C1069  C1074   1.426   .     S
C1069  O1105   1.283   .     A
C1069  O1108   1.283   .     A
C1070  C1073   1.426   .     S
C1070  O1106   1.283   .     A
C1070  O1107   1.283   .     A
C1071  C1073   1.408   .     A
C1071  C1081   1.407   .     A
C1071  C1111   1.492   .     S
C1072  C1114   1.492   .     S
C1072  C1082   1.407   .     A
C1072  C1074   1.408   .     A
C1073  C1075   1.388   .     A
C1074  C1076   1.388   .     A
C1075  H1085   1.086   .     S
C1075  C1077   1.378   .     A
C1076  H1086   1.086   .     S
C1076  C1078   1.378   .     A
C1077  C1083   1.395   .     A
C1077  C1079   1.409   .     A
C1078  C1080   1.409   .     A
C1078  C1084   1.395   .     A
C1079  C1081   1.421   .     A
C1079  C522    1.400   1_556 S
C1080  C1082   1.421   .     A
C1083  H1087   1.084   .     S
C1083  C499    1.385   1_556 S
C1084  H1088   1.084   .     S
N1099  Zn1109  2.009   .     S
N1100  Zn1110  2.009   .     S
O1101  Zn1109  1.997   .     S
O1102  Zn1110  1.997   .     S
O1103  Zn1109  1.996   .     S
O1104  Zn1110  1.996   .     S
O1105  Zn1109  2.010   .     S
O1106  Zn1110  2.010   .     S
O1107  Zn1109  2.011   .     S
O1108  Zn1110  2.011   .     S
C1111  H1112   1.084   .     S
C1111  O1113   1.221   .     D
C1114  O1116   1.221   .     D
C1114  H1115   1.084   .     S
