data_str_m2_o1_o1_pcu_sym.88
_audit_creation_date              2020-01-03
_audit_creation_method            'Materials Studio'
_symmetry_space_group_name_H-M    'P1'
_symmetry_Int_Tables_number       1
_symmetry_cell_setting            triclinic
loop_
_symmetry_equiv_pos_as_xyz
  x,y,z
_cell_length_a                    31.6835
_cell_length_b                    29.4996
_cell_length_c                    28.8118
_cell_angle_alpha                 94.5568
_cell_angle_beta                  90.0000
_cell_angle_gamma                 90.0000
loop_
_atom_site_label
_atom_site_type_symbol
_atom_site_fract_x
_atom_site_fract_y
_atom_site_fract_z
_atom_site_U_iso_or_equiv
_atom_site_adp_type
_atom_site_occupancy
C1     C     0.05905   0.19022   0.16572   0.00000  Uiso   1.00
C2     C     0.43943   0.30825   0.16778   0.00000  Uiso   1.00
C3     C     0.43943   0.19175   0.16555   0.00000  Uiso   1.00
C4     C     0.05905   0.30978   0.16761   0.00000  Uiso   1.00
C5     C     0.30905   0.44022   0.16572   0.00000  Uiso   1.00
C6     C     0.18943   0.05825   0.16778   0.00000  Uiso   1.00
C7     C     0.18943   0.44175   0.16555   0.00000  Uiso   1.00
C8     C     0.30905   0.05978   0.16761   0.00000  Uiso   1.00
C9     C     0.00512   0.21034   0.02100   0.00000  Uiso   1.00
C10    C     0.00512   0.28966   0.31233   0.00000  Uiso   1.00
C11    C     0.00016   0.29005   0.02872   0.00000  Uiso   1.00
C12    C     0.00016   0.20995   0.30462   0.00000  Uiso   1.00
C13    C     0.25512   0.46034   0.02100   0.00000  Uiso   1.00
C14    C     0.25512   0.03966   0.31233   0.00000  Uiso   1.00
C15    C     0.25016   0.04005   0.02872   0.00000  Uiso   1.00
C16    C     0.25016   0.45995   0.30462   0.00000  Uiso   1.00
C17    C     0.40288   0.12258   0.13062   0.00000  Uiso   1.00
C18    C     0.08649   0.38652   0.19286   0.00000  Uiso   1.00
C19    C     0.12633   0.33630   0.13788   0.00000  Uiso   1.00
C20    C     0.36949   0.16818   0.19453   0.00000  Uiso   1.00
C21    C     0.12633   0.16370   0.19545   0.00000  Uiso   1.00
C22    C     0.36949   0.33182   0.13881   0.00000  Uiso   1.00
C23    C     0.40288   0.37742   0.20271   0.00000  Uiso   1.00
C24    C     0.08649   0.11348   0.14048   0.00000  Uiso   1.00
C25    C     0.15288   0.37258   0.13062   0.00000  Uiso   1.00
C26    C     0.33649   0.13652   0.19286   0.00000  Uiso   1.00
C27    C     0.37633   0.08630   0.13788   0.00000  Uiso   1.00
C28    C     0.11949   0.41818   0.19453   0.00000  Uiso   1.00
C29    C     0.37633   0.41370   0.19545   0.00000  Uiso   1.00
C30    C     0.11949   0.08182   0.13881   0.00000  Uiso   1.00
C31    C     0.15288   0.12742   0.20271   0.00000  Uiso   1.00
C32    C     0.33649   0.36348   0.14048   0.00000  Uiso   1.00
C33    C     0.09222   0.34365   0.16861   0.00000  Uiso   1.00
C34    C     0.40352   0.16063   0.16334   0.00000  Uiso   1.00
C35    C     0.40352   0.33937   0.16999   0.00000  Uiso   1.00
C36    C     0.09222   0.15635   0.16472   0.00000  Uiso   1.00
C37    C     0.34222   0.09365   0.16861   0.00000  Uiso   1.00
C38    C     0.15352   0.41063   0.16334   0.00000  Uiso   1.00
C39    C     0.15352   0.08937   0.16999   0.00000  Uiso   1.00
C40    C     0.34222   0.40635   0.16472   0.00000  Uiso   1.00
Cu41   Cu    0.00000   0.25000   0.21355   0.00000  Uiso   1.00
Cu42   Cu    0.00000   0.25000   0.11978   0.00000  Uiso   1.00
Cu43   Cu    0.25000   0.00000   0.21355   0.00000  Uiso   1.00
Cu44   Cu    0.25000   0.00000   0.11978   0.00000  Uiso   1.00
N45    N     0.00000   0.25000   0.28402   0.00000  Uiso   1.00
N46    N     0.00000   0.25000   0.04931   0.00000  Uiso   1.00
N47    N     0.25000   0.00000   0.28402   0.00000  Uiso   1.00
N48    N     0.25000   0.00000   0.04931   0.00000  Uiso   1.00
O49    O     0.04509   0.20491   0.20625   0.00000  Uiso   1.00
O50    O     0.45492   0.29509   0.12709   0.00000  Uiso   1.00
O51    O     0.45492   0.29509   0.20625   0.00000  Uiso   1.00
O52    O     0.04509   0.20491   0.12709   0.00000  Uiso   1.00
O53    O     0.45492   0.20491   0.12709   0.00000  Uiso   1.00
O54    O     0.04509   0.29509   0.20625   0.00000  Uiso   1.00
O55    O     0.04509   0.29509   0.12709   0.00000  Uiso   1.00
O56    O     0.45492   0.20491   0.20625   0.00000  Uiso   1.00
O57    O     0.29509   0.45491   0.20625   0.00000  Uiso   1.00
O58    O     0.20492   0.04509   0.12709   0.00000  Uiso   1.00
O59    O     0.20492   0.04509   0.20625   0.00000  Uiso   1.00
O60    O     0.29509   0.45491   0.12709   0.00000  Uiso   1.00
O61    O     0.20492   0.45491   0.12709   0.00000  Uiso   1.00
O62    O     0.29509   0.04509   0.20625   0.00000  Uiso   1.00
O63    O     0.29509   0.04509   0.12709   0.00000  Uiso   1.00
O64    O     0.20492   0.45491   0.20625   0.00000  Uiso   1.00
O65    O     0.02012   0.17191   0.04006   0.00000  Uiso   1.00
C66    C     0.06341   0.16487   0.02792   0.00000  Uiso   1.00
H67    H     0.08232   0.16632   0.06032   0.00000  Uiso   1.00
H68    H     0.07750   0.19093   0.00642   0.00000  Uiso   1.00
C69    C     0.06998   0.11782   0.00281   0.00000  Uiso   1.00
H70    H     0.06437   0.11873   0.29826   0.00000  Uiso   1.00
H71    H     0.10298   0.10654   0.00781   0.00000  Uiso   1.00
H72    H     0.04847   0.09247   0.01662   0.00000  Uiso   1.00
O73    O     0.02012   0.32809   0.29327   0.00000  Uiso   1.00
C74    C     0.06341   0.33513   0.30541   0.00000  Uiso   1.00
H75    H     0.08232   0.33368   0.27302   0.00000  Uiso   1.00
H76    H     0.07750   0.30907   0.32692   0.00000  Uiso   1.00
C77    C     0.06998   0.38218   0.33052   0.00000  Uiso   1.00
H78    H     0.06437   0.38127   0.03508   0.00000  Uiso   1.00
H79    H     0.10298   0.39346   0.32552   0.00000  Uiso   1.00
H80    H     0.04847   0.40753   0.31671   0.00000  Uiso   1.00
O81    O     0.00488   0.32971   0.05741   0.00000  Uiso   1.00
C82    C     0.47264   0.36108   0.04946   0.00000  Uiso   1.00
H83    H     0.44089   0.34470   0.04782   0.00000  Uiso   1.00
H84    H     0.47922   0.37755   0.01717   0.00000  Uiso   1.00
C85    C     0.47263   0.39887   0.08862   0.00000  Uiso   1.00
H86    H     0.00313   0.41747   0.08922   0.00000  Uiso   1.00
H87    H     0.44662   0.42313   0.08318   0.00000  Uiso   1.00
H88    H     0.46807   0.38467   0.12267   0.00000  Uiso   1.00
O89    O     0.00488   0.17029   0.27592   0.00000  Uiso   1.00
C90    C     0.47264   0.13892   0.28387   0.00000  Uiso   1.00
H91    H     0.44089   0.15530   0.28552   0.00000  Uiso   1.00
H92    H     0.47922   0.12245   0.31617   0.00000  Uiso   1.00
C93    C     0.47263   0.10113   0.24472   0.00000  Uiso   1.00
H94    H     0.00313   0.08253   0.24411   0.00000  Uiso   1.00
H95    H     0.44662   0.07687   0.25015   0.00000  Uiso   1.00
H96    H     0.46807   0.11533   0.21067   0.00000  Uiso   1.00
O97    O     0.27012   0.42191   0.04006   0.00000  Uiso   1.00
C98    C     0.31341   0.41487   0.02792   0.00000  Uiso   1.00
H99    H     0.33232   0.41632   0.06032   0.00000  Uiso   1.00
H100   H     0.32750   0.44093   0.00642   0.00000  Uiso   1.00
C101   C     0.31998   0.36782   0.00281   0.00000  Uiso   1.00
H102   H     0.31437   0.36873   0.29826   0.00000  Uiso   1.00
H103   H     0.35298   0.35654   0.00781   0.00000  Uiso   1.00
H104   H     0.29847   0.34247   0.01662   0.00000  Uiso   1.00
O105   O     0.27012   0.07809   0.29327   0.00000  Uiso   1.00
C106   C     0.31341   0.08513   0.30541   0.00000  Uiso   1.00
H107   H     0.33232   0.08368   0.27302   0.00000  Uiso   1.00
H108   H     0.32750   0.05907   0.32692   0.00000  Uiso   1.00
C109   C     0.31998   0.13218   0.33052   0.00000  Uiso   1.00
H110   H     0.31437   0.13127   0.03508   0.00000  Uiso   1.00
H111   H     0.35298   0.14346   0.32552   0.00000  Uiso   1.00
H112   H     0.29847   0.15753   0.31671   0.00000  Uiso   1.00
O113   O     0.25488   0.07971   0.05741   0.00000  Uiso   1.00
C114   C     0.22264   0.11108   0.04946   0.00000  Uiso   1.00
H115   H     0.19089   0.09470   0.04782   0.00000  Uiso   1.00
H116   H     0.22922   0.12755   0.01717   0.00000  Uiso   1.00
C117   C     0.22263   0.14887   0.08862   0.00000  Uiso   1.00
H118   H     0.25313   0.16747   0.08922   0.00000  Uiso   1.00
H119   H     0.19662   0.17313   0.08318   0.00000  Uiso   1.00
H120   H     0.21807   0.13467   0.12267   0.00000  Uiso   1.00
O121   O     0.25488   0.42029   0.27592   0.00000  Uiso   1.00
C122   C     0.22264   0.38892   0.28387   0.00000  Uiso   1.00
H123   H     0.19089   0.40530   0.28552   0.00000  Uiso   1.00
H124   H     0.22922   0.37245   0.31617   0.00000  Uiso   1.00
C125   C     0.22263   0.35113   0.24472   0.00000  Uiso   1.00
H126   H     0.25313   0.33253   0.24411   0.00000  Uiso   1.00
H127   H     0.19662   0.32687   0.25015   0.00000  Uiso   1.00
H128   H     0.21807   0.36533   0.21067   0.00000  Uiso   1.00
I129   I     0.42705   0.12538   0.06246   0.00000  Uiso   1.00
I130   I     0.02518   0.40820   0.21448   0.00000  Uiso   1.00
I131   I     0.13762   0.27128   0.10071   0.00000  Uiso   1.00
I132   I     0.36439   0.23000   0.23888   0.00000  Uiso   1.00
I133   I     0.13762   0.22872   0.23263   0.00000  Uiso   1.00
I134   I     0.36439   0.27000   0.09445   0.00000  Uiso   1.00
I135   I     0.42705   0.37462   0.27088   0.00000  Uiso   1.00
I136   I     0.02518   0.09180   0.11885   0.00000  Uiso   1.00
I137   I     0.17705   0.37538   0.06246   0.00000  Uiso   1.00
I138   I     0.27518   0.15820   0.21448   0.00000  Uiso   1.00
I139   I     0.38762   0.02128   0.10071   0.00000  Uiso   1.00
I140   I     0.11439   0.48000   0.23888   0.00000  Uiso   1.00
I141   I     0.38762   0.47872   0.23263   0.00000  Uiso   1.00
I142   I     0.11439   0.02000   0.09445   0.00000  Uiso   1.00
I143   I     0.17705   0.12462   0.27088   0.00000  Uiso   1.00
I144   I     0.27518   0.34180   0.11885   0.00000  Uiso   1.00
C145   C     0.55905   0.19022   0.16572   0.00000  Uiso   1.00
C146   C     0.93943   0.30825   0.16778   0.00000  Uiso   1.00
C147   C     0.93943   0.19175   0.16555   0.00000  Uiso   1.00
C148   C     0.55905   0.30978   0.16761   0.00000  Uiso   1.00
C149   C     0.80905   0.44022   0.16572   0.00000  Uiso   1.00
C150   C     0.68943   0.05825   0.16778   0.00000  Uiso   1.00
C151   C     0.68943   0.44175   0.16555   0.00000  Uiso   1.00
C152   C     0.80905   0.05978   0.16761   0.00000  Uiso   1.00
C153   C     0.50512   0.21034   0.02100   0.00000  Uiso   1.00
C154   C     0.50512   0.28966   0.31233   0.00000  Uiso   1.00
C155   C     0.50016   0.29005   0.02872   0.00000  Uiso   1.00
C156   C     0.50016   0.20995   0.30462   0.00000  Uiso   1.00
C157   C     0.75512   0.46034   0.02100   0.00000  Uiso   1.00
C158   C     0.75512   0.03966   0.31233   0.00000  Uiso   1.00
C159   C     0.75016   0.04005   0.02872   0.00000  Uiso   1.00
C160   C     0.75016   0.45995   0.30462   0.00000  Uiso   1.00
C161   C     0.90288   0.12258   0.13062   0.00000  Uiso   1.00
C162   C     0.58649   0.38652   0.19286   0.00000  Uiso   1.00
C163   C     0.62633   0.33630   0.13788   0.00000  Uiso   1.00
C164   C     0.86949   0.16818   0.19453   0.00000  Uiso   1.00
C165   C     0.62633   0.16370   0.19545   0.00000  Uiso   1.00
C166   C     0.86949   0.33182   0.13881   0.00000  Uiso   1.00
C167   C     0.90288   0.37742   0.20271   0.00000  Uiso   1.00
C168   C     0.58649   0.11348   0.14048   0.00000  Uiso   1.00
C169   C     0.65288   0.37258   0.13062   0.00000  Uiso   1.00
C170   C     0.83649   0.13652   0.19286   0.00000  Uiso   1.00
C171   C     0.87633   0.08630   0.13788   0.00000  Uiso   1.00
C172   C     0.61949   0.41818   0.19453   0.00000  Uiso   1.00
C173   C     0.87633   0.41370   0.19545   0.00000  Uiso   1.00
C174   C     0.61949   0.08182   0.13881   0.00000  Uiso   1.00
C175   C     0.65288   0.12742   0.20271   0.00000  Uiso   1.00
C176   C     0.83649   0.36348   0.14048   0.00000  Uiso   1.00
C177   C     0.59222   0.34365   0.16861   0.00000  Uiso   1.00
C178   C     0.90352   0.16063   0.16334   0.00000  Uiso   1.00
C179   C     0.90352   0.33937   0.16999   0.00000  Uiso   1.00
C180   C     0.59222   0.15635   0.16472   0.00000  Uiso   1.00
C181   C     0.84222   0.09365   0.16861   0.00000  Uiso   1.00
C182   C     0.65352   0.41063   0.16334   0.00000  Uiso   1.00
C183   C     0.65352   0.08937   0.16999   0.00000  Uiso   1.00
C184   C     0.84222   0.40635   0.16472   0.00000  Uiso   1.00
Cu185  Cu    0.50000   0.25000   0.21355   0.00000  Uiso   1.00
Cu186  Cu    0.50000   0.25000   0.11978   0.00000  Uiso   1.00
Cu187  Cu    0.75000   0.00000   0.21355   0.00000  Uiso   1.00
Cu188  Cu    0.75000   0.00000   0.11978   0.00000  Uiso   1.00
N189   N     0.50000   0.25000   0.28402   0.00000  Uiso   1.00
N190   N     0.50000   0.25000   0.04931   0.00000  Uiso   1.00
N191   N     0.75000   0.00000   0.28402   0.00000  Uiso   1.00
N192   N     0.75000   0.00000   0.04931   0.00000  Uiso   1.00
O193   O     0.54509   0.20491   0.20625   0.00000  Uiso   1.00
O194   O     0.95492   0.29509   0.12709   0.00000  Uiso   1.00
O195   O     0.95492   0.29509   0.20625   0.00000  Uiso   1.00
O196   O     0.54509   0.20491   0.12709   0.00000  Uiso   1.00
O197   O     0.95492   0.20491   0.12709   0.00000  Uiso   1.00
O198   O     0.54509   0.29509   0.20625   0.00000  Uiso   1.00
O199   O     0.54509   0.29509   0.12709   0.00000  Uiso   1.00
O200   O     0.95492   0.20491   0.20625   0.00000  Uiso   1.00
O201   O     0.79509   0.45491   0.20625   0.00000  Uiso   1.00
O202   O     0.70492   0.04509   0.12709   0.00000  Uiso   1.00
O203   O     0.70492   0.04509   0.20625   0.00000  Uiso   1.00
O204   O     0.79509   0.45491   0.12709   0.00000  Uiso   1.00
O205   O     0.70492   0.45491   0.12709   0.00000  Uiso   1.00
O206   O     0.79509   0.04509   0.20625   0.00000  Uiso   1.00
O207   O     0.79509   0.04509   0.12709   0.00000  Uiso   1.00
O208   O     0.70492   0.45491   0.20625   0.00000  Uiso   1.00
O209   O     0.52012   0.17191   0.04006   0.00000  Uiso   1.00
C210   C     0.56341   0.16487   0.02792   0.00000  Uiso   1.00
H211   H     0.58232   0.16632   0.06032   0.00000  Uiso   1.00
H212   H     0.57750   0.19093   0.00642   0.00000  Uiso   1.00
C213   C     0.56998   0.11782   0.00281   0.00000  Uiso   1.00
H214   H     0.56437   0.11873   0.29826   0.00000  Uiso   1.00
H215   H     0.60298   0.10654   0.00781   0.00000  Uiso   1.00
H216   H     0.54847   0.09247   0.01662   0.00000  Uiso   1.00
O217   O     0.52012   0.32809   0.29327   0.00000  Uiso   1.00
C218   C     0.56341   0.33513   0.30541   0.00000  Uiso   1.00
H219   H     0.58232   0.33368   0.27302   0.00000  Uiso   1.00
H220   H     0.57750   0.30907   0.32692   0.00000  Uiso   1.00
C221   C     0.56998   0.38218   0.33052   0.00000  Uiso   1.00
H222   H     0.56437   0.38127   0.03508   0.00000  Uiso   1.00
H223   H     0.60298   0.39346   0.32552   0.00000  Uiso   1.00
H224   H     0.54847   0.40753   0.31671   0.00000  Uiso   1.00
O225   O     0.50488   0.32971   0.05741   0.00000  Uiso   1.00
C226   C     0.97264   0.36108   0.04946   0.00000  Uiso   1.00
H227   H     0.94089   0.34470   0.04782   0.00000  Uiso   1.00
H228   H     0.97922   0.37755   0.01717   0.00000  Uiso   1.00
C229   C     0.97263   0.39887   0.08862   0.00000  Uiso   1.00
H230   H     0.50313   0.41747   0.08922   0.00000  Uiso   1.00
H231   H     0.94662   0.42313   0.08318   0.00000  Uiso   1.00
H232   H     0.96807   0.38467   0.12267   0.00000  Uiso   1.00
O233   O     0.50488   0.17029   0.27592   0.00000  Uiso   1.00
C234   C     0.97264   0.13892   0.28387   0.00000  Uiso   1.00
H235   H     0.94089   0.15530   0.28552   0.00000  Uiso   1.00
H236   H     0.97922   0.12245   0.31617   0.00000  Uiso   1.00
C237   C     0.97263   0.10113   0.24472   0.00000  Uiso   1.00
H238   H     0.50313   0.08253   0.24411   0.00000  Uiso   1.00
H239   H     0.94662   0.07687   0.25015   0.00000  Uiso   1.00
H240   H     0.96807   0.11533   0.21067   0.00000  Uiso   1.00
O241   O     0.77012   0.42191   0.04006   0.00000  Uiso   1.00
C242   C     0.81341   0.41487   0.02792   0.00000  Uiso   1.00
H243   H     0.83232   0.41632   0.06032   0.00000  Uiso   1.00
H244   H     0.82750   0.44093   0.00642   0.00000  Uiso   1.00
C245   C     0.81998   0.36782   0.00281   0.00000  Uiso   1.00
H246   H     0.81437   0.36873   0.29826   0.00000  Uiso   1.00
H247   H     0.85298   0.35654   0.00781   0.00000  Uiso   1.00
H248   H     0.79847   0.34247   0.01662   0.00000  Uiso   1.00
O249   O     0.77012   0.07809   0.29327   0.00000  Uiso   1.00
C250   C     0.81341   0.08513   0.30541   0.00000  Uiso   1.00
H251   H     0.83232   0.08368   0.27302   0.00000  Uiso   1.00
H252   H     0.82750   0.05907   0.32692   0.00000  Uiso   1.00
C253   C     0.81998   0.13218   0.33052   0.00000  Uiso   1.00
H254   H     0.81437   0.13127   0.03508   0.00000  Uiso   1.00
H255   H     0.85298   0.14346   0.32552   0.00000  Uiso   1.00
H256   H     0.79847   0.15753   0.31671   0.00000  Uiso   1.00
O257   O     0.75488   0.07971   0.05741   0.00000  Uiso   1.00
C258   C     0.72264   0.11108   0.04946   0.00000  Uiso   1.00
H259   H     0.69089   0.09470   0.04782   0.00000  Uiso   1.00
H260   H     0.72922   0.12755   0.01717   0.00000  Uiso   1.00
C261   C     0.72263   0.14887   0.08862   0.00000  Uiso   1.00
H262   H     0.75313   0.16747   0.08922   0.00000  Uiso   1.00
H263   H     0.69662   0.17313   0.08318   0.00000  Uiso   1.00
H264   H     0.71807   0.13467   0.12267   0.00000  Uiso   1.00
O265   O     0.75488   0.42029   0.27592   0.00000  Uiso   1.00
C266   C     0.72264   0.38892   0.28387   0.00000  Uiso   1.00
H267   H     0.69089   0.40530   0.28552   0.00000  Uiso   1.00
H268   H     0.72922   0.37245   0.31617   0.00000  Uiso   1.00
C269   C     0.72263   0.35113   0.24472   0.00000  Uiso   1.00
H270   H     0.75313   0.33253   0.24411   0.00000  Uiso   1.00
H271   H     0.69662   0.32687   0.25015   0.00000  Uiso   1.00
H272   H     0.71807   0.36533   0.21067   0.00000  Uiso   1.00
I273   I     0.92705   0.12538   0.06246   0.00000  Uiso   1.00
I274   I     0.52518   0.40820   0.21448   0.00000  Uiso   1.00
I275   I     0.63762   0.27128   0.10071   0.00000  Uiso   1.00
I276   I     0.86439   0.23000   0.23888   0.00000  Uiso   1.00
I277   I     0.63762   0.22872   0.23263   0.00000  Uiso   1.00
I278   I     0.86439   0.27000   0.09445   0.00000  Uiso   1.00
I279   I     0.92705   0.37462   0.27088   0.00000  Uiso   1.00
I280   I     0.52518   0.09180   0.11885   0.00000  Uiso   1.00
I281   I     0.67705   0.37538   0.06246   0.00000  Uiso   1.00
I282   I     0.77518   0.15820   0.21448   0.00000  Uiso   1.00
I283   I     0.88762   0.02128   0.10071   0.00000  Uiso   1.00
I284   I     0.61439   0.48000   0.23888   0.00000  Uiso   1.00
I285   I     0.88762   0.47872   0.23263   0.00000  Uiso   1.00
I286   I     0.61439   0.02000   0.09445   0.00000  Uiso   1.00
I287   I     0.67705   0.12462   0.27088   0.00000  Uiso   1.00
I288   I     0.77518   0.34180   0.11885   0.00000  Uiso   1.00
C289   C     0.05905   0.69022   0.16572   0.00000  Uiso   1.00
C290   C     0.43943   0.80825   0.16778   0.00000  Uiso   1.00
C291   C     0.43943   0.69175   0.16555   0.00000  Uiso   1.00
C292   C     0.05905   0.80978   0.16761   0.00000  Uiso   1.00
C293   C     0.30905   0.94022   0.16572   0.00000  Uiso   1.00
C294   C     0.18943   0.55825   0.16778   0.00000  Uiso   1.00
C295   C     0.18943   0.94175   0.16555   0.00000  Uiso   1.00
C296   C     0.30905   0.55978   0.16761   0.00000  Uiso   1.00
C297   C     0.00512   0.71034   0.02100   0.00000  Uiso   1.00
C298   C     0.00512   0.78966   0.31233   0.00000  Uiso   1.00
C299   C     0.00016   0.79005   0.02872   0.00000  Uiso   1.00
C300   C     0.00016   0.70995   0.30462   0.00000  Uiso   1.00
C301   C     0.25512   0.96034   0.02100   0.00000  Uiso   1.00
C302   C     0.25512   0.53966   0.31233   0.00000  Uiso   1.00
C303   C     0.25016   0.54005   0.02872   0.00000  Uiso   1.00
C304   C     0.25016   0.95995   0.30462   0.00000  Uiso   1.00
C305   C     0.40288   0.62258   0.13062   0.00000  Uiso   1.00
C306   C     0.08649   0.88652   0.19286   0.00000  Uiso   1.00
C307   C     0.12633   0.83630   0.13788   0.00000  Uiso   1.00
C308   C     0.36949   0.66818   0.19453   0.00000  Uiso   1.00
C309   C     0.12633   0.66370   0.19545   0.00000  Uiso   1.00
C310   C     0.36949   0.83182   0.13881   0.00000  Uiso   1.00
C311   C     0.40288   0.87742   0.20271   0.00000  Uiso   1.00
C312   C     0.08649   0.61348   0.14048   0.00000  Uiso   1.00
C313   C     0.15288   0.87258   0.13062   0.00000  Uiso   1.00
C314   C     0.33649   0.63652   0.19286   0.00000  Uiso   1.00
C315   C     0.37633   0.58630   0.13788   0.00000  Uiso   1.00
C316   C     0.11949   0.91818   0.19453   0.00000  Uiso   1.00
C317   C     0.37633   0.91370   0.19545   0.00000  Uiso   1.00
C318   C     0.11949   0.58182   0.13881   0.00000  Uiso   1.00
C319   C     0.15288   0.62742   0.20271   0.00000  Uiso   1.00
C320   C     0.33649   0.86348   0.14048   0.00000  Uiso   1.00
C321   C     0.09222   0.84365   0.16861   0.00000  Uiso   1.00
C322   C     0.40352   0.66063   0.16334   0.00000  Uiso   1.00
C323   C     0.40352   0.83937   0.16999   0.00000  Uiso   1.00
C324   C     0.09222   0.65635   0.16472   0.00000  Uiso   1.00
C325   C     0.34222   0.59365   0.16861   0.00000  Uiso   1.00
C326   C     0.15352   0.91063   0.16334   0.00000  Uiso   1.00
C327   C     0.15352   0.58937   0.16999   0.00000  Uiso   1.00
C328   C     0.34222   0.90635   0.16472   0.00000  Uiso   1.00
Cu329  Cu    0.00000   0.75000   0.21355   0.00000  Uiso   1.00
Cu330  Cu    0.00000   0.75000   0.11978   0.00000  Uiso   1.00
Cu331  Cu    0.25000   0.50000   0.21355   0.00000  Uiso   1.00
Cu332  Cu    0.25000   0.50000   0.11978   0.00000  Uiso   1.00
N333   N     0.00000   0.75000   0.28402   0.00000  Uiso   1.00
N334   N     0.00000   0.75000   0.04931   0.00000  Uiso   1.00
N335   N     0.25000   0.50000   0.28402   0.00000  Uiso   1.00
N336   N     0.25000   0.50000   0.04931   0.00000  Uiso   1.00
O337   O     0.04509   0.70491   0.20625   0.00000  Uiso   1.00
O338   O     0.45492   0.79509   0.12709   0.00000  Uiso   1.00
O339   O     0.45492   0.79509   0.20625   0.00000  Uiso   1.00
O340   O     0.04509   0.70491   0.12709   0.00000  Uiso   1.00
O341   O     0.45492   0.70491   0.12709   0.00000  Uiso   1.00
O342   O     0.04509   0.79509   0.20625   0.00000  Uiso   1.00
O343   O     0.04509   0.79509   0.12709   0.00000  Uiso   1.00
O344   O     0.45492   0.70491   0.20625   0.00000  Uiso   1.00
O345   O     0.29509   0.95491   0.20625   0.00000  Uiso   1.00
O346   O     0.20492   0.54509   0.12709   0.00000  Uiso   1.00
O347   O     0.20492   0.54509   0.20625   0.00000  Uiso   1.00
O348   O     0.29509   0.95491   0.12709   0.00000  Uiso   1.00
O349   O     0.20492   0.95491   0.12709   0.00000  Uiso   1.00
O350   O     0.29509   0.54509   0.20625   0.00000  Uiso   1.00
O351   O     0.29509   0.54509   0.12709   0.00000  Uiso   1.00
O352   O     0.20492   0.95491   0.20625   0.00000  Uiso   1.00
O353   O     0.02012   0.67191   0.04006   0.00000  Uiso   1.00
C354   C     0.06341   0.66487   0.02792   0.00000  Uiso   1.00
H355   H     0.08232   0.66632   0.06032   0.00000  Uiso   1.00
H356   H     0.07750   0.69093   0.00642   0.00000  Uiso   1.00
C357   C     0.06998   0.61782   0.00281   0.00000  Uiso   1.00
H358   H     0.06437   0.61873   0.29826   0.00000  Uiso   1.00
H359   H     0.10298   0.60654   0.00781   0.00000  Uiso   1.00
H360   H     0.04847   0.59247   0.01662   0.00000  Uiso   1.00
O361   O     0.02012   0.82809   0.29327   0.00000  Uiso   1.00
C362   C     0.06341   0.83513   0.30541   0.00000  Uiso   1.00
H363   H     0.08232   0.83368   0.27302   0.00000  Uiso   1.00
H364   H     0.07750   0.80907   0.32692   0.00000  Uiso   1.00
C365   C     0.06998   0.88218   0.33052   0.00000  Uiso   1.00
H366   H     0.06437   0.88127   0.03508   0.00000  Uiso   1.00
H367   H     0.10298   0.89346   0.32552   0.00000  Uiso   1.00
H368   H     0.04847   0.90753   0.31671   0.00000  Uiso   1.00
O369   O     0.00488   0.82971   0.05741   0.00000  Uiso   1.00
C370   C     0.47264   0.86108   0.04946   0.00000  Uiso   1.00
H371   H     0.44089   0.84470   0.04782   0.00000  Uiso   1.00
H372   H     0.47922   0.87755   0.01717   0.00000  Uiso   1.00
C373   C     0.47263   0.89887   0.08862   0.00000  Uiso   1.00
H374   H     0.00313   0.91747   0.08922   0.00000  Uiso   1.00
H375   H     0.44662   0.92313   0.08318   0.00000  Uiso   1.00
H376   H     0.46807   0.88467   0.12267   0.00000  Uiso   1.00
O377   O     0.00488   0.67029   0.27592   0.00000  Uiso   1.00
C378   C     0.47264   0.63892   0.28387   0.00000  Uiso   1.00
H379   H     0.44089   0.65530   0.28552   0.00000  Uiso   1.00
H380   H     0.47922   0.62245   0.31617   0.00000  Uiso   1.00
C381   C     0.47263   0.60113   0.24472   0.00000  Uiso   1.00
H382   H     0.00313   0.58253   0.24411   0.00000  Uiso   1.00
H383   H     0.44662   0.57687   0.25015   0.00000  Uiso   1.00
H384   H     0.46807   0.61533   0.21067   0.00000  Uiso   1.00
O385   O     0.27012   0.92191   0.04006   0.00000  Uiso   1.00
C386   C     0.31341   0.91487   0.02792   0.00000  Uiso   1.00
H387   H     0.33232   0.91632   0.06032   0.00000  Uiso   1.00
H388   H     0.32750   0.94093   0.00642   0.00000  Uiso   1.00
C389   C     0.31998   0.86782   0.00281   0.00000  Uiso   1.00
H390   H     0.31437   0.86873   0.29826   0.00000  Uiso   1.00
H391   H     0.35298   0.85654   0.00781   0.00000  Uiso   1.00
H392   H     0.29847   0.84247   0.01662   0.00000  Uiso   1.00
O393   O     0.27012   0.57809   0.29327   0.00000  Uiso   1.00
C394   C     0.31341   0.58513   0.30541   0.00000  Uiso   1.00
H395   H     0.33232   0.58368   0.27302   0.00000  Uiso   1.00
H396   H     0.32750   0.55907   0.32692   0.00000  Uiso   1.00
C397   C     0.31998   0.63218   0.33052   0.00000  Uiso   1.00
H398   H     0.31437   0.63127   0.03508   0.00000  Uiso   1.00
H399   H     0.35298   0.64346   0.32552   0.00000  Uiso   1.00
H400   H     0.29847   0.65753   0.31671   0.00000  Uiso   1.00
O401   O     0.25488   0.57971   0.05741   0.00000  Uiso   1.00
C402   C     0.22264   0.61108   0.04946   0.00000  Uiso   1.00
H403   H     0.19089   0.59470   0.04782   0.00000  Uiso   1.00
H404   H     0.22922   0.62755   0.01717   0.00000  Uiso   1.00
C405   C     0.22263   0.64887   0.08862   0.00000  Uiso   1.00
H406   H     0.25313   0.66747   0.08922   0.00000  Uiso   1.00
H407   H     0.19662   0.67313   0.08318   0.00000  Uiso   1.00
H408   H     0.21807   0.63467   0.12267   0.00000  Uiso   1.00
O409   O     0.25488   0.92029   0.27592   0.00000  Uiso   1.00
C410   C     0.22264   0.88892   0.28387   0.00000  Uiso   1.00
H411   H     0.19089   0.90530   0.28552   0.00000  Uiso   1.00
H412   H     0.22922   0.87245   0.31617   0.00000  Uiso   1.00
C413   C     0.22263   0.85113   0.24472   0.00000  Uiso   1.00
H414   H     0.25313   0.83253   0.24411   0.00000  Uiso   1.00
H415   H     0.19662   0.82687   0.25015   0.00000  Uiso   1.00
H416   H     0.21807   0.86533   0.21067   0.00000  Uiso   1.00
I417   I     0.42705   0.62538   0.06246   0.00000  Uiso   1.00
I418   I     0.02518   0.90820   0.21448   0.00000  Uiso   1.00
I419   I     0.13762   0.77128   0.10071   0.00000  Uiso   1.00
I420   I     0.36439   0.73000   0.23888   0.00000  Uiso   1.00
I421   I     0.13762   0.72872   0.23263   0.00000  Uiso   1.00
I422   I     0.36439   0.77000   0.09445   0.00000  Uiso   1.00
I423   I     0.42705   0.87462   0.27088   0.00000  Uiso   1.00
I424   I     0.02518   0.59180   0.11885   0.00000  Uiso   1.00
I425   I     0.17705   0.87538   0.06246   0.00000  Uiso   1.00
I426   I     0.27518   0.65820   0.21448   0.00000  Uiso   1.00
I427   I     0.38762   0.52128   0.10071   0.00000  Uiso   1.00
I428   I     0.11439   0.98000   0.23888   0.00000  Uiso   1.00
I429   I     0.38762   0.97872   0.23263   0.00000  Uiso   1.00
I430   I     0.11439   0.52000   0.09445   0.00000  Uiso   1.00
I431   I     0.17705   0.62462   0.27088   0.00000  Uiso   1.00
I432   I     0.27518   0.84180   0.11885   0.00000  Uiso   1.00
C433   C     0.55905   0.69022   0.16572   0.00000  Uiso   1.00
C434   C     0.93943   0.80825   0.16778   0.00000  Uiso   1.00
C435   C     0.93943   0.69175   0.16555   0.00000  Uiso   1.00
C436   C     0.55905   0.80978   0.16761   0.00000  Uiso   1.00
C437   C     0.80905   0.94022   0.16572   0.00000  Uiso   1.00
C438   C     0.68943   0.55825   0.16778   0.00000  Uiso   1.00
C439   C     0.68943   0.94175   0.16555   0.00000  Uiso   1.00
C440   C     0.80905   0.55978   0.16761   0.00000  Uiso   1.00
C441   C     0.50512   0.71034   0.02100   0.00000  Uiso   1.00
C442   C     0.50512   0.78966   0.31233   0.00000  Uiso   1.00
C443   C     0.50016   0.79005   0.02872   0.00000  Uiso   1.00
C444   C     0.50016   0.70995   0.30462   0.00000  Uiso   1.00
C445   C     0.75512   0.96034   0.02100   0.00000  Uiso   1.00
C446   C     0.75512   0.53966   0.31233   0.00000  Uiso   1.00
C447   C     0.75016   0.54005   0.02872   0.00000  Uiso   1.00
C448   C     0.75016   0.95995   0.30462   0.00000  Uiso   1.00
C449   C     0.90288   0.62258   0.13062   0.00000  Uiso   1.00
C450   C     0.58649   0.88652   0.19286   0.00000  Uiso   1.00
C451   C     0.62633   0.83630   0.13788   0.00000  Uiso   1.00
C452   C     0.86949   0.66818   0.19453   0.00000  Uiso   1.00
C453   C     0.62633   0.66370   0.19545   0.00000  Uiso   1.00
C454   C     0.86949   0.83182   0.13881   0.00000  Uiso   1.00
C455   C     0.90288   0.87742   0.20271   0.00000  Uiso   1.00
C456   C     0.58649   0.61348   0.14048   0.00000  Uiso   1.00
C457   C     0.65288   0.87258   0.13062   0.00000  Uiso   1.00
C458   C     0.83649   0.63652   0.19286   0.00000  Uiso   1.00
C459   C     0.87633   0.58630   0.13788   0.00000  Uiso   1.00
C460   C     0.61949   0.91818   0.19453   0.00000  Uiso   1.00
C461   C     0.87633   0.91370   0.19545   0.00000  Uiso   1.00
C462   C     0.61949   0.58182   0.13881   0.00000  Uiso   1.00
C463   C     0.65288   0.62742   0.20271   0.00000  Uiso   1.00
C464   C     0.83649   0.86348   0.14048   0.00000  Uiso   1.00
C465   C     0.59222   0.84365   0.16861   0.00000  Uiso   1.00
C466   C     0.90352   0.66063   0.16334   0.00000  Uiso   1.00
C467   C     0.90352   0.83937   0.16999   0.00000  Uiso   1.00
C468   C     0.59222   0.65635   0.16472   0.00000  Uiso   1.00
C469   C     0.84222   0.59365   0.16861   0.00000  Uiso   1.00
C470   C     0.65352   0.91063   0.16334   0.00000  Uiso   1.00
C471   C     0.65352   0.58937   0.16999   0.00000  Uiso   1.00
C472   C     0.84222   0.90635   0.16472   0.00000  Uiso   1.00
Cu473  Cu    0.50000   0.75000   0.21355   0.00000  Uiso   1.00
Cu474  Cu    0.50000   0.75000   0.11978   0.00000  Uiso   1.00
Cu475  Cu    0.75000   0.50000   0.21355   0.00000  Uiso   1.00
Cu476  Cu    0.75000   0.50000   0.11978   0.00000  Uiso   1.00
N477   N     0.50000   0.75000   0.28402   0.00000  Uiso   1.00
N478   N     0.50000   0.75000   0.04931   0.00000  Uiso   1.00
N479   N     0.75000   0.50000   0.28402   0.00000  Uiso   1.00
N480   N     0.75000   0.50000   0.04931   0.00000  Uiso   1.00
O481   O     0.54509   0.70491   0.20625   0.00000  Uiso   1.00
O482   O     0.95492   0.79509   0.12709   0.00000  Uiso   1.00
O483   O     0.95492   0.79509   0.20625   0.00000  Uiso   1.00
O484   O     0.54509   0.70491   0.12709   0.00000  Uiso   1.00
O485   O     0.95492   0.70491   0.12709   0.00000  Uiso   1.00
O486   O     0.54509   0.79509   0.20625   0.00000  Uiso   1.00
O487   O     0.54509   0.79509   0.12709   0.00000  Uiso   1.00
O488   O     0.95492   0.70491   0.20625   0.00000  Uiso   1.00
O489   O     0.79509   0.95491   0.20625   0.00000  Uiso   1.00
O490   O     0.70492   0.54509   0.12709   0.00000  Uiso   1.00
O491   O     0.70492   0.54509   0.20625   0.00000  Uiso   1.00
O492   O     0.79509   0.95491   0.12709   0.00000  Uiso   1.00
O493   O     0.70492   0.95491   0.12709   0.00000  Uiso   1.00
O494   O     0.79509   0.54509   0.20625   0.00000  Uiso   1.00
O495   O     0.79509   0.54509   0.12709   0.00000  Uiso   1.00
O496   O     0.70492   0.95491   0.20625   0.00000  Uiso   1.00
O497   O     0.52012   0.67191   0.04006   0.00000  Uiso   1.00
C498   C     0.56341   0.66487   0.02792   0.00000  Uiso   1.00
H499   H     0.58232   0.66632   0.06032   0.00000  Uiso   1.00
H500   H     0.57750   0.69093   0.00642   0.00000  Uiso   1.00
C501   C     0.56998   0.61782   0.00281   0.00000  Uiso   1.00
H502   H     0.56437   0.61873   0.29826   0.00000  Uiso   1.00
H503   H     0.60298   0.60654   0.00781   0.00000  Uiso   1.00
H504   H     0.54847   0.59247   0.01662   0.00000  Uiso   1.00
O505   O     0.52012   0.82809   0.29327   0.00000  Uiso   1.00
C506   C     0.56341   0.83513   0.30541   0.00000  Uiso   1.00
H507   H     0.58232   0.83368   0.27302   0.00000  Uiso   1.00
H508   H     0.57750   0.80907   0.32692   0.00000  Uiso   1.00
C509   C     0.56998   0.88218   0.33052   0.00000  Uiso   1.00
H510   H     0.56437   0.88127   0.03508   0.00000  Uiso   1.00
H511   H     0.60298   0.89346   0.32552   0.00000  Uiso   1.00
H512   H     0.54847   0.90753   0.31671   0.00000  Uiso   1.00
O513   O     0.50488   0.82971   0.05741   0.00000  Uiso   1.00
C514   C     0.97264   0.86108   0.04946   0.00000  Uiso   1.00
H515   H     0.94089   0.84470   0.04782   0.00000  Uiso   1.00
H516   H     0.97922   0.87755   0.01717   0.00000  Uiso   1.00
C517   C     0.97263   0.89887   0.08862   0.00000  Uiso   1.00
H518   H     0.50313   0.91747   0.08922   0.00000  Uiso   1.00
H519   H     0.94662   0.92313   0.08318   0.00000  Uiso   1.00
H520   H     0.96807   0.88467   0.12267   0.00000  Uiso   1.00
O521   O     0.50488   0.67029   0.27592   0.00000  Uiso   1.00
C522   C     0.97264   0.63892   0.28387   0.00000  Uiso   1.00
H523   H     0.94089   0.65530   0.28552   0.00000  Uiso   1.00
H524   H     0.97922   0.62245   0.31617   0.00000  Uiso   1.00
C525   C     0.97263   0.60113   0.24472   0.00000  Uiso   1.00
H526   H     0.50313   0.58253   0.24411   0.00000  Uiso   1.00
H527   H     0.94662   0.57687   0.25015   0.00000  Uiso   1.00
H528   H     0.96807   0.61533   0.21067   0.00000  Uiso   1.00
O529   O     0.77012   0.92191   0.04006   0.00000  Uiso   1.00
C530   C     0.81341   0.91487   0.02792   0.00000  Uiso   1.00
H531   H     0.83232   0.91632   0.06032   0.00000  Uiso   1.00
H532   H     0.82750   0.94093   0.00642   0.00000  Uiso   1.00
C533   C     0.81998   0.86782   0.00281   0.00000  Uiso   1.00
H534   H     0.81437   0.86873   0.29826   0.00000  Uiso   1.00
H535   H     0.85298   0.85654   0.00781   0.00000  Uiso   1.00
H536   H     0.79847   0.84247   0.01662   0.00000  Uiso   1.00
O537   O     0.77012   0.57809   0.29327   0.00000  Uiso   1.00
C538   C     0.81341   0.58513   0.30541   0.00000  Uiso   1.00
H539   H     0.83232   0.58368   0.27302   0.00000  Uiso   1.00
H540   H     0.82750   0.55907   0.32692   0.00000  Uiso   1.00
C541   C     0.81998   0.63218   0.33052   0.00000  Uiso   1.00
H542   H     0.81437   0.63127   0.03508   0.00000  Uiso   1.00
H543   H     0.85298   0.64346   0.32552   0.00000  Uiso   1.00
H544   H     0.79847   0.65753   0.31671   0.00000  Uiso   1.00
O545   O     0.75488   0.57971   0.05741   0.00000  Uiso   1.00
C546   C     0.72264   0.61108   0.04946   0.00000  Uiso   1.00
H547   H     0.69089   0.59470   0.04782   0.00000  Uiso   1.00
H548   H     0.72922   0.62755   0.01717   0.00000  Uiso   1.00
C549   C     0.72263   0.64887   0.08862   0.00000  Uiso   1.00
H550   H     0.75313   0.66747   0.08922   0.00000  Uiso   1.00
H551   H     0.69662   0.67313   0.08318   0.00000  Uiso   1.00
H552   H     0.71807   0.63467   0.12267   0.00000  Uiso   1.00
O553   O     0.75488   0.92029   0.27592   0.00000  Uiso   1.00
C554   C     0.72264   0.88892   0.28387   0.00000  Uiso   1.00
H555   H     0.69089   0.90530   0.28552   0.00000  Uiso   1.00
H556   H     0.72922   0.87245   0.31617   0.00000  Uiso   1.00
C557   C     0.72263   0.85113   0.24472   0.00000  Uiso   1.00
H558   H     0.75313   0.83253   0.24411   0.00000  Uiso   1.00
H559   H     0.69662   0.82687   0.25015   0.00000  Uiso   1.00
H560   H     0.71807   0.86533   0.21067   0.00000  Uiso   1.00
I561   I     0.92705   0.62538   0.06246   0.00000  Uiso   1.00
I562   I     0.52518   0.90820   0.21448   0.00000  Uiso   1.00
I563   I     0.63762   0.77128   0.10071   0.00000  Uiso   1.00
I564   I     0.86439   0.73000   0.23888   0.00000  Uiso   1.00
I565   I     0.63762   0.72872   0.23263   0.00000  Uiso   1.00
I566   I     0.86439   0.77000   0.09445   0.00000  Uiso   1.00
I567   I     0.92705   0.87462   0.27088   0.00000  Uiso   1.00
I568   I     0.52518   0.59180   0.11885   0.00000  Uiso   1.00
I569   I     0.67705   0.87538   0.06246   0.00000  Uiso   1.00
I570   I     0.77518   0.65820   0.21448   0.00000  Uiso   1.00
I571   I     0.88762   0.52128   0.10071   0.00000  Uiso   1.00
I572   I     0.61439   0.98000   0.23888   0.00000  Uiso   1.00
I573   I     0.88762   0.97872   0.23263   0.00000  Uiso   1.00
I574   I     0.61439   0.52000   0.09445   0.00000  Uiso   1.00
I575   I     0.67705   0.62462   0.27088   0.00000  Uiso   1.00
I576   I     0.77518   0.84180   0.11885   0.00000  Uiso   1.00
C577   C     0.05905   0.19022   0.49906   0.00000  Uiso   1.00
C578   C     0.43943   0.30825   0.50111   0.00000  Uiso   1.00
C579   C     0.43943   0.19175   0.49889   0.00000  Uiso   1.00
C580   C     0.05905   0.30978   0.50094   0.00000  Uiso   1.00
C581   C     0.30905   0.44022   0.49906   0.00000  Uiso   1.00
C582   C     0.18943   0.05825   0.50111   0.00000  Uiso   1.00
C583   C     0.18943   0.44175   0.49889   0.00000  Uiso   1.00
C584   C     0.30905   0.05978   0.50094   0.00000  Uiso   1.00
C585   C     0.00512   0.21034   0.35434   0.00000  Uiso   1.00
C586   C     0.00512   0.28966   0.64566   0.00000  Uiso   1.00
C587   C     0.00016   0.29005   0.36205   0.00000  Uiso   1.00
C588   C     0.00016   0.20995   0.63795   0.00000  Uiso   1.00
C589   C     0.25512   0.46034   0.35434   0.00000  Uiso   1.00
C590   C     0.25512   0.03966   0.64566   0.00000  Uiso   1.00
C591   C     0.25016   0.04005   0.36205   0.00000  Uiso   1.00
C592   C     0.25016   0.45995   0.63795   0.00000  Uiso   1.00
C593   C     0.40288   0.12258   0.46395   0.00000  Uiso   1.00
C594   C     0.08649   0.38652   0.52619   0.00000  Uiso   1.00
C595   C     0.12633   0.33630   0.47121   0.00000  Uiso   1.00
C596   C     0.36949   0.16818   0.52786   0.00000  Uiso   1.00
C597   C     0.12633   0.16370   0.52879   0.00000  Uiso   1.00
C598   C     0.36949   0.33182   0.47214   0.00000  Uiso   1.00
C599   C     0.40288   0.37742   0.53605   0.00000  Uiso   1.00
C600   C     0.08649   0.11348   0.47381   0.00000  Uiso   1.00
C601   C     0.15288   0.37258   0.46395   0.00000  Uiso   1.00
C602   C     0.33649   0.13652   0.52619   0.00000  Uiso   1.00
C603   C     0.37633   0.08630   0.47121   0.00000  Uiso   1.00
C604   C     0.11949   0.41818   0.52786   0.00000  Uiso   1.00
C605   C     0.37633   0.41370   0.52879   0.00000  Uiso   1.00
C606   C     0.11949   0.08182   0.47214   0.00000  Uiso   1.00
C607   C     0.15288   0.12742   0.53605   0.00000  Uiso   1.00
C608   C     0.33649   0.36348   0.47381   0.00000  Uiso   1.00
C609   C     0.09222   0.34365   0.50195   0.00000  Uiso   1.00
C610   C     0.40352   0.16063   0.49667   0.00000  Uiso   1.00
C611   C     0.40352   0.33937   0.50333   0.00000  Uiso   1.00
C612   C     0.09222   0.15635   0.49805   0.00000  Uiso   1.00
C613   C     0.34222   0.09365   0.50195   0.00000  Uiso   1.00
C614   C     0.15352   0.41063   0.49667   0.00000  Uiso   1.00
C615   C     0.15352   0.08937   0.50333   0.00000  Uiso   1.00
C616   C     0.34222   0.40635   0.49805   0.00000  Uiso   1.00
Cu617  Cu    0.00000   0.25000   0.54689   0.00000  Uiso   1.00
Cu618  Cu    0.00000   0.25000   0.45311   0.00000  Uiso   1.00
Cu619  Cu    0.25000   0.00000   0.54689   0.00000  Uiso   1.00
Cu620  Cu    0.25000   0.00000   0.45311   0.00000  Uiso   1.00
N621   N     0.00000   0.25000   0.61736   0.00000  Uiso   1.00
N622   N     0.00000   0.25000   0.38264   0.00000  Uiso   1.00
N623   N     0.25000   0.00000   0.61736   0.00000  Uiso   1.00
N624   N     0.25000   0.00000   0.38264   0.00000  Uiso   1.00
O625   O     0.04509   0.20491   0.53958   0.00000  Uiso   1.00
O626   O     0.45492   0.29509   0.46042   0.00000  Uiso   1.00
O627   O     0.45492   0.29509   0.53958   0.00000  Uiso   1.00
O628   O     0.04509   0.20491   0.46042   0.00000  Uiso   1.00
O629   O     0.45492   0.20491   0.46042   0.00000  Uiso   1.00
O630   O     0.04509   0.29509   0.53958   0.00000  Uiso   1.00
O631   O     0.04509   0.29509   0.46042   0.00000  Uiso   1.00
O632   O     0.45492   0.20491   0.53958   0.00000  Uiso   1.00
O633   O     0.29509   0.45491   0.53958   0.00000  Uiso   1.00
O634   O     0.20492   0.04509   0.46042   0.00000  Uiso   1.00
O635   O     0.20492   0.04509   0.53958   0.00000  Uiso   1.00
O636   O     0.29509   0.45491   0.46042   0.00000  Uiso   1.00
O637   O     0.20492   0.45491   0.46042   0.00000  Uiso   1.00
O638   O     0.29509   0.04509   0.53958   0.00000  Uiso   1.00
O639   O     0.29509   0.04509   0.46042   0.00000  Uiso   1.00
O640   O     0.20492   0.45491   0.53958   0.00000  Uiso   1.00
O641   O     0.02012   0.17191   0.37339   0.00000  Uiso   1.00
C642   C     0.06341   0.16487   0.36125   0.00000  Uiso   1.00
H643   H     0.08232   0.16632   0.39365   0.00000  Uiso   1.00
H644   H     0.07750   0.19093   0.33975   0.00000  Uiso   1.00
C645   C     0.06998   0.11782   0.33615   0.00000  Uiso   1.00
H646   H     0.06437   0.11873   0.63159   0.00000  Uiso   1.00
H647   H     0.10298   0.10654   0.34115   0.00000  Uiso   1.00
H648   H     0.04847   0.09247   0.34996   0.00000  Uiso   1.00
O649   O     0.02012   0.32809   0.62661   0.00000  Uiso   1.00
C650   C     0.06341   0.33513   0.63875   0.00000  Uiso   1.00
H651   H     0.08232   0.33368   0.60635   0.00000  Uiso   1.00
H652   H     0.07750   0.30907   0.66025   0.00000  Uiso   1.00
C653   C     0.06998   0.38218   0.66385   0.00000  Uiso   1.00
H654   H     0.06437   0.38127   0.36841   0.00000  Uiso   1.00
H655   H     0.10298   0.39346   0.65885   0.00000  Uiso   1.00
H656   H     0.04847   0.40753   0.65004   0.00000  Uiso   1.00
O657   O     0.00488   0.32971   0.39075   0.00000  Uiso   1.00
C658   C     0.47264   0.36108   0.38280   0.00000  Uiso   1.00
H659   H     0.44089   0.34470   0.38115   0.00000  Uiso   1.00
H660   H     0.47922   0.37755   0.35050   0.00000  Uiso   1.00
C661   C     0.47263   0.39887   0.42195   0.00000  Uiso   1.00
H662   H     0.00313   0.41747   0.42256   0.00000  Uiso   1.00
H663   H     0.44662   0.42313   0.41652   0.00000  Uiso   1.00
H664   H     0.46807   0.38467   0.45600   0.00000  Uiso   1.00
O665   O     0.00488   0.17029   0.60925   0.00000  Uiso   1.00
C666   C     0.47264   0.13892   0.61720   0.00000  Uiso   1.00
H667   H     0.44089   0.15530   0.61885   0.00000  Uiso   1.00
H668   H     0.47922   0.12245   0.64950   0.00000  Uiso   1.00
C669   C     0.47263   0.10113   0.57805   0.00000  Uiso   1.00
H670   H     0.00313   0.08253   0.57744   0.00000  Uiso   1.00
H671   H     0.44662   0.07687   0.58348   0.00000  Uiso   1.00
H672   H     0.46807   0.11533   0.54400   0.00000  Uiso   1.00
O673   O     0.27012   0.42191   0.37339   0.00000  Uiso   1.00
C674   C     0.31341   0.41487   0.36125   0.00000  Uiso   1.00
H675   H     0.33232   0.41632   0.39365   0.00000  Uiso   1.00
H676   H     0.32750   0.44093   0.33975   0.00000  Uiso   1.00
C677   C     0.31998   0.36782   0.33615   0.00000  Uiso   1.00
H678   H     0.31437   0.36873   0.63159   0.00000  Uiso   1.00
H679   H     0.35298   0.35654   0.34115   0.00000  Uiso   1.00
H680   H     0.29847   0.34247   0.34996   0.00000  Uiso   1.00
O681   O     0.27012   0.07809   0.62661   0.00000  Uiso   1.00
C682   C     0.31341   0.08513   0.63875   0.00000  Uiso   1.00
H683   H     0.33232   0.08368   0.60635   0.00000  Uiso   1.00
H684   H     0.32750   0.05907   0.66025   0.00000  Uiso   1.00
C685   C     0.31998   0.13218   0.66385   0.00000  Uiso   1.00
H686   H     0.31437   0.13127   0.36841   0.00000  Uiso   1.00
H687   H     0.35298   0.14346   0.65885   0.00000  Uiso   1.00
H688   H     0.29847   0.15753   0.65004   0.00000  Uiso   1.00
O689   O     0.25488   0.07971   0.39075   0.00000  Uiso   1.00
C690   C     0.22264   0.11108   0.38280   0.00000  Uiso   1.00
H691   H     0.19089   0.09470   0.38115   0.00000  Uiso   1.00
H692   H     0.22922   0.12755   0.35050   0.00000  Uiso   1.00
C693   C     0.22263   0.14887   0.42195   0.00000  Uiso   1.00
H694   H     0.25313   0.16747   0.42256   0.00000  Uiso   1.00
H695   H     0.19662   0.17313   0.41652   0.00000  Uiso   1.00
H696   H     0.21807   0.13467   0.45600   0.00000  Uiso   1.00
O697   O     0.25488   0.42029   0.60925   0.00000  Uiso   1.00
C698   C     0.22264   0.38892   0.61720   0.00000  Uiso   1.00
H699   H     0.19089   0.40530   0.61885   0.00000  Uiso   1.00
H700   H     0.22922   0.37245   0.64950   0.00000  Uiso   1.00
C701   C     0.22263   0.35113   0.57805   0.00000  Uiso   1.00
H702   H     0.25313   0.33253   0.57744   0.00000  Uiso   1.00
H703   H     0.19662   0.32687   0.58348   0.00000  Uiso   1.00
H704   H     0.21807   0.36533   0.54400   0.00000  Uiso   1.00
I705   I     0.42705   0.12538   0.39579   0.00000  Uiso   1.00
I706   I     0.02518   0.40820   0.54782   0.00000  Uiso   1.00
I707   I     0.13762   0.27128   0.43404   0.00000  Uiso   1.00
I708   I     0.36439   0.23000   0.57221   0.00000  Uiso   1.00
I709   I     0.13762   0.22872   0.56596   0.00000  Uiso   1.00
I710   I     0.36439   0.27000   0.42779   0.00000  Uiso   1.00
I711   I     0.42705   0.37462   0.60421   0.00000  Uiso   1.00
I712   I     0.02518   0.09180   0.45218   0.00000  Uiso   1.00
I713   I     0.17705   0.37538   0.39579   0.00000  Uiso   1.00
I714   I     0.27518   0.15820   0.54782   0.00000  Uiso   1.00
I715   I     0.38762   0.02128   0.43404   0.00000  Uiso   1.00
I716   I     0.11439   0.48000   0.57221   0.00000  Uiso   1.00
I717   I     0.38762   0.47872   0.56596   0.00000  Uiso   1.00
I718   I     0.11439   0.02000   0.42779   0.00000  Uiso   1.00
I719   I     0.17705   0.12462   0.60421   0.00000  Uiso   1.00
I720   I     0.27518   0.34180   0.45218   0.00000  Uiso   1.00
C721   C     0.55905   0.19022   0.49906   0.00000  Uiso   1.00
C722   C     0.93943   0.30825   0.50111   0.00000  Uiso   1.00
C723   C     0.93943   0.19175   0.49889   0.00000  Uiso   1.00
C724   C     0.55905   0.30978   0.50094   0.00000  Uiso   1.00
C725   C     0.80905   0.44022   0.49906   0.00000  Uiso   1.00
C726   C     0.68943   0.05825   0.50111   0.00000  Uiso   1.00
C727   C     0.68943   0.44175   0.49889   0.00000  Uiso   1.00
C728   C     0.80905   0.05978   0.50094   0.00000  Uiso   1.00
C729   C     0.50512   0.21034   0.35434   0.00000  Uiso   1.00
C730   C     0.50512   0.28966   0.64566   0.00000  Uiso   1.00
C731   C     0.50016   0.29005   0.36205   0.00000  Uiso   1.00
C732   C     0.50016   0.20995   0.63795   0.00000  Uiso   1.00
C733   C     0.75512   0.46034   0.35434   0.00000  Uiso   1.00
C734   C     0.75512   0.03966   0.64566   0.00000  Uiso   1.00
C735   C     0.75016   0.04005   0.36205   0.00000  Uiso   1.00
C736   C     0.75016   0.45995   0.63795   0.00000  Uiso   1.00
C737   C     0.90288   0.12258   0.46395   0.00000  Uiso   1.00
C738   C     0.58649   0.38652   0.52619   0.00000  Uiso   1.00
C739   C     0.62633   0.33630   0.47121   0.00000  Uiso   1.00
C740   C     0.86949   0.16818   0.52786   0.00000  Uiso   1.00
C741   C     0.62633   0.16370   0.52879   0.00000  Uiso   1.00
C742   C     0.86949   0.33182   0.47214   0.00000  Uiso   1.00
C743   C     0.90288   0.37742   0.53605   0.00000  Uiso   1.00
C744   C     0.58649   0.11348   0.47381   0.00000  Uiso   1.00
C745   C     0.65288   0.37258   0.46395   0.00000  Uiso   1.00
C746   C     0.83649   0.13652   0.52619   0.00000  Uiso   1.00
C747   C     0.87633   0.08630   0.47121   0.00000  Uiso   1.00
C748   C     0.61949   0.41818   0.52786   0.00000  Uiso   1.00
C749   C     0.87633   0.41370   0.52879   0.00000  Uiso   1.00
C750   C     0.61949   0.08182   0.47214   0.00000  Uiso   1.00
C751   C     0.65288   0.12742   0.53605   0.00000  Uiso   1.00
C752   C     0.83649   0.36348   0.47381   0.00000  Uiso   1.00
C753   C     0.59222   0.34365   0.50195   0.00000  Uiso   1.00
C754   C     0.90352   0.16063   0.49667   0.00000  Uiso   1.00
C755   C     0.90352   0.33937   0.50333   0.00000  Uiso   1.00
C756   C     0.59222   0.15635   0.49805   0.00000  Uiso   1.00
C757   C     0.84222   0.09365   0.50195   0.00000  Uiso   1.00
C758   C     0.65352   0.41063   0.49667   0.00000  Uiso   1.00
C759   C     0.65352   0.08937   0.50333   0.00000  Uiso   1.00
C760   C     0.84222   0.40635   0.49805   0.00000  Uiso   1.00
Cu761  Cu    0.50000   0.25000   0.54689   0.00000  Uiso   1.00
Cu762  Cu    0.50000   0.25000   0.45311   0.00000  Uiso   1.00
Cu763  Cu    0.75000   0.00000   0.54689   0.00000  Uiso   1.00
Cu764  Cu    0.75000   0.00000   0.45311   0.00000  Uiso   1.00
N765   N     0.50000   0.25000   0.61736   0.00000  Uiso   1.00
N766   N     0.50000   0.25000   0.38264   0.00000  Uiso   1.00
N767   N     0.75000   0.00000   0.61736   0.00000  Uiso   1.00
N768   N     0.75000   0.00000   0.38264   0.00000  Uiso   1.00
O769   O     0.54509   0.20491   0.53958   0.00000  Uiso   1.00
O770   O     0.95492   0.29509   0.46042   0.00000  Uiso   1.00
O771   O     0.95492   0.29509   0.53958   0.00000  Uiso   1.00
O772   O     0.54509   0.20491   0.46042   0.00000  Uiso   1.00
O773   O     0.95492   0.20491   0.46042   0.00000  Uiso   1.00
O774   O     0.54509   0.29509   0.53958   0.00000  Uiso   1.00
O775   O     0.54509   0.29509   0.46042   0.00000  Uiso   1.00
O776   O     0.95492   0.20491   0.53958   0.00000  Uiso   1.00
O777   O     0.79509   0.45491   0.53958   0.00000  Uiso   1.00
O778   O     0.70492   0.04509   0.46042   0.00000  Uiso   1.00
O779   O     0.70492   0.04509   0.53958   0.00000  Uiso   1.00
O780   O     0.79509   0.45491   0.46042   0.00000  Uiso   1.00
O781   O     0.70492   0.45491   0.46042   0.00000  Uiso   1.00
O782   O     0.79509   0.04509   0.53958   0.00000  Uiso   1.00
O783   O     0.79509   0.04509   0.46042   0.00000  Uiso   1.00
O784   O     0.70492   0.45491   0.53958   0.00000  Uiso   1.00
O785   O     0.52012   0.17191   0.37339   0.00000  Uiso   1.00
C786   C     0.56341   0.16487   0.36125   0.00000  Uiso   1.00
H787   H     0.58232   0.16632   0.39365   0.00000  Uiso   1.00
H788   H     0.57750   0.19093   0.33975   0.00000  Uiso   1.00
C789   C     0.56998   0.11782   0.33615   0.00000  Uiso   1.00
H790   H     0.56437   0.11873   0.63159   0.00000  Uiso   1.00
H791   H     0.60298   0.10654   0.34115   0.00000  Uiso   1.00
H792   H     0.54847   0.09247   0.34996   0.00000  Uiso   1.00
O793   O     0.52012   0.32809   0.62661   0.00000  Uiso   1.00
C794   C     0.56341   0.33513   0.63875   0.00000  Uiso   1.00
H795   H     0.58232   0.33368   0.60635   0.00000  Uiso   1.00
H796   H     0.57750   0.30907   0.66025   0.00000  Uiso   1.00
C797   C     0.56998   0.38218   0.66385   0.00000  Uiso   1.00
H798   H     0.56437   0.38127   0.36841   0.00000  Uiso   1.00
H799   H     0.60298   0.39346   0.65885   0.00000  Uiso   1.00
H800   H     0.54847   0.40753   0.65004   0.00000  Uiso   1.00
O801   O     0.50488   0.32971   0.39075   0.00000  Uiso   1.00
C802   C     0.97264   0.36108   0.38280   0.00000  Uiso   1.00
H803   H     0.94089   0.34470   0.38115   0.00000  Uiso   1.00
H804   H     0.97922   0.37755   0.35050   0.00000  Uiso   1.00
C805   C     0.97263   0.39887   0.42195   0.00000  Uiso   1.00
H806   H     0.50313   0.41747   0.42256   0.00000  Uiso   1.00
H807   H     0.94662   0.42313   0.41652   0.00000  Uiso   1.00
H808   H     0.96807   0.38467   0.45600   0.00000  Uiso   1.00
O809   O     0.50488   0.17029   0.60925   0.00000  Uiso   1.00
C810   C     0.97264   0.13892   0.61720   0.00000  Uiso   1.00
H811   H     0.94089   0.15530   0.61885   0.00000  Uiso   1.00
H812   H     0.97922   0.12245   0.64950   0.00000  Uiso   1.00
C813   C     0.97263   0.10113   0.57805   0.00000  Uiso   1.00
H814   H     0.50313   0.08253   0.57744   0.00000  Uiso   1.00
H815   H     0.94662   0.07687   0.58348   0.00000  Uiso   1.00
H816   H     0.96807   0.11533   0.54400   0.00000  Uiso   1.00
O817   O     0.77012   0.42191   0.37339   0.00000  Uiso   1.00
C818   C     0.81341   0.41487   0.36125   0.00000  Uiso   1.00
H819   H     0.83232   0.41632   0.39365   0.00000  Uiso   1.00
H820   H     0.82750   0.44093   0.33975   0.00000  Uiso   1.00
C821   C     0.81998   0.36782   0.33615   0.00000  Uiso   1.00
H822   H     0.81437   0.36873   0.63159   0.00000  Uiso   1.00
H823   H     0.85298   0.35654   0.34115   0.00000  Uiso   1.00
H824   H     0.79847   0.34247   0.34996   0.00000  Uiso   1.00
O825   O     0.77012   0.07809   0.62661   0.00000  Uiso   1.00
C826   C     0.81341   0.08513   0.63875   0.00000  Uiso   1.00
H827   H     0.83232   0.08368   0.60635   0.00000  Uiso   1.00
H828   H     0.82750   0.05907   0.66025   0.00000  Uiso   1.00
C829   C     0.81998   0.13218   0.66385   0.00000  Uiso   1.00
H830   H     0.81437   0.13127   0.36841   0.00000  Uiso   1.00
H831   H     0.85298   0.14346   0.65885   0.00000  Uiso   1.00
H832   H     0.79847   0.15753   0.65004   0.00000  Uiso   1.00
O833   O     0.75488   0.07971   0.39075   0.00000  Uiso   1.00
C834   C     0.72264   0.11108   0.38280   0.00000  Uiso   1.00
H835   H     0.69089   0.09470   0.38115   0.00000  Uiso   1.00
H836   H     0.72922   0.12755   0.35050   0.00000  Uiso   1.00
C837   C     0.72263   0.14887   0.42195   0.00000  Uiso   1.00
H838   H     0.75313   0.16747   0.42256   0.00000  Uiso   1.00
H839   H     0.69662   0.17313   0.41652   0.00000  Uiso   1.00
H840   H     0.71807   0.13467   0.45600   0.00000  Uiso   1.00
O841   O     0.75488   0.42029   0.60925   0.00000  Uiso   1.00
C842   C     0.72264   0.38892   0.61720   0.00000  Uiso   1.00
H843   H     0.69089   0.40530   0.61885   0.00000  Uiso   1.00
H844   H     0.72922   0.37245   0.64950   0.00000  Uiso   1.00
C845   C     0.72263   0.35113   0.57805   0.00000  Uiso   1.00
H846   H     0.75313   0.33253   0.57744   0.00000  Uiso   1.00
H847   H     0.69662   0.32687   0.58348   0.00000  Uiso   1.00
H848   H     0.71807   0.36533   0.54400   0.00000  Uiso   1.00
I849   I     0.92705   0.12538   0.39579   0.00000  Uiso   1.00
I850   I     0.52518   0.40820   0.54782   0.00000  Uiso   1.00
I851   I     0.63762   0.27128   0.43404   0.00000  Uiso   1.00
I852   I     0.86439   0.23000   0.57221   0.00000  Uiso   1.00
I853   I     0.63762   0.22872   0.56596   0.00000  Uiso   1.00
I854   I     0.86439   0.27000   0.42779   0.00000  Uiso   1.00
I855   I     0.92705   0.37462   0.60421   0.00000  Uiso   1.00
I856   I     0.52518   0.09180   0.45218   0.00000  Uiso   1.00
I857   I     0.67705   0.37538   0.39579   0.00000  Uiso   1.00
I858   I     0.77518   0.15820   0.54782   0.00000  Uiso   1.00
I859   I     0.88762   0.02128   0.43404   0.00000  Uiso   1.00
I860   I     0.61439   0.48000   0.57221   0.00000  Uiso   1.00
I861   I     0.88762   0.47872   0.56596   0.00000  Uiso   1.00
I862   I     0.61439   0.02000   0.42779   0.00000  Uiso   1.00
I863   I     0.67705   0.12462   0.60421   0.00000  Uiso   1.00
I864   I     0.77518   0.34180   0.45218   0.00000  Uiso   1.00
C865   C     0.05905   0.69022   0.49906   0.00000  Uiso   1.00
C866   C     0.43943   0.80825   0.50111   0.00000  Uiso   1.00
C867   C     0.43943   0.69175   0.49889   0.00000  Uiso   1.00
C868   C     0.05905   0.80978   0.50094   0.00000  Uiso   1.00
C869   C     0.30905   0.94022   0.49906   0.00000  Uiso   1.00
C870   C     0.18943   0.55825   0.50111   0.00000  Uiso   1.00
C871   C     0.18943   0.94175   0.49889   0.00000  Uiso   1.00
C872   C     0.30905   0.55978   0.50094   0.00000  Uiso   1.00
C873   C     0.00512   0.71034   0.35434   0.00000  Uiso   1.00
C874   C     0.00512   0.78966   0.64566   0.00000  Uiso   1.00
C875   C     0.00016   0.79005   0.36205   0.00000  Uiso   1.00
C876   C     0.00016   0.70995   0.63795   0.00000  Uiso   1.00
C877   C     0.25512   0.96034   0.35434   0.00000  Uiso   1.00
C878   C     0.25512   0.53966   0.64566   0.00000  Uiso   1.00
C879   C     0.25016   0.54005   0.36205   0.00000  Uiso   1.00
C880   C     0.25016   0.95995   0.63795   0.00000  Uiso   1.00
C881   C     0.40288   0.62258   0.46395   0.00000  Uiso   1.00
C882   C     0.08649   0.88652   0.52619   0.00000  Uiso   1.00
C883   C     0.12633   0.83630   0.47121   0.00000  Uiso   1.00
C884   C     0.36949   0.66818   0.52786   0.00000  Uiso   1.00
C885   C     0.12633   0.66370   0.52879   0.00000  Uiso   1.00
C886   C     0.36949   0.83182   0.47214   0.00000  Uiso   1.00
C887   C     0.40288   0.87742   0.53605   0.00000  Uiso   1.00
C888   C     0.08649   0.61348   0.47381   0.00000  Uiso   1.00
C889   C     0.15288   0.87258   0.46395   0.00000  Uiso   1.00
C890   C     0.33649   0.63652   0.52619   0.00000  Uiso   1.00
C891   C     0.37633   0.58630   0.47121   0.00000  Uiso   1.00
C892   C     0.11949   0.91818   0.52786   0.00000  Uiso   1.00
C893   C     0.37633   0.91370   0.52879   0.00000  Uiso   1.00
C894   C     0.11949   0.58182   0.47214   0.00000  Uiso   1.00
C895   C     0.15288   0.62742   0.53605   0.00000  Uiso   1.00
C896   C     0.33649   0.86348   0.47381   0.00000  Uiso   1.00
C897   C     0.09222   0.84365   0.50195   0.00000  Uiso   1.00
C898   C     0.40352   0.66063   0.49667   0.00000  Uiso   1.00
C899   C     0.40352   0.83937   0.50333   0.00000  Uiso   1.00
C900   C     0.09222   0.65635   0.49805   0.00000  Uiso   1.00
C901   C     0.34222   0.59365   0.50195   0.00000  Uiso   1.00
C902   C     0.15352   0.91063   0.49667   0.00000  Uiso   1.00
C903   C     0.15352   0.58937   0.50333   0.00000  Uiso   1.00
C904   C     0.34222   0.90635   0.49805   0.00000  Uiso   1.00
Cu905  Cu    0.00000   0.75000   0.54689   0.00000  Uiso   1.00
Cu906  Cu    0.00000   0.75000   0.45311   0.00000  Uiso   1.00
Cu907  Cu    0.25000   0.50000   0.54689   0.00000  Uiso   1.00
Cu908  Cu    0.25000   0.50000   0.45311   0.00000  Uiso   1.00
N909   N     0.00000   0.75000   0.61736   0.00000  Uiso   1.00
N910   N     0.00000   0.75000   0.38264   0.00000  Uiso   1.00
N911   N     0.25000   0.50000   0.61736   0.00000  Uiso   1.00
N912   N     0.25000   0.50000   0.38264   0.00000  Uiso   1.00
O913   O     0.04509   0.70491   0.53958   0.00000  Uiso   1.00
O914   O     0.45492   0.79509   0.46042   0.00000  Uiso   1.00
O915   O     0.45492   0.79509   0.53958   0.00000  Uiso   1.00
O916   O     0.04509   0.70491   0.46042   0.00000  Uiso   1.00
O917   O     0.45492   0.70491   0.46042   0.00000  Uiso   1.00
O918   O     0.04509   0.79509   0.53958   0.00000  Uiso   1.00
O919   O     0.04509   0.79509   0.46042   0.00000  Uiso   1.00
O920   O     0.45492   0.70491   0.53958   0.00000  Uiso   1.00
O921   O     0.29509   0.95491   0.53958   0.00000  Uiso   1.00
O922   O     0.20492   0.54509   0.46042   0.00000  Uiso   1.00
O923   O     0.20492   0.54509   0.53958   0.00000  Uiso   1.00
O924   O     0.29509   0.95491   0.46042   0.00000  Uiso   1.00
O925   O     0.20492   0.95491   0.46042   0.00000  Uiso   1.00
O926   O     0.29509   0.54509   0.53958   0.00000  Uiso   1.00
O927   O     0.29509   0.54509   0.46042   0.00000  Uiso   1.00
O928   O     0.20492   0.95491   0.53958   0.00000  Uiso   1.00
O929   O     0.02012   0.67191   0.37339   0.00000  Uiso   1.00
C930   C     0.06341   0.66487   0.36125   0.00000  Uiso   1.00
H931   H     0.08232   0.66632   0.39365   0.00000  Uiso   1.00
H932   H     0.07750   0.69093   0.33975   0.00000  Uiso   1.00
C933   C     0.06998   0.61782   0.33615   0.00000  Uiso   1.00
H934   H     0.06437   0.61873   0.63159   0.00000  Uiso   1.00
H935   H     0.10298   0.60654   0.34115   0.00000  Uiso   1.00
H936   H     0.04847   0.59247   0.34996   0.00000  Uiso   1.00
O937   O     0.02012   0.82809   0.62661   0.00000  Uiso   1.00
C938   C     0.06341   0.83513   0.63875   0.00000  Uiso   1.00
H939   H     0.08232   0.83368   0.60635   0.00000  Uiso   1.00
H940   H     0.07750   0.80907   0.66025   0.00000  Uiso   1.00
C941   C     0.06998   0.88218   0.66385   0.00000  Uiso   1.00
H942   H     0.06437   0.88127   0.36841   0.00000  Uiso   1.00
H943   H     0.10298   0.89346   0.65885   0.00000  Uiso   1.00
H944   H     0.04847   0.90753   0.65004   0.00000  Uiso   1.00
O945   O     0.00488   0.82971   0.39075   0.00000  Uiso   1.00
C946   C     0.47264   0.86108   0.38280   0.00000  Uiso   1.00
H947   H     0.44089   0.84470   0.38115   0.00000  Uiso   1.00
H948   H     0.47922   0.87755   0.35050   0.00000  Uiso   1.00
C949   C     0.47263   0.89887   0.42195   0.00000  Uiso   1.00
H950   H     0.00313   0.91747   0.42256   0.00000  Uiso   1.00
H951   H     0.44662   0.92313   0.41652   0.00000  Uiso   1.00
H952   H     0.46807   0.88467   0.45600   0.00000  Uiso   1.00
O953   O     0.00488   0.67029   0.60925   0.00000  Uiso   1.00
C954   C     0.47264   0.63892   0.61720   0.00000  Uiso   1.00
H955   H     0.44089   0.65530   0.61885   0.00000  Uiso   1.00
H956   H     0.47922   0.62245   0.64950   0.00000  Uiso   1.00
C957   C     0.47263   0.60113   0.57805   0.00000  Uiso   1.00
H958   H     0.00313   0.58253   0.57744   0.00000  Uiso   1.00
H959   H     0.44662   0.57687   0.58348   0.00000  Uiso   1.00
H960   H     0.46807   0.61533   0.54400   0.00000  Uiso   1.00
O961   O     0.27012   0.92191   0.37339   0.00000  Uiso   1.00
C962   C     0.31341   0.91487   0.36125   0.00000  Uiso   1.00
H963   H     0.33232   0.91632   0.39365   0.00000  Uiso   1.00
H964   H     0.32750   0.94093   0.33975   0.00000  Uiso   1.00
C965   C     0.31998   0.86782   0.33615   0.00000  Uiso   1.00
H966   H     0.31437   0.86873   0.63159   0.00000  Uiso   1.00
H967   H     0.35298   0.85654   0.34115   0.00000  Uiso   1.00
H968   H     0.29847   0.84247   0.34996   0.00000  Uiso   1.00
O969   O     0.27012   0.57809   0.62661   0.00000  Uiso   1.00
C970   C     0.31341   0.58513   0.63875   0.00000  Uiso   1.00
H971   H     0.33232   0.58368   0.60635   0.00000  Uiso   1.00
H972   H     0.32750   0.55907   0.66025   0.00000  Uiso   1.00
C973   C     0.31998   0.63218   0.66385   0.00000  Uiso   1.00
H974   H     0.31437   0.63127   0.36841   0.00000  Uiso   1.00
H975   H     0.35298   0.64346   0.65885   0.00000  Uiso   1.00
H976   H     0.29847   0.65753   0.65004   0.00000  Uiso   1.00
O977   O     0.25488   0.57971   0.39075   0.00000  Uiso   1.00
C978   C     0.22264   0.61108   0.38280   0.00000  Uiso   1.00
H979   H     0.19089   0.59470   0.38115   0.00000  Uiso   1.00
H980   H     0.22922   0.62755   0.35050   0.00000  Uiso   1.00
C981   C     0.22263   0.64887   0.42195   0.00000  Uiso   1.00
H982   H     0.25313   0.66747   0.42256   0.00000  Uiso   1.00
H983   H     0.19662   0.67313   0.41652   0.00000  Uiso   1.00
H984   H     0.21807   0.63467   0.45600   0.00000  Uiso   1.00
O985   O     0.25488   0.92029   0.60925   0.00000  Uiso   1.00
C986   C     0.22264   0.88892   0.61720   0.00000  Uiso   1.00
H987   H     0.19089   0.90530   0.61885   0.00000  Uiso   1.00
H988   H     0.22922   0.87245   0.64950   0.00000  Uiso   1.00
C989   C     0.22263   0.85113   0.57805   0.00000  Uiso   1.00
H990   H     0.25313   0.83253   0.57744   0.00000  Uiso   1.00
H991   H     0.19662   0.82687   0.58348   0.00000  Uiso   1.00
H992   H     0.21807   0.86533   0.54400   0.00000  Uiso   1.00
I993   I     0.42705   0.62538   0.39579   0.00000  Uiso   1.00
I994   I     0.02518   0.90820   0.54782   0.00000  Uiso   1.00
I995   I     0.13762   0.77128   0.43404   0.00000  Uiso   1.00
I996   I     0.36439   0.73000   0.57221   0.00000  Uiso   1.00
I997   I     0.13762   0.72872   0.56596   0.00000  Uiso   1.00
I998   I     0.36439   0.77000   0.42779   0.00000  Uiso   1.00
I999   I     0.42705   0.87462   0.60421   0.00000  Uiso   1.00
I1000  I     0.02518   0.59180   0.45218   0.00000  Uiso   1.00
I1001  I     0.17705   0.87538   0.39579   0.00000  Uiso   1.00
I1002  I     0.27518   0.65820   0.54782   0.00000  Uiso   1.00
I1003  I     0.38762   0.52128   0.43404   0.00000  Uiso   1.00
I1004  I     0.11439   0.98000   0.57221   0.00000  Uiso   1.00
I1005  I     0.38762   0.97872   0.56596   0.00000  Uiso   1.00
I1006  I     0.11439   0.52000   0.42779   0.00000  Uiso   1.00
I1007  I     0.17705   0.62462   0.60421   0.00000  Uiso   1.00
I1008  I     0.27518   0.84180   0.45218   0.00000  Uiso   1.00
C1009  C     0.55905   0.69022   0.49906   0.00000  Uiso   1.00
C1010  C     0.93943   0.80825   0.50111   0.00000  Uiso   1.00
C1011  C     0.93943   0.69175   0.49889   0.00000  Uiso   1.00
C1012  C     0.55905   0.80978   0.50094   0.00000  Uiso   1.00
C1013  C     0.80905   0.94022   0.49906   0.00000  Uiso   1.00
C1014  C     0.68943   0.55825   0.50111   0.00000  Uiso   1.00
C1015  C     0.68943   0.94175   0.49889   0.00000  Uiso   1.00
C1016  C     0.80905   0.55978   0.50094   0.00000  Uiso   1.00
C1017  C     0.50512   0.71034   0.35434   0.00000  Uiso   1.00
C1018  C     0.50512   0.78966   0.64566   0.00000  Uiso   1.00
C1019  C     0.50016   0.79005   0.36205   0.00000  Uiso   1.00
C1020  C     0.50016   0.70995   0.63795   0.00000  Uiso   1.00
C1021  C     0.75512   0.96034   0.35434   0.00000  Uiso   1.00
C1022  C     0.75512   0.53966   0.64566   0.00000  Uiso   1.00
C1023  C     0.75016   0.54005   0.36205   0.00000  Uiso   1.00
C1024  C     0.75016   0.95995   0.63795   0.00000  Uiso   1.00
C1025  C     0.90288   0.62258   0.46395   0.00000  Uiso   1.00
C1026  C     0.58649   0.88652   0.52619   0.00000  Uiso   1.00
C1027  C     0.62633   0.83630   0.47121   0.00000  Uiso   1.00
C1028  C     0.86949   0.66818   0.52786   0.00000  Uiso   1.00
C1029  C     0.62633   0.66370   0.52879   0.00000  Uiso   1.00
C1030  C     0.86949   0.83182   0.47214   0.00000  Uiso   1.00
C1031  C     0.90288   0.87742   0.53605   0.00000  Uiso   1.00
C1032  C     0.58649   0.61348   0.47381   0.00000  Uiso   1.00
C1033  C     0.65288   0.87258   0.46395   0.00000  Uiso   1.00
C1034  C     0.83649   0.63652   0.52619   0.00000  Uiso   1.00
C1035  C     0.87633   0.58630   0.47121   0.00000  Uiso   1.00
C1036  C     0.61949   0.91818   0.52786   0.00000  Uiso   1.00
C1037  C     0.87633   0.91370   0.52879   0.00000  Uiso   1.00
C1038  C     0.61949   0.58182   0.47214   0.00000  Uiso   1.00
C1039  C     0.65288   0.62742   0.53605   0.00000  Uiso   1.00
C1040  C     0.83649   0.86348   0.47381   0.00000  Uiso   1.00
C1041  C     0.59222   0.84365   0.50195   0.00000  Uiso   1.00
C1042  C     0.90352   0.66063   0.49667   0.00000  Uiso   1.00
C1043  C     0.90352   0.83937   0.50333   0.00000  Uiso   1.00
C1044  C     0.59222   0.65635   0.49805   0.00000  Uiso   1.00
C1045  C     0.84222   0.59365   0.50195   0.00000  Uiso   1.00
C1046  C     0.65352   0.91063   0.49667   0.00000  Uiso   1.00
C1047  C     0.65352   0.58937   0.50333   0.00000  Uiso   1.00
C1048  C     0.84222   0.90635   0.49805   0.00000  Uiso   1.00
Cu1049 Cu    0.50000   0.75000   0.54689   0.00000  Uiso   1.00
Cu1050 Cu    0.50000   0.75000   0.45311   0.00000  Uiso   1.00
Cu1051 Cu    0.75000   0.50000   0.54689   0.00000  Uiso   1.00
Cu1052 Cu    0.75000   0.50000   0.45311   0.00000  Uiso   1.00
N1053  N     0.50000   0.75000   0.61736   0.00000  Uiso   1.00
N1054  N     0.50000   0.75000   0.38264   0.00000  Uiso   1.00
N1055  N     0.75000   0.50000   0.61736   0.00000  Uiso   1.00
N1056  N     0.75000   0.50000   0.38264   0.00000  Uiso   1.00
O1057  O     0.54509   0.70491   0.53958   0.00000  Uiso   1.00
O1058  O     0.95492   0.79509   0.46042   0.00000  Uiso   1.00
O1059  O     0.95492   0.79509   0.53958   0.00000  Uiso   1.00
O1060  O     0.54509   0.70491   0.46042   0.00000  Uiso   1.00
O1061  O     0.95492   0.70491   0.46042   0.00000  Uiso   1.00
O1062  O     0.54509   0.79509   0.53958   0.00000  Uiso   1.00
O1063  O     0.54509   0.79509   0.46042   0.00000  Uiso   1.00
O1064  O     0.95492   0.70491   0.53958   0.00000  Uiso   1.00
O1065  O     0.79509   0.95491   0.53958   0.00000  Uiso   1.00
O1066  O     0.70492   0.54509   0.46042   0.00000  Uiso   1.00
O1067  O     0.70492   0.54509   0.53958   0.00000  Uiso   1.00
O1068  O     0.79509   0.95491   0.46042   0.00000  Uiso   1.00
O1069  O     0.70492   0.95491   0.46042   0.00000  Uiso   1.00
O1070  O     0.79509   0.54509   0.53958   0.00000  Uiso   1.00
O1071  O     0.79509   0.54509   0.46042   0.00000  Uiso   1.00
O1072  O     0.70492   0.95491   0.53958   0.00000  Uiso   1.00
O1073  O     0.52012   0.67191   0.37339   0.00000  Uiso   1.00
C1074  C     0.56341   0.66487   0.36125   0.00000  Uiso   1.00
H1075  H     0.58232   0.66632   0.39365   0.00000  Uiso   1.00
H1076  H     0.57750   0.69093   0.33975   0.00000  Uiso   1.00
C1077  C     0.56998   0.61782   0.33615   0.00000  Uiso   1.00
H1078  H     0.56437   0.61873   0.63159   0.00000  Uiso   1.00
H1079  H     0.60298   0.60654   0.34115   0.00000  Uiso   1.00
H1080  H     0.54847   0.59247   0.34996   0.00000  Uiso   1.00
O1081  O     0.52012   0.82809   0.62661   0.00000  Uiso   1.00
C1082  C     0.56341   0.83513   0.63875   0.00000  Uiso   1.00
H1083  H     0.58232   0.83368   0.60635   0.00000  Uiso   1.00
H1084  H     0.57750   0.80907   0.66025   0.00000  Uiso   1.00
C1085  C     0.56998   0.88218   0.66385   0.00000  Uiso   1.00
H1086  H     0.56437   0.88127   0.36841   0.00000  Uiso   1.00
H1087  H     0.60298   0.89346   0.65885   0.00000  Uiso   1.00
H1088  H     0.54847   0.90753   0.65004   0.00000  Uiso   1.00
O1089  O     0.50488   0.82971   0.39075   0.00000  Uiso   1.00
C1090  C     0.97264   0.86108   0.38280   0.00000  Uiso   1.00
H1091  H     0.94089   0.84470   0.38115   0.00000  Uiso   1.00
H1092  H     0.97922   0.87755   0.35050   0.00000  Uiso   1.00
C1093  C     0.97263   0.89887   0.42195   0.00000  Uiso   1.00
H1094  H     0.50313   0.91747   0.42256   0.00000  Uiso   1.00
H1095  H     0.94662   0.92313   0.41652   0.00000  Uiso   1.00
H1096  H     0.96807   0.88467   0.45600   0.00000  Uiso   1.00
O1097  O     0.50488   0.67029   0.60925   0.00000  Uiso   1.00
C1098  C     0.97264   0.63892   0.61720   0.00000  Uiso   1.00
H1099  H     0.94089   0.65530   0.61885   0.00000  Uiso   1.00
H1100  H     0.97922   0.62245   0.64950   0.00000  Uiso   1.00
C1101  C     0.97263   0.60113   0.57805   0.00000  Uiso   1.00
H1102  H     0.50313   0.58253   0.57744   0.00000  Uiso   1.00
H1103  H     0.94662   0.57687   0.58348   0.00000  Uiso   1.00
H1104  H     0.96807   0.61533   0.54400   0.00000  Uiso   1.00
O1105  O     0.77012   0.92191   0.37339   0.00000  Uiso   1.00
C1106  C     0.81341   0.91487   0.36125   0.00000  Uiso   1.00
H1107  H     0.83232   0.91632   0.39365   0.00000  Uiso   1.00
H1108  H     0.82750   0.94093   0.33975   0.00000  Uiso   1.00
C1109  C     0.81998   0.86782   0.33615   0.00000  Uiso   1.00
H1110  H     0.81437   0.86873   0.63159   0.00000  Uiso   1.00
H1111  H     0.85298   0.85654   0.34115   0.00000  Uiso   1.00
H1112  H     0.79847   0.84247   0.34996   0.00000  Uiso   1.00
O1113  O     0.77012   0.57809   0.62661   0.00000  Uiso   1.00
C1114  C     0.81341   0.58513   0.63875   0.00000  Uiso   1.00
H1115  H     0.83232   0.58368   0.60635   0.00000  Uiso   1.00
H1116  H     0.82750   0.55907   0.66025   0.00000  Uiso   1.00
C1117  C     0.81998   0.63218   0.66385   0.00000  Uiso   1.00
H1118  H     0.81437   0.63127   0.36841   0.00000  Uiso   1.00
H1119  H     0.85298   0.64346   0.65885   0.00000  Uiso   1.00
H1120  H     0.79847   0.65753   0.65004   0.00000  Uiso   1.00
O1121  O     0.75488   0.57971   0.39075   0.00000  Uiso   1.00
C1122  C     0.72264   0.61108   0.38280   0.00000  Uiso   1.00
H1123  H     0.69089   0.59470   0.38115   0.00000  Uiso   1.00
H1124  H     0.72922   0.62755   0.35050   0.00000  Uiso   1.00
C1125  C     0.72263   0.64887   0.42195   0.00000  Uiso   1.00
H1126  H     0.75313   0.66747   0.42256   0.00000  Uiso   1.00
H1127  H     0.69662   0.67313   0.41652   0.00000  Uiso   1.00
H1128  H     0.71807   0.63467   0.45600   0.00000  Uiso   1.00
O1129  O     0.75488   0.92029   0.60925   0.00000  Uiso   1.00
C1130  C     0.72264   0.88892   0.61720   0.00000  Uiso   1.00
H1131  H     0.69089   0.90530   0.61885   0.00000  Uiso   1.00
H1132  H     0.72922   0.87245   0.64950   0.00000  Uiso   1.00
C1133  C     0.72263   0.85113   0.57805   0.00000  Uiso   1.00
H1134  H     0.75313   0.83253   0.57744   0.00000  Uiso   1.00
H1135  H     0.69662   0.82687   0.58348   0.00000  Uiso   1.00
H1136  H     0.71807   0.86533   0.54400   0.00000  Uiso   1.00
I1137  I     0.92705   0.62538   0.39579   0.00000  Uiso   1.00
I1138  I     0.52518   0.90820   0.54782   0.00000  Uiso   1.00
I1139  I     0.63762   0.77128   0.43404   0.00000  Uiso   1.00
I1140  I     0.86439   0.73000   0.57221   0.00000  Uiso   1.00
I1141  I     0.63762   0.72872   0.56596   0.00000  Uiso   1.00
I1142  I     0.86439   0.77000   0.42779   0.00000  Uiso   1.00
I1143  I     0.92705   0.87462   0.60421   0.00000  Uiso   1.00
I1144  I     0.52518   0.59180   0.45218   0.00000  Uiso   1.00
I1145  I     0.67705   0.87538   0.39579   0.00000  Uiso   1.00
I1146  I     0.77518   0.65820   0.54782   0.00000  Uiso   1.00
I1147  I     0.88762   0.52128   0.43404   0.00000  Uiso   1.00
I1148  I     0.61439   0.98000   0.57221   0.00000  Uiso   1.00
I1149  I     0.88762   0.97872   0.56596   0.00000  Uiso   1.00
I1150  I     0.61439   0.52000   0.42779   0.00000  Uiso   1.00
I1151  I     0.67705   0.62462   0.60421   0.00000  Uiso   1.00
I1152  I     0.77518   0.84180   0.45218   0.00000  Uiso   1.00
C1153  C     0.05905   0.19022   0.83239   0.00000  Uiso   1.00
C1154  C     0.43943   0.30825   0.83445   0.00000  Uiso   1.00
C1155  C     0.43943   0.19175   0.83222   0.00000  Uiso   1.00
C1156  C     0.05905   0.30978   0.83428   0.00000  Uiso   1.00
C1157  C     0.30905   0.44022   0.83239   0.00000  Uiso   1.00
C1158  C     0.18943   0.05825   0.83445   0.00000  Uiso   1.00
C1159  C     0.18943   0.44175   0.83222   0.00000  Uiso   1.00
C1160  C     0.30905   0.05978   0.83428   0.00000  Uiso   1.00
C1161  C     0.00512   0.21034   0.68767   0.00000  Uiso   1.00
C1162  C     0.00512   0.28966   0.97899   0.00000  Uiso   1.00
C1163  C     0.00016   0.29005   0.69538   0.00000  Uiso   1.00
C1164  C     0.00016   0.20995   0.97128   0.00000  Uiso   1.00
C1165  C     0.25512   0.46034   0.68767   0.00000  Uiso   1.00
C1166  C     0.25512   0.03966   0.97899   0.00000  Uiso   1.00
C1167  C     0.25016   0.04005   0.69538   0.00000  Uiso   1.00
C1168  C     0.25016   0.45995   0.97128   0.00000  Uiso   1.00
C1169  C     0.40288   0.12258   0.79729   0.00000  Uiso   1.00
C1170  C     0.08649   0.38652   0.85952   0.00000  Uiso   1.00
C1171  C     0.12633   0.33630   0.80455   0.00000  Uiso   1.00
C1172  C     0.36949   0.16818   0.86119   0.00000  Uiso   1.00
C1173  C     0.12633   0.16370   0.86212   0.00000  Uiso   1.00
C1174  C     0.36949   0.33182   0.80547   0.00000  Uiso   1.00
C1175  C     0.40288   0.37742   0.86938   0.00000  Uiso   1.00
C1176  C     0.08649   0.11348   0.80714   0.00000  Uiso   1.00
C1177  C     0.15288   0.37258   0.79729   0.00000  Uiso   1.00
C1178  C     0.33649   0.13652   0.85952   0.00000  Uiso   1.00
C1179  C     0.37633   0.08630   0.80455   0.00000  Uiso   1.00
C1180  C     0.11949   0.41818   0.86119   0.00000  Uiso   1.00
C1181  C     0.37633   0.41370   0.86212   0.00000  Uiso   1.00
C1182  C     0.11949   0.08182   0.80547   0.00000  Uiso   1.00
C1183  C     0.15288   0.12742   0.86938   0.00000  Uiso   1.00
C1184  C     0.33649   0.36348   0.80714   0.00000  Uiso   1.00
C1185  C     0.09222   0.34365   0.83528   0.00000  Uiso   1.00
C1186  C     0.40352   0.16063   0.83001   0.00000  Uiso   1.00
C1187  C     0.40352   0.33937   0.83666   0.00000  Uiso   1.00
C1188  C     0.09222   0.15635   0.83139   0.00000  Uiso   1.00
C1189  C     0.34222   0.09365   0.83528   0.00000  Uiso   1.00
C1190  C     0.15352   0.41063   0.83001   0.00000  Uiso   1.00
C1191  C     0.15352   0.08937   0.83666   0.00000  Uiso   1.00
C1192  C     0.34222   0.40635   0.83139   0.00000  Uiso   1.00
Cu1193 Cu    0.00000   0.25000   0.88022   0.00000  Uiso   1.00
Cu1194 Cu    0.00000   0.25000   0.78645   0.00000  Uiso   1.00
Cu1195 Cu    0.25000   0.00000   0.88022   0.00000  Uiso   1.00
Cu1196 Cu    0.25000   0.00000   0.78645   0.00000  Uiso   1.00
N1197  N     0.00000   0.25000   0.95069   0.00000  Uiso   1.00
N1198  N     0.00000   0.25000   0.71598   0.00000  Uiso   1.00
N1199  N     0.25000   0.00000   0.95069   0.00000  Uiso   1.00
N1200  N     0.25000   0.00000   0.71598   0.00000  Uiso   1.00
O1201  O     0.04509   0.20491   0.87291   0.00000  Uiso   1.00
O1202  O     0.45492   0.29509   0.79375   0.00000  Uiso   1.00
O1203  O     0.45492   0.29509   0.87291   0.00000  Uiso   1.00
O1204  O     0.04509   0.20491   0.79375   0.00000  Uiso   1.00
O1205  O     0.45492   0.20491   0.79375   0.00000  Uiso   1.00
O1206  O     0.04509   0.29509   0.87291   0.00000  Uiso   1.00
O1207  O     0.04509   0.29509   0.79375   0.00000  Uiso   1.00
O1208  O     0.45492   0.20491   0.87291   0.00000  Uiso   1.00
O1209  O     0.29509   0.45491   0.87291   0.00000  Uiso   1.00
O1210  O     0.20492   0.04509   0.79375   0.00000  Uiso   1.00
O1211  O     0.20492   0.04509   0.87291   0.00000  Uiso   1.00
O1212  O     0.29509   0.45491   0.79375   0.00000  Uiso   1.00
O1213  O     0.20492   0.45491   0.79375   0.00000  Uiso   1.00
O1214  O     0.29509   0.04509   0.87291   0.00000  Uiso   1.00
O1215  O     0.29509   0.04509   0.79375   0.00000  Uiso   1.00
O1216  O     0.20492   0.45491   0.87291   0.00000  Uiso   1.00
O1217  O     0.02012   0.17191   0.70672   0.00000  Uiso   1.00
C1218  C     0.06341   0.16487   0.69458   0.00000  Uiso   1.00
H1219  H     0.08232   0.16632   0.72698   0.00000  Uiso   1.00
H1220  H     0.07750   0.19093   0.67308   0.00000  Uiso   1.00
C1221  C     0.06998   0.11782   0.66948   0.00000  Uiso   1.00
H1222  H     0.06437   0.11873   0.96492   0.00000  Uiso   1.00
H1223  H     0.10298   0.10654   0.67448   0.00000  Uiso   1.00
H1224  H     0.04847   0.09247   0.68329   0.00000  Uiso   1.00
O1225  O     0.02012   0.32809   0.95994   0.00000  Uiso   1.00
C1226  C     0.06341   0.33513   0.97208   0.00000  Uiso   1.00
H1227  H     0.08232   0.33368   0.93968   0.00000  Uiso   1.00
H1228  H     0.07750   0.30907   0.99358   0.00000  Uiso   1.00
C1229  C     0.06998   0.38218   0.99719   0.00000  Uiso   1.00
H1230  H     0.06437   0.38127   0.70174   0.00000  Uiso   1.00
H1231  H     0.10298   0.39346   0.99219   0.00000  Uiso   1.00
H1232  H     0.04847   0.40753   0.98338   0.00000  Uiso   1.00
O1233  O     0.00488   0.32971   0.72408   0.00000  Uiso   1.00
C1234  C     0.47264   0.36108   0.71613   0.00000  Uiso   1.00
H1235  H     0.44089   0.34470   0.71448   0.00000  Uiso   1.00
H1236  H     0.47922   0.37755   0.68383   0.00000  Uiso   1.00
C1237  C     0.47263   0.39887   0.75528   0.00000  Uiso   1.00
H1238  H     0.00313   0.41747   0.75589   0.00000  Uiso   1.00
H1239  H     0.44662   0.42313   0.74985   0.00000  Uiso   1.00
H1240  H     0.46807   0.38467   0.78933   0.00000  Uiso   1.00
O1241  O     0.00488   0.17029   0.94258   0.00000  Uiso   1.00
C1242  C     0.47264   0.13892   0.95054   0.00000  Uiso   1.00
H1243  H     0.44089   0.15530   0.95218   0.00000  Uiso   1.00
H1244  H     0.47922   0.12245   0.98283   0.00000  Uiso   1.00
C1245  C     0.47263   0.10113   0.91138   0.00000  Uiso   1.00
H1246  H     0.00313   0.08253   0.91078   0.00000  Uiso   1.00
H1247  H     0.44662   0.07687   0.91682   0.00000  Uiso   1.00
H1248  H     0.46807   0.11533   0.87733   0.00000  Uiso   1.00
O1249  O     0.27012   0.42191   0.70672   0.00000  Uiso   1.00
C1250  C     0.31341   0.41487   0.69458   0.00000  Uiso   1.00
H1251  H     0.33232   0.41632   0.72698   0.00000  Uiso   1.00
H1252  H     0.32750   0.44093   0.67308   0.00000  Uiso   1.00
C1253  C     0.31998   0.36782   0.66948   0.00000  Uiso   1.00
H1254  H     0.31437   0.36873   0.96492   0.00000  Uiso   1.00
H1255  H     0.35298   0.35654   0.67448   0.00000  Uiso   1.00
H1256  H     0.29847   0.34247   0.68329   0.00000  Uiso   1.00
O1257  O     0.27012   0.07809   0.95994   0.00000  Uiso   1.00
C1258  C     0.31341   0.08513   0.97208   0.00000  Uiso   1.00
H1259  H     0.33232   0.08368   0.93968   0.00000  Uiso   1.00
H1260  H     0.32750   0.05907   0.99358   0.00000  Uiso   1.00
C1261  C     0.31998   0.13218   0.99719   0.00000  Uiso   1.00
H1262  H     0.31437   0.13127   0.70174   0.00000  Uiso   1.00
H1263  H     0.35298   0.14346   0.99219   0.00000  Uiso   1.00
H1264  H     0.29847   0.15753   0.98338   0.00000  Uiso   1.00
O1265  O     0.25488   0.07971   0.72408   0.00000  Uiso   1.00
C1266  C     0.22264   0.11108   0.71613   0.00000  Uiso   1.00
H1267  H     0.19089   0.09470   0.71448   0.00000  Uiso   1.00
H1268  H     0.22922   0.12755   0.68383   0.00000  Uiso   1.00
C1269  C     0.22263   0.14887   0.75528   0.00000  Uiso   1.00
H1270  H     0.25313   0.16747   0.75589   0.00000  Uiso   1.00
H1271  H     0.19662   0.17313   0.74985   0.00000  Uiso   1.00
H1272  H     0.21807   0.13467   0.78933   0.00000  Uiso   1.00
O1273  O     0.25488   0.42029   0.94258   0.00000  Uiso   1.00
C1274  C     0.22264   0.38892   0.95054   0.00000  Uiso   1.00
H1275  H     0.19089   0.40530   0.95218   0.00000  Uiso   1.00
H1276  H     0.22922   0.37245   0.98283   0.00000  Uiso   1.00
C1277  C     0.22263   0.35113   0.91138   0.00000  Uiso   1.00
H1278  H     0.25313   0.33253   0.91078   0.00000  Uiso   1.00
H1279  H     0.19662   0.32687   0.91682   0.00000  Uiso   1.00
H1280  H     0.21807   0.36533   0.87733   0.00000  Uiso   1.00
I1281  I     0.42705   0.12538   0.72912   0.00000  Uiso   1.00
I1282  I     0.02518   0.40820   0.88115   0.00000  Uiso   1.00
I1283  I     0.13762   0.27128   0.76737   0.00000  Uiso   1.00
I1284  I     0.36439   0.23000   0.90555   0.00000  Uiso   1.00
I1285  I     0.13762   0.22872   0.89929   0.00000  Uiso   1.00
I1286  I     0.36439   0.27000   0.76112   0.00000  Uiso   1.00
I1287  I     0.42705   0.37462   0.93754   0.00000  Uiso   1.00
I1288  I     0.02518   0.09180   0.78551   0.00000  Uiso   1.00
I1289  I     0.17705   0.37538   0.72912   0.00000  Uiso   1.00
I1290  I     0.27518   0.15820   0.88115   0.00000  Uiso   1.00
I1291  I     0.38762   0.02128   0.76737   0.00000  Uiso   1.00
I1292  I     0.11439   0.48000   0.90555   0.00000  Uiso   1.00
I1293  I     0.38762   0.47872   0.89929   0.00000  Uiso   1.00
I1294  I     0.11439   0.02000   0.76112   0.00000  Uiso   1.00
I1295  I     0.17705   0.12462   0.93754   0.00000  Uiso   1.00
I1296  I     0.27518   0.34180   0.78551   0.00000  Uiso   1.00
C1297  C     0.55905   0.19022   0.83239   0.00000  Uiso   1.00
C1298  C     0.93943   0.30825   0.83445   0.00000  Uiso   1.00
C1299  C     0.93943   0.19175   0.83222   0.00000  Uiso   1.00
C1300  C     0.55905   0.30978   0.83428   0.00000  Uiso   1.00
C1301  C     0.80905   0.44022   0.83239   0.00000  Uiso   1.00
C1302  C     0.68943   0.05825   0.83445   0.00000  Uiso   1.00
C1303  C     0.68943   0.44175   0.83222   0.00000  Uiso   1.00
C1304  C     0.80905   0.05978   0.83428   0.00000  Uiso   1.00
C1305  C     0.50512   0.21034   0.68767   0.00000  Uiso   1.00
C1306  C     0.50512   0.28966   0.97899   0.00000  Uiso   1.00
C1307  C     0.50016   0.29005   0.69538   0.00000  Uiso   1.00
C1308  C     0.50016   0.20995   0.97128   0.00000  Uiso   1.00
C1309  C     0.75512   0.46034   0.68767   0.00000  Uiso   1.00
C1310  C     0.75512   0.03966   0.97899   0.00000  Uiso   1.00
C1311  C     0.75016   0.04005   0.69538   0.00000  Uiso   1.00
C1312  C     0.75016   0.45995   0.97128   0.00000  Uiso   1.00
C1313  C     0.90288   0.12258   0.79729   0.00000  Uiso   1.00
C1314  C     0.58649   0.38652   0.85952   0.00000  Uiso   1.00
C1315  C     0.62633   0.33630   0.80455   0.00000  Uiso   1.00
C1316  C     0.86949   0.16818   0.86119   0.00000  Uiso   1.00
C1317  C     0.62633   0.16370   0.86212   0.00000  Uiso   1.00
C1318  C     0.86949   0.33182   0.80547   0.00000  Uiso   1.00
C1319  C     0.90288   0.37742   0.86938   0.00000  Uiso   1.00
C1320  C     0.58649   0.11348   0.80714   0.00000  Uiso   1.00
C1321  C     0.65288   0.37258   0.79729   0.00000  Uiso   1.00
C1322  C     0.83649   0.13652   0.85952   0.00000  Uiso   1.00
C1323  C     0.87633   0.08630   0.80455   0.00000  Uiso   1.00
C1324  C     0.61949   0.41818   0.86119   0.00000  Uiso   1.00
C1325  C     0.87633   0.41370   0.86212   0.00000  Uiso   1.00
C1326  C     0.61949   0.08182   0.80547   0.00000  Uiso   1.00
C1327  C     0.65288   0.12742   0.86938   0.00000  Uiso   1.00
C1328  C     0.83649   0.36348   0.80714   0.00000  Uiso   1.00
C1329  C     0.59222   0.34365   0.83528   0.00000  Uiso   1.00
C1330  C     0.90352   0.16063   0.83001   0.00000  Uiso   1.00
C1331  C     0.90352   0.33937   0.83666   0.00000  Uiso   1.00
C1332  C     0.59222   0.15635   0.83139   0.00000  Uiso   1.00
C1333  C     0.84222   0.09365   0.83528   0.00000  Uiso   1.00
C1334  C     0.65352   0.41063   0.83001   0.00000  Uiso   1.00
C1335  C     0.65352   0.08937   0.83666   0.00000  Uiso   1.00
C1336  C     0.84222   0.40635   0.83139   0.00000  Uiso   1.00
Cu1337 Cu    0.50000   0.25000   0.88022   0.00000  Uiso   1.00
Cu1338 Cu    0.50000   0.25000   0.78645   0.00000  Uiso   1.00
Cu1339 Cu    0.75000   0.00000   0.88022   0.00000  Uiso   1.00
Cu1340 Cu    0.75000   0.00000   0.78645   0.00000  Uiso   1.00
N1341  N     0.50000   0.25000   0.95069   0.00000  Uiso   1.00
N1342  N     0.50000   0.25000   0.71598   0.00000  Uiso   1.00
N1343  N     0.75000   0.00000   0.95069   0.00000  Uiso   1.00
N1344  N     0.75000   0.00000   0.71598   0.00000  Uiso   1.00
O1345  O     0.54509   0.20491   0.87291   0.00000  Uiso   1.00
O1346  O     0.95492   0.29509   0.79375   0.00000  Uiso   1.00
O1347  O     0.95492   0.29509   0.87291   0.00000  Uiso   1.00
O1348  O     0.54509   0.20491   0.79375   0.00000  Uiso   1.00
O1349  O     0.95492   0.20491   0.79375   0.00000  Uiso   1.00
O1350  O     0.54509   0.29509   0.87291   0.00000  Uiso   1.00
O1351  O     0.54509   0.29509   0.79375   0.00000  Uiso   1.00
O1352  O     0.95492   0.20491   0.87291   0.00000  Uiso   1.00
O1353  O     0.79509   0.45491   0.87291   0.00000  Uiso   1.00
O1354  O     0.70492   0.04509   0.79375   0.00000  Uiso   1.00
O1355  O     0.70492   0.04509   0.87291   0.00000  Uiso   1.00
O1356  O     0.79509   0.45491   0.79375   0.00000  Uiso   1.00
O1357  O     0.70492   0.45491   0.79375   0.00000  Uiso   1.00
O1358  O     0.79509   0.04509   0.87291   0.00000  Uiso   1.00
O1359  O     0.79509   0.04509   0.79375   0.00000  Uiso   1.00
O1360  O     0.70492   0.45491   0.87291   0.00000  Uiso   1.00
O1361  O     0.52012   0.17191   0.70672   0.00000  Uiso   1.00
C1362  C     0.56341   0.16487   0.69458   0.00000  Uiso   1.00
H1363  H     0.58232   0.16632   0.72698   0.00000  Uiso   1.00
H1364  H     0.57750   0.19093   0.67308   0.00000  Uiso   1.00
C1365  C     0.56998   0.11782   0.66948   0.00000  Uiso   1.00
H1366  H     0.56437   0.11873   0.96492   0.00000  Uiso   1.00
H1367  H     0.60298   0.10654   0.67448   0.00000  Uiso   1.00
H1368  H     0.54847   0.09247   0.68329   0.00000  Uiso   1.00
O1369  O     0.52012   0.32809   0.95994   0.00000  Uiso   1.00
C1370  C     0.56341   0.33513   0.97208   0.00000  Uiso   1.00
H1371  H     0.58232   0.33368   0.93968   0.00000  Uiso   1.00
H1372  H     0.57750   0.30907   0.99358   0.00000  Uiso   1.00
C1373  C     0.56998   0.38218   0.99719   0.00000  Uiso   1.00
H1374  H     0.56437   0.38127   0.70174   0.00000  Uiso   1.00
H1375  H     0.60298   0.39346   0.99219   0.00000  Uiso   1.00
H1376  H     0.54847   0.40753   0.98338   0.00000  Uiso   1.00
O1377  O     0.50488   0.32971   0.72408   0.00000  Uiso   1.00
C1378  C     0.97264   0.36108   0.71613   0.00000  Uiso   1.00
H1379  H     0.94089   0.34470   0.71448   0.00000  Uiso   1.00
H1380  H     0.97922   0.37755   0.68383   0.00000  Uiso   1.00
C1381  C     0.97263   0.39887   0.75528   0.00000  Uiso   1.00
H1382  H     0.50313   0.41747   0.75589   0.00000  Uiso   1.00
H1383  H     0.94662   0.42313   0.74985   0.00000  Uiso   1.00
H1384  H     0.96807   0.38467   0.78933   0.00000  Uiso   1.00
O1385  O     0.50488   0.17029   0.94258   0.00000  Uiso   1.00
C1386  C     0.97264   0.13892   0.95054   0.00000  Uiso   1.00
H1387  H     0.94089   0.15530   0.95218   0.00000  Uiso   1.00
H1388  H     0.97922   0.12245   0.98283   0.00000  Uiso   1.00
C1389  C     0.97263   0.10113   0.91138   0.00000  Uiso   1.00
H1390  H     0.50313   0.08253   0.91078   0.00000  Uiso   1.00
H1391  H     0.94662   0.07687   0.91682   0.00000  Uiso   1.00
H1392  H     0.96807   0.11533   0.87733   0.00000  Uiso   1.00
O1393  O     0.77012   0.42191   0.70672   0.00000  Uiso   1.00
C1394  C     0.81341   0.41487   0.69458   0.00000  Uiso   1.00
H1395  H     0.83232   0.41632   0.72698   0.00000  Uiso   1.00
H1396  H     0.82750   0.44093   0.67308   0.00000  Uiso   1.00
C1397  C     0.81998   0.36782   0.66948   0.00000  Uiso   1.00
H1398  H     0.81437   0.36873   0.96492   0.00000  Uiso   1.00
H1399  H     0.85298   0.35654   0.67448   0.00000  Uiso   1.00
H1400  H     0.79847   0.34247   0.68329   0.00000  Uiso   1.00
O1401  O     0.77012   0.07809   0.95994   0.00000  Uiso   1.00
C1402  C     0.81341   0.08513   0.97208   0.00000  Uiso   1.00
H1403  H     0.83232   0.08368   0.93968   0.00000  Uiso   1.00
H1404  H     0.82750   0.05907   0.99358   0.00000  Uiso   1.00
C1405  C     0.81998   0.13218   0.99719   0.00000  Uiso   1.00
H1406  H     0.81437   0.13127   0.70174   0.00000  Uiso   1.00
H1407  H     0.85298   0.14346   0.99219   0.00000  Uiso   1.00
H1408  H     0.79847   0.15753   0.98338   0.00000  Uiso   1.00
O1409  O     0.75488   0.07971   0.72408   0.00000  Uiso   1.00
C1410  C     0.72264   0.11108   0.71613   0.00000  Uiso   1.00
H1411  H     0.69089   0.09470   0.71448   0.00000  Uiso   1.00
H1412  H     0.72922   0.12755   0.68383   0.00000  Uiso   1.00
C1413  C     0.72263   0.14887   0.75528   0.00000  Uiso   1.00
H1414  H     0.75313   0.16747   0.75589   0.00000  Uiso   1.00
H1415  H     0.69662   0.17313   0.74985   0.00000  Uiso   1.00
H1416  H     0.71807   0.13467   0.78933   0.00000  Uiso   1.00
O1417  O     0.75488   0.42029   0.94258   0.00000  Uiso   1.00
C1418  C     0.72264   0.38892   0.95054   0.00000  Uiso   1.00
H1419  H     0.69089   0.40530   0.95218   0.00000  Uiso   1.00
H1420  H     0.72922   0.37245   0.98283   0.00000  Uiso   1.00
C1421  C     0.72263   0.35113   0.91138   0.00000  Uiso   1.00
H1422  H     0.75313   0.33253   0.91078   0.00000  Uiso   1.00
H1423  H     0.69662   0.32687   0.91682   0.00000  Uiso   1.00
H1424  H     0.71807   0.36533   0.87733   0.00000  Uiso   1.00
I1425  I     0.92705   0.12538   0.72912   0.00000  Uiso   1.00
I1426  I     0.52518   0.40820   0.88115   0.00000  Uiso   1.00
I1427  I     0.63762   0.27128   0.76737   0.00000  Uiso   1.00
I1428  I     0.86439   0.23000   0.90555   0.00000  Uiso   1.00
I1429  I     0.63762   0.22872   0.89929   0.00000  Uiso   1.00
I1430  I     0.86439   0.27000   0.76112   0.00000  Uiso   1.00
I1431  I     0.92705   0.37462   0.93754   0.00000  Uiso   1.00
I1432  I     0.52518   0.09180   0.78551   0.00000  Uiso   1.00
I1433  I     0.67705   0.37538   0.72912   0.00000  Uiso   1.00
I1434  I     0.77518   0.15820   0.88115   0.00000  Uiso   1.00
I1435  I     0.88762   0.02128   0.76737   0.00000  Uiso   1.00
I1436  I     0.61439   0.48000   0.90555   0.00000  Uiso   1.00
I1437  I     0.88762   0.47872   0.89929   0.00000  Uiso   1.00
I1438  I     0.61439   0.02000   0.76112   0.00000  Uiso   1.00
I1439  I     0.67705   0.12462   0.93754   0.00000  Uiso   1.00
I1440  I     0.77518   0.34180   0.78551   0.00000  Uiso   1.00
C1441  C     0.05905   0.69022   0.83239   0.00000  Uiso   1.00
C1442  C     0.43943   0.80825   0.83445   0.00000  Uiso   1.00
C1443  C     0.43943   0.69175   0.83222   0.00000  Uiso   1.00
C1444  C     0.05905   0.80978   0.83428   0.00000  Uiso   1.00
C1445  C     0.30905   0.94022   0.83239   0.00000  Uiso   1.00
C1446  C     0.18943   0.55825   0.83445   0.00000  Uiso   1.00
C1447  C     0.18943   0.94175   0.83222   0.00000  Uiso   1.00
C1448  C     0.30905   0.55978   0.83428   0.00000  Uiso   1.00
C1449  C     0.00512   0.71034   0.68767   0.00000  Uiso   1.00
C1450  C     0.00512   0.78966   0.97899   0.00000  Uiso   1.00
C1451  C     0.00016   0.79005   0.69538   0.00000  Uiso   1.00
C1452  C     0.00016   0.70995   0.97128   0.00000  Uiso   1.00
C1453  C     0.25512   0.96034   0.68767   0.00000  Uiso   1.00
C1454  C     0.25512   0.53966   0.97899   0.00000  Uiso   1.00
C1455  C     0.25016   0.54005   0.69538   0.00000  Uiso   1.00
C1456  C     0.25016   0.95995   0.97128   0.00000  Uiso   1.00
C1457  C     0.40288   0.62258   0.79729   0.00000  Uiso   1.00
C1458  C     0.08649   0.88652   0.85952   0.00000  Uiso   1.00
C1459  C     0.12633   0.83630   0.80455   0.00000  Uiso   1.00
C1460  C     0.36949   0.66818   0.86119   0.00000  Uiso   1.00
C1461  C     0.12633   0.66370   0.86212   0.00000  Uiso   1.00
C1462  C     0.36949   0.83182   0.80547   0.00000  Uiso   1.00
C1463  C     0.40288   0.87742   0.86938   0.00000  Uiso   1.00
C1464  C     0.08649   0.61348   0.80714   0.00000  Uiso   1.00
C1465  C     0.15288   0.87258   0.79729   0.00000  Uiso   1.00
C1466  C     0.33649   0.63652   0.85952   0.00000  Uiso   1.00
C1467  C     0.37633   0.58630   0.80455   0.00000  Uiso   1.00
C1468  C     0.11949   0.91818   0.86119   0.00000  Uiso   1.00
C1469  C     0.37633   0.91370   0.86212   0.00000  Uiso   1.00
C1470  C     0.11949   0.58182   0.80547   0.00000  Uiso   1.00
C1471  C     0.15288   0.62742   0.86938   0.00000  Uiso   1.00
C1472  C     0.33649   0.86348   0.80714   0.00000  Uiso   1.00
C1473  C     0.09222   0.84365   0.83528   0.00000  Uiso   1.00
C1474  C     0.40352   0.66063   0.83001   0.00000  Uiso   1.00
C1475  C     0.40352   0.83937   0.83666   0.00000  Uiso   1.00
C1476  C     0.09222   0.65635   0.83139   0.00000  Uiso   1.00
C1477  C     0.34222   0.59365   0.83528   0.00000  Uiso   1.00
C1478  C     0.15352   0.91063   0.83001   0.00000  Uiso   1.00
C1479  C     0.15352   0.58937   0.83666   0.00000  Uiso   1.00
C1480  C     0.34222   0.90635   0.83139   0.00000  Uiso   1.00
Cu1481 Cu    0.00000   0.75000   0.88022   0.00000  Uiso   1.00
Cu1482 Cu    0.00000   0.75000   0.78645   0.00000  Uiso   1.00
Cu1483 Cu    0.25000   0.50000   0.88022   0.00000  Uiso   1.00
Cu1484 Cu    0.25000   0.50000   0.78645   0.00000  Uiso   1.00
N1485  N     0.00000   0.75000   0.95069   0.00000  Uiso   1.00
N1486  N     0.00000   0.75000   0.71598   0.00000  Uiso   1.00
N1487  N     0.25000   0.50000   0.95069   0.00000  Uiso   1.00
N1488  N     0.25000   0.50000   0.71598   0.00000  Uiso   1.00
O1489  O     0.04509   0.70491   0.87291   0.00000  Uiso   1.00
O1490  O     0.45492   0.79509   0.79375   0.00000  Uiso   1.00
O1491  O     0.45492   0.79509   0.87291   0.00000  Uiso   1.00
O1492  O     0.04509   0.70491   0.79375   0.00000  Uiso   1.00
O1493  O     0.45492   0.70491   0.79375   0.00000  Uiso   1.00
O1494  O     0.04509   0.79509   0.87291   0.00000  Uiso   1.00
O1495  O     0.04509   0.79509   0.79375   0.00000  Uiso   1.00
O1496  O     0.45492   0.70491   0.87291   0.00000  Uiso   1.00
O1497  O     0.29509   0.95491   0.87291   0.00000  Uiso   1.00
O1498  O     0.20492   0.54509   0.79375   0.00000  Uiso   1.00
O1499  O     0.20492   0.54509   0.87291   0.00000  Uiso   1.00
O1500  O     0.29509   0.95491   0.79375   0.00000  Uiso   1.00
O1501  O     0.20492   0.95491   0.79375   0.00000  Uiso   1.00
O1502  O     0.29509   0.54509   0.87291   0.00000  Uiso   1.00
O1503  O     0.29509   0.54509   0.79375   0.00000  Uiso   1.00
O1504  O     0.20492   0.95491   0.87291   0.00000  Uiso   1.00
O1505  O     0.02012   0.67191   0.70672   0.00000  Uiso   1.00
C1506  C     0.06341   0.66487   0.69458   0.00000  Uiso   1.00
H1507  H     0.08232   0.66632   0.72698   0.00000  Uiso   1.00
H1508  H     0.07750   0.69093   0.67308   0.00000  Uiso   1.00
C1509  C     0.06998   0.61782   0.66948   0.00000  Uiso   1.00
H1510  H     0.06437   0.61873   0.96492   0.00000  Uiso   1.00
H1511  H     0.10298   0.60654   0.67448   0.00000  Uiso   1.00
H1512  H     0.04847   0.59247   0.68329   0.00000  Uiso   1.00
O1513  O     0.02012   0.82809   0.95994   0.00000  Uiso   1.00
C1514  C     0.06341   0.83513   0.97208   0.00000  Uiso   1.00
H1515  H     0.08232   0.83368   0.93968   0.00000  Uiso   1.00
H1516  H     0.07750   0.80907   0.99358   0.00000  Uiso   1.00
C1517  C     0.06998   0.88218   0.99719   0.00000  Uiso   1.00
H1518  H     0.06437   0.88127   0.70174   0.00000  Uiso   1.00
H1519  H     0.10298   0.89346   0.99219   0.00000  Uiso   1.00
H1520  H     0.04847   0.90753   0.98338   0.00000  Uiso   1.00
O1521  O     0.00488   0.82971   0.72408   0.00000  Uiso   1.00
C1522  C     0.47264   0.86108   0.71613   0.00000  Uiso   1.00
H1523  H     0.44089   0.84470   0.71448   0.00000  Uiso   1.00
H1524  H     0.47922   0.87755   0.68383   0.00000  Uiso   1.00
C1525  C     0.47263   0.89887   0.75528   0.00000  Uiso   1.00
H1526  H     0.00313   0.91747   0.75589   0.00000  Uiso   1.00
H1527  H     0.44662   0.92313   0.74985   0.00000  Uiso   1.00
H1528  H     0.46807   0.88467   0.78933   0.00000  Uiso   1.00
O1529  O     0.00488   0.67029   0.94258   0.00000  Uiso   1.00
C1530  C     0.47264   0.63892   0.95054   0.00000  Uiso   1.00
H1531  H     0.44089   0.65530   0.95218   0.00000  Uiso   1.00
H1532  H     0.47922   0.62245   0.98283   0.00000  Uiso   1.00
C1533  C     0.47263   0.60113   0.91138   0.00000  Uiso   1.00
H1534  H     0.00313   0.58253   0.91078   0.00000  Uiso   1.00
H1535  H     0.44662   0.57687   0.91682   0.00000  Uiso   1.00
H1536  H     0.46807   0.61533   0.87733   0.00000  Uiso   1.00
O1537  O     0.27012   0.92191   0.70672   0.00000  Uiso   1.00
C1538  C     0.31341   0.91487   0.69458   0.00000  Uiso   1.00
H1539  H     0.33232   0.91632   0.72698   0.00000  Uiso   1.00
H1540  H     0.32750   0.94093   0.67308   0.00000  Uiso   1.00
C1541  C     0.31998   0.86782   0.66948   0.00000  Uiso   1.00
H1542  H     0.31437   0.86873   0.96492   0.00000  Uiso   1.00
H1543  H     0.35298   0.85654   0.67448   0.00000  Uiso   1.00
H1544  H     0.29847   0.84247   0.68329   0.00000  Uiso   1.00
O1545  O     0.27012   0.57809   0.95994   0.00000  Uiso   1.00
C1546  C     0.31341   0.58513   0.97208   0.00000  Uiso   1.00
H1547  H     0.33232   0.58368   0.93968   0.00000  Uiso   1.00
H1548  H     0.32750   0.55907   0.99358   0.00000  Uiso   1.00
C1549  C     0.31998   0.63218   0.99719   0.00000  Uiso   1.00
H1550  H     0.31437   0.63127   0.70174   0.00000  Uiso   1.00
H1551  H     0.35298   0.64346   0.99219   0.00000  Uiso   1.00
H1552  H     0.29847   0.65753   0.98338   0.00000  Uiso   1.00
O1553  O     0.25488   0.57971   0.72408   0.00000  Uiso   1.00
C1554  C     0.22264   0.61108   0.71613   0.00000  Uiso   1.00
H1555  H     0.19089   0.59470   0.71448   0.00000  Uiso   1.00
H1556  H     0.22922   0.62755   0.68383   0.00000  Uiso   1.00
C1557  C     0.22263   0.64887   0.75528   0.00000  Uiso   1.00
H1558  H     0.25313   0.66747   0.75589   0.00000  Uiso   1.00
H1559  H     0.19662   0.67313   0.74985   0.00000  Uiso   1.00
H1560  H     0.21807   0.63467   0.78933   0.00000  Uiso   1.00
O1561  O     0.25488   0.92029   0.94258   0.00000  Uiso   1.00
C1562  C     0.22264   0.88892   0.95054   0.00000  Uiso   1.00
H1563  H     0.19089   0.90530   0.95218   0.00000  Uiso   1.00
H1564  H     0.22922   0.87245   0.98283   0.00000  Uiso   1.00
C1565  C     0.22263   0.85113   0.91138   0.00000  Uiso   1.00
H1566  H     0.25313   0.83253   0.91078   0.00000  Uiso   1.00
H1567  H     0.19662   0.82687   0.91682   0.00000  Uiso   1.00
H1568  H     0.21807   0.86533   0.87733   0.00000  Uiso   1.00
I1569  I     0.42705   0.62538   0.72912   0.00000  Uiso   1.00
I1570  I     0.02518   0.90820   0.88115   0.00000  Uiso   1.00
I1571  I     0.13762   0.77128   0.76737   0.00000  Uiso   1.00
I1572  I     0.36439   0.73000   0.90555   0.00000  Uiso   1.00
I1573  I     0.13762   0.72872   0.89929   0.00000  Uiso   1.00
I1574  I     0.36439   0.77000   0.76112   0.00000  Uiso   1.00
I1575  I     0.42705   0.87462   0.93754   0.00000  Uiso   1.00
I1576  I     0.02518   0.59180   0.78551   0.00000  Uiso   1.00
I1577  I     0.17705   0.87538   0.72912   0.00000  Uiso   1.00
I1578  I     0.27518   0.65820   0.88115   0.00000  Uiso   1.00
I1579  I     0.38762   0.52128   0.76737   0.00000  Uiso   1.00
I1580  I     0.11439   0.98000   0.90555   0.00000  Uiso   1.00
I1581  I     0.38762   0.97872   0.89929   0.00000  Uiso   1.00
I1582  I     0.11439   0.52000   0.76112   0.00000  Uiso   1.00
I1583  I     0.17705   0.62462   0.93754   0.00000  Uiso   1.00
I1584  I     0.27518   0.84180   0.78551   0.00000  Uiso   1.00
C1585  C     0.55905   0.69022   0.83239   0.00000  Uiso   1.00
C1586  C     0.93943   0.80825   0.83445   0.00000  Uiso   1.00
C1587  C     0.93943   0.69175   0.83222   0.00000  Uiso   1.00
C1588  C     0.55905   0.80978   0.83428   0.00000  Uiso   1.00
C1589  C     0.80905   0.94022   0.83239   0.00000  Uiso   1.00
C1590  C     0.68943   0.55825   0.83445   0.00000  Uiso   1.00
C1591  C     0.68943   0.94175   0.83222   0.00000  Uiso   1.00
C1592  C     0.80905   0.55978   0.83428   0.00000  Uiso   1.00
C1593  C     0.50512   0.71034   0.68767   0.00000  Uiso   1.00
C1594  C     0.50512   0.78966   0.97899   0.00000  Uiso   1.00
C1595  C     0.50016   0.79005   0.69538   0.00000  Uiso   1.00
C1596  C     0.50016   0.70995   0.97128   0.00000  Uiso   1.00
C1597  C     0.75512   0.96034   0.68767   0.00000  Uiso   1.00
C1598  C     0.75512   0.53966   0.97899   0.00000  Uiso   1.00
C1599  C     0.75016   0.54005   0.69538   0.00000  Uiso   1.00
C1600  C     0.75016   0.95995   0.97128   0.00000  Uiso   1.00
C1601  C     0.90288   0.62258   0.79729   0.00000  Uiso   1.00
C1602  C     0.58649   0.88652   0.85952   0.00000  Uiso   1.00
C1603  C     0.62633   0.83630   0.80455   0.00000  Uiso   1.00
C1604  C     0.86949   0.66818   0.86119   0.00000  Uiso   1.00
C1605  C     0.62633   0.66370   0.86212   0.00000  Uiso   1.00
C1606  C     0.86949   0.83182   0.80547   0.00000  Uiso   1.00
C1607  C     0.90288   0.87742   0.86938   0.00000  Uiso   1.00
C1608  C     0.58649   0.61348   0.80714   0.00000  Uiso   1.00
C1609  C     0.65288   0.87258   0.79729   0.00000  Uiso   1.00
C1610  C     0.83649   0.63652   0.85952   0.00000  Uiso   1.00
C1611  C     0.87633   0.58630   0.80455   0.00000  Uiso   1.00
C1612  C     0.61949   0.91818   0.86119   0.00000  Uiso   1.00
C1613  C     0.87633   0.91370   0.86212   0.00000  Uiso   1.00
C1614  C     0.61949   0.58182   0.80547   0.00000  Uiso   1.00
C1615  C     0.65288   0.62742   0.86938   0.00000  Uiso   1.00
C1616  C     0.83649   0.86348   0.80714   0.00000  Uiso   1.00
C1617  C     0.59222   0.84365   0.83528   0.00000  Uiso   1.00
C1618  C     0.90352   0.66063   0.83001   0.00000  Uiso   1.00
C1619  C     0.90352   0.83937   0.83666   0.00000  Uiso   1.00
C1620  C     0.59222   0.65635   0.83139   0.00000  Uiso   1.00
C1621  C     0.84222   0.59365   0.83528   0.00000  Uiso   1.00
C1622  C     0.65352   0.91063   0.83001   0.00000  Uiso   1.00
C1623  C     0.65352   0.58937   0.83666   0.00000  Uiso   1.00
C1624  C     0.84222   0.90635   0.83139   0.00000  Uiso   1.00
Cu1625 Cu    0.50000   0.75000   0.88022   0.00000  Uiso   1.00
Cu1626 Cu    0.50000   0.75000   0.78645   0.00000  Uiso   1.00
Cu1627 Cu    0.75000   0.50000   0.88022   0.00000  Uiso   1.00
Cu1628 Cu    0.75000   0.50000   0.78645   0.00000  Uiso   1.00
N1629  N     0.50000   0.75000   0.95069   0.00000  Uiso   1.00
N1630  N     0.50000   0.75000   0.71598   0.00000  Uiso   1.00
N1631  N     0.75000   0.50000   0.95069   0.00000  Uiso   1.00
N1632  N     0.75000   0.50000   0.71598   0.00000  Uiso   1.00
O1633  O     0.54509   0.70491   0.87291   0.00000  Uiso   1.00
O1634  O     0.95492   0.79509   0.79375   0.00000  Uiso   1.00
O1635  O     0.95492   0.79509   0.87291   0.00000  Uiso   1.00
O1636  O     0.54509   0.70491   0.79375   0.00000  Uiso   1.00
O1637  O     0.95492   0.70491   0.79375   0.00000  Uiso   1.00
O1638  O     0.54509   0.79509   0.87291   0.00000  Uiso   1.00
O1639  O     0.54509   0.79509   0.79375   0.00000  Uiso   1.00
O1640  O     0.95492   0.70491   0.87291   0.00000  Uiso   1.00
O1641  O     0.79509   0.95491   0.87291   0.00000  Uiso   1.00
O1642  O     0.70492   0.54509   0.79375   0.00000  Uiso   1.00
O1643  O     0.70492   0.54509   0.87291   0.00000  Uiso   1.00
O1644  O     0.79509   0.95491   0.79375   0.00000  Uiso   1.00
O1645  O     0.70492   0.95491   0.79375   0.00000  Uiso   1.00
O1646  O     0.79509   0.54509   0.87291   0.00000  Uiso   1.00
O1647  O     0.79509   0.54509   0.79375   0.00000  Uiso   1.00
O1648  O     0.70492   0.95491   0.87291   0.00000  Uiso   1.00
O1649  O     0.52012   0.67191   0.70672   0.00000  Uiso   1.00
C1650  C     0.56341   0.66487   0.69458   0.00000  Uiso   1.00
H1651  H     0.58232   0.66632   0.72698   0.00000  Uiso   1.00
H1652  H     0.57750   0.69093   0.67308   0.00000  Uiso   1.00
C1653  C     0.56998   0.61782   0.66948   0.00000  Uiso   1.00
H1654  H     0.56437   0.61873   0.96492   0.00000  Uiso   1.00
H1655  H     0.60298   0.60654   0.67448   0.00000  Uiso   1.00
H1656  H     0.54847   0.59247   0.68329   0.00000  Uiso   1.00
O1657  O     0.52012   0.82809   0.95994   0.00000  Uiso   1.00
C1658  C     0.56341   0.83513   0.97208   0.00000  Uiso   1.00
H1659  H     0.58232   0.83368   0.93968   0.00000  Uiso   1.00
H1660  H     0.57750   0.80907   0.99358   0.00000  Uiso   1.00
C1661  C     0.56998   0.88218   0.99719   0.00000  Uiso   1.00
H1662  H     0.56437   0.88127   0.70174   0.00000  Uiso   1.00
H1663  H     0.60298   0.89346   0.99219   0.00000  Uiso   1.00
H1664  H     0.54847   0.90753   0.98338   0.00000  Uiso   1.00
O1665  O     0.50488   0.82971   0.72408   0.00000  Uiso   1.00
C1666  C     0.97264   0.86108   0.71613   0.00000  Uiso   1.00
H1667  H     0.94089   0.84470   0.71448   0.00000  Uiso   1.00
H1668  H     0.97922   0.87755   0.68383   0.00000  Uiso   1.00
C1669  C     0.97263   0.89887   0.75528   0.00000  Uiso   1.00
H1670  H     0.50313   0.91747   0.75589   0.00000  Uiso   1.00
H1671  H     0.94662   0.92313   0.74985   0.00000  Uiso   1.00
H1672  H     0.96807   0.88467   0.78933   0.00000  Uiso   1.00
O1673  O     0.50488   0.67029   0.94258   0.00000  Uiso   1.00
C1674  C     0.97264   0.63892   0.95054   0.00000  Uiso   1.00
H1675  H     0.94089   0.65530   0.95218   0.00000  Uiso   1.00
H1676  H     0.97922   0.62245   0.98283   0.00000  Uiso   1.00
C1677  C     0.97263   0.60113   0.91138   0.00000  Uiso   1.00
H1678  H     0.50313   0.58253   0.91078   0.00000  Uiso   1.00
H1679  H     0.94662   0.57687   0.91682   0.00000  Uiso   1.00
H1680  H     0.96807   0.61533   0.87733   0.00000  Uiso   1.00
O1681  O     0.77012   0.92191   0.70672   0.00000  Uiso   1.00
C1682  C     0.81341   0.91487   0.69458   0.00000  Uiso   1.00
H1683  H     0.83232   0.91632   0.72698   0.00000  Uiso   1.00
H1684  H     0.82750   0.94093   0.67308   0.00000  Uiso   1.00
C1685  C     0.81998   0.86782   0.66948   0.00000  Uiso   1.00
H1686  H     0.81437   0.86873   0.96492   0.00000  Uiso   1.00
H1687  H     0.85298   0.85654   0.67448   0.00000  Uiso   1.00
H1688  H     0.79847   0.84247   0.68329   0.00000  Uiso   1.00
O1689  O     0.77012   0.57809   0.95994   0.00000  Uiso   1.00
C1690  C     0.81341   0.58513   0.97208   0.00000  Uiso   1.00
H1691  H     0.83232   0.58368   0.93968   0.00000  Uiso   1.00
H1692  H     0.82750   0.55907   0.99358   0.00000  Uiso   1.00
C1693  C     0.81998   0.63218   0.99719   0.00000  Uiso   1.00
H1694  H     0.81437   0.63127   0.70174   0.00000  Uiso   1.00
H1695  H     0.85298   0.64346   0.99219   0.00000  Uiso   1.00
H1696  H     0.79847   0.65753   0.98338   0.00000  Uiso   1.00
O1697  O     0.75488   0.57971   0.72408   0.00000  Uiso   1.00
C1698  C     0.72264   0.61108   0.71613   0.00000  Uiso   1.00
H1699  H     0.69089   0.59470   0.71448   0.00000  Uiso   1.00
H1700  H     0.72922   0.62755   0.68383   0.00000  Uiso   1.00
C1701  C     0.72263   0.64887   0.75528   0.00000  Uiso   1.00
H1702  H     0.75313   0.66747   0.75589   0.00000  Uiso   1.00
H1703  H     0.69662   0.67313   0.74985   0.00000  Uiso   1.00
H1704  H     0.71807   0.63467   0.78933   0.00000  Uiso   1.00
O1705  O     0.75488   0.92029   0.94258   0.00000  Uiso   1.00
C1706  C     0.72264   0.88892   0.95054   0.00000  Uiso   1.00
H1707  H     0.69089   0.90530   0.95218   0.00000  Uiso   1.00
H1708  H     0.72922   0.87245   0.98283   0.00000  Uiso   1.00
C1709  C     0.72263   0.85113   0.91138   0.00000  Uiso   1.00
H1710  H     0.75313   0.83253   0.91078   0.00000  Uiso   1.00
H1711  H     0.69662   0.82687   0.91682   0.00000  Uiso   1.00
H1712  H     0.71807   0.86533   0.87733   0.00000  Uiso   1.00
I1713  I     0.92705   0.62538   0.72912   0.00000  Uiso   1.00
I1714  I     0.52518   0.90820   0.88115   0.00000  Uiso   1.00
I1715  I     0.63762   0.77128   0.76737   0.00000  Uiso   1.00
I1716  I     0.86439   0.73000   0.90555   0.00000  Uiso   1.00
I1717  I     0.63762   0.72872   0.89929   0.00000  Uiso   1.00
I1718  I     0.86439   0.77000   0.76112   0.00000  Uiso   1.00
I1719  I     0.92705   0.87462   0.93754   0.00000  Uiso   1.00
I1720  I     0.52518   0.59180   0.78551   0.00000  Uiso   1.00
I1721  I     0.67705   0.87538   0.72912   0.00000  Uiso   1.00
I1722  I     0.77518   0.65820   0.88115   0.00000  Uiso   1.00
I1723  I     0.88762   0.52128   0.76737   0.00000  Uiso   1.00
I1724  I     0.61439   0.98000   0.90555   0.00000  Uiso   1.00
I1725  I     0.88762   0.97872   0.89929   0.00000  Uiso   1.00
I1726  I     0.61439   0.52000   0.76112   0.00000  Uiso   1.00
I1727  I     0.67705   0.62462   0.93754   0.00000  Uiso   1.00
I1728  I     0.77518   0.84180   0.78551   0.00000  Uiso   1.00
loop_
_geom_bond_atom_site_label_1
_geom_bond_atom_site_label_2
_geom_bond_distance
_geom_bond_site_symmetry_2
_ccdc_geom_bond_type
C1     O49     1.291   .     A
C1     O52     1.304   .     A
C1     C36     1.449   .     S
C2     C35     1.460   .     S
C2     O50     1.301   .     A
C2     O51     1.299   .     A
C3     C34     1.460   .     S
C3     O56     1.301   .     A
C3     O53     1.299   .     A
C4     O55     1.291   .     A
C4     C33     1.449   .     S
C4     O54     1.304   .     A
C5     O60     1.304   .     A
C5     O57     1.291   .     A
C5     C40     1.449   .     S
C6     O58     1.301   .     A
C6     C39     1.460   .     S
C6     O59     1.299   .     A
C7     O61     1.299   .     A
C7     O64     1.301   .     A
C7     C38     1.460   .     S
C8     C37     1.449   .     S
C8     O63     1.291   .     A
C8     O62     1.304   .     A
C9     O65     1.382   .     S
C9     C1164   1.440   1_554 S
C9     N46     1.382   .     S
C10    O73     1.382   .     S
C10    C587    1.440   .     S
C10    N45     1.382   .     S
C11    O81     1.386   .     S
C11    C1162   1.440   1_554 S
C11    N46     1.364   .     S
C12    O89     1.386   .     S
C12    C585    1.440   .     S
C12    N45     1.364   .     S
C13    O97     1.382   .     S
C13    C1168   1.440   1_554 S
C13    N336    1.382   .     S
C14    O105    1.382   .     S
C14    N47     1.382   .     A
C14    C591    1.440   .     S
C15    O113    1.386   .     S
C15    N48     1.364   .     A
C15    C1166   1.440   1_554 S
C16    O121    1.386   .     S
C16    C589    1.440   .     S
C16    N335    1.364   .     S
C17    I129    2.116   .     S
C17    C27     1.390   .     A
C17    C34     1.408   .     A
C18    C33     1.407   .     A
C18    C28     1.400   .     A
C18    I130    2.123   .     S
C19    C25     1.390   .     A
C19    I131    2.151   .     S
C19    C33     1.403   .     A
C20    C34     1.410   .     A
C20    I132    2.148   .     S
C20    C26     1.400   .     A
C21    C36     1.403   .     A
C21    C31     1.390   .     A
C21    I133    2.151   .     S
C22    C35     1.410   .     A
C22    C32     1.400   .     A
C22    I134    2.148   .     S
C23    C29     1.390   .     A
C23    C35     1.408   .     A
C23    I135    2.116   .     S
C24    C36     1.407   .     A
C24    I136    2.123   .     S
C24    C30     1.400   .     A
C25    C38     1.408   .     A
C25    I137    2.116   .     S
C26    I138    2.123   .     S
C26    C37     1.407   .     A
C27    I139    2.151   .     S
C27    C37     1.403   .     A
C28    I140    2.148   .     S
C28    C38     1.410   .     A
C29    I141    2.151   .     S
C29    C40     1.403   .     A
C30    I142    2.148   .     S
C30    C39     1.410   .     A
C31    I143    2.116   .     S
C31    C39     1.408   .     A
C32    C40     1.407   .     A
C32    I144    2.123   .     S
Cu41   Cu42    2.702   .     S
Cu41   O200    1.952   1_455 S
Cu41   N45     2.030   .     S
Cu41   O195    1.974   1_455 S
Cu41   O49     1.952   .     S
Cu41   O54     1.974   .     S
Cu42   O197    1.974   1_455 S
Cu42   N46     2.030   .     S
Cu42   O194    1.952   1_455 S
Cu42   O52     1.974   .     S
Cu42   O55     1.952   .     S
Cu43   Cu44    2.702   .     S
Cu43   O59     1.974   .     S
Cu43   O62     1.974   .     S
Cu43   N47     2.030   .     S
Cu43   O345    1.952   1_545 S
Cu43   O352    1.952   1_545 S
Cu44   O58     1.952   .     S
Cu44   O63     1.952   .     S
Cu44   N48     2.030   .     S
Cu44   O348    1.974   1_545 S
Cu44   O349    1.974   1_545 S
N47    C304    1.364   1_545 S
N48    C301    1.382   1_545 S
O50    Cu186   1.952   .     S
O51    Cu185   1.974   .     S
O53    Cu186   1.974   .     S
O56    Cu185   1.952   .     S
O57    Cu331   1.952   .     S
O60    Cu332   1.974   .     S
O61    Cu332   1.974   .     S
O64    Cu331   1.952   .     S
O65    C66     1.427   .     S
C66    H68     1.118   .     S
C66    C69     1.528   .     S
C66    H67     1.107   .     S
C69    H71     1.110   .     S
C69    H72     1.109   .     S
C69    H1222   1.109   1_554 S
H70    C645    1.109   .     S
O73    C74     1.427   .     S
C74    C77     1.528   .     S
C74    H75     1.107   .     S
C74    H76     1.118   .     S
C77    H80     1.109   .     S
C77    H79     1.110   .     S
C77    H654    1.109   .     S
H78    C1229   1.109   1_554 S
O81    C226    1.409   1_455 S
C82    H83     1.115   .     S
C82    H84     1.103   .     S
C82    C85     1.522   .     S
C82    O225    1.409   .     S
C85    H87     1.110   .     S
C85    H88     1.106   .     S
C85    H230    1.111   .     S
H86    C229    1.111   1_455 S
O89    C234    1.409   1_455 S
C90    H92     1.103   .     S
C90    C93     1.522   .     S
C90    H91     1.115   .     S
C90    O233    1.409   .     S
C93    H96     1.106   .     S
C93    H95     1.110   .     S
C93    H238    1.111   .     S
H94    C237    1.111   1_455 S
O97    C98     1.427   .     S
C98    C101    1.528   .     S
C98    H100    1.118   .     S
C98    H99     1.107   .     S
C101   H103    1.110   .     S
C101   H104    1.109   .     S
C101   H1254   1.109   1_554 S
H102   C677    1.109   .     S
O105   C106    1.427   .     S
C106   H107    1.107   .     S
C106   H108    1.118   .     S
C106   C109    1.528   .     S
C109   H111    1.110   .     S
C109   H112    1.109   .     S
C109   H686    1.109   .     S
H110   C1261   1.109   1_554 S
O113   C114    1.409   .     S
C114   H115    1.115   .     S
C114   H116    1.103   .     S
C114   C117    1.522   .     S
C117   H120    1.106   .     S
C117   H119    1.110   .     S
C117   H118    1.111   .     S
O121   C122    1.409   .     S
C122   H124    1.103   .     S
C122   H123    1.115   .     S
C122   C125    1.522   .     S
C125   H128    1.106   .     S
C125   H126    1.111   .     S
C125   H127    1.110   .     S
C145   O193    1.291   .     A
C145   O196    1.304   .     A
C145   C180    1.449   .     S
C146   C179    1.460   .     S
C146   O194    1.301   .     A
C146   O195    1.299   .     A
C147   C178    1.460   .     S
C147   O200    1.301   .     A
C147   O197    1.299   .     A
C148   O199    1.291   .     A
C148   C177    1.449   .     S
C148   O198    1.304   .     A
C149   O204    1.304   .     A
C149   O201    1.291   .     A
C149   C184    1.449   .     S
C150   O202    1.301   .     A
C150   C183    1.460   .     S
C150   O203    1.299   .     A
C151   O205    1.299   .     A
C151   O208    1.301   .     A
C151   C182    1.460   .     S
C152   C181    1.449   .     S
C152   O207    1.291   .     A
C152   O206    1.304   .     A
C153   O209    1.382   .     S
C153   C1308   1.440   1_554 S
C153   N190    1.382   .     S
C154   O217    1.382   .     S
C154   C731    1.440   .     S
C154   N189    1.382   .     S
C155   O225    1.386   .     S
C155   C1306   1.440   1_554 S
C155   N190    1.364   .     S
C156   O233    1.386   .     S
C156   C729    1.440   .     S
C156   N189    1.364   .     S
C157   O241    1.382   .     S
C157   C1312   1.440   1_554 S
C157   N480    1.382   .     S
C158   O249    1.382   .     S
C158   N191    1.382   .     A
C158   C735    1.440   .     S
C159   O257    1.386   .     S
C159   N192    1.364   .     A
C159   C1310   1.440   1_554 S
C160   O265    1.386   .     S
C160   C733    1.440   .     S
C160   N479    1.364   .     S
C161   I273    2.116   .     S
C161   C171    1.390   .     A
C161   C178    1.408   .     A
C162   C177    1.407   .     A
C162   C172    1.400   .     A
C162   I274    2.123   .     S
C163   C169    1.390   .     A
C163   I275    2.151   .     S
C163   C177    1.403   .     A
C164   C178    1.410   .     A
C164   I276    2.148   .     S
C164   C170    1.400   .     A
C165   C180    1.403   .     A
C165   C175    1.390   .     A
C165   I277    2.151   .     S
C166   C179    1.410   .     A
C166   C176    1.400   .     A
C166   I278    2.148   .     S
C167   C173    1.390   .     A
C167   C179    1.408   .     A
C167   I279    2.116   .     S
C168   C180    1.407   .     A
C168   I280    2.123   .     S
C168   C174    1.400   .     A
C169   C182    1.408   .     A
C169   I281    2.116   .     S
C170   I282    2.123   .     S
C170   C181    1.407   .     A
C171   I283    2.151   .     S
C171   C181    1.403   .     A
C172   I284    2.148   .     S
C172   C182    1.410   .     A
C173   I285    2.151   .     S
C173   C184    1.403   .     A
C174   I286    2.148   .     S
C174   C183    1.410   .     A
C175   I287    2.116   .     S
C175   C183    1.408   .     A
C176   C184    1.407   .     A
C176   I288    2.123   .     S
Cu185  Cu186   2.702   .     S
Cu185  N189    2.030   .     S
Cu185  O193    1.952   .     S
Cu185  O198    1.974   .     S
Cu186  N190    2.030   .     S
Cu186  O196    1.974   .     S
Cu186  O199    1.952   .     S
Cu187  Cu188   2.702   .     S
Cu187  O203    1.974   .     S
Cu187  O206    1.974   .     S
Cu187  N191    2.030   .     S
Cu187  O489    1.952   1_545 S
Cu187  O496    1.952   1_545 S
Cu188  O202    1.952   .     S
Cu188  O207    1.952   .     S
Cu188  N192    2.030   .     S
Cu188  O492    1.974   1_545 S
Cu188  O493    1.974   1_545 S
N191   C448    1.364   1_545 S
N192   C445    1.382   1_545 S
O194   Cu42    1.952   1_655 S
O195   Cu41    1.974   1_655 S
O197   Cu42    1.974   1_655 S
O200   Cu41    1.952   1_655 S
O201   Cu475   1.952   .     S
O204   Cu476   1.974   .     S
O205   Cu476   1.974   .     S
O208   Cu475   1.952   .     S
O209   C210    1.427   .     S
C210   H212    1.118   .     S
C210   C213    1.528   .     S
C210   H211    1.107   .     S
C213   H215    1.110   .     S
C213   H216    1.109   .     S
C213   H1366   1.109   1_554 S
H214   C789    1.109   .     S
O217   C218    1.427   .     S
C218   C221    1.528   .     S
C218   H219    1.107   .     S
C218   H220    1.118   .     S
C221   H224    1.109   .     S
C221   H223    1.110   .     S
C221   H798    1.109   .     S
H222   C1373   1.109   1_554 S
C226   H227    1.115   .     S
C226   H228    1.103   .     S
C226   C229    1.522   .     S
C226   O81     1.409   1_655 S
C229   H231    1.110   .     S
C229   H232    1.106   .     S
C229   H86     1.111   1_655 S
C234   H236    1.103   .     S
C234   C237    1.522   .     S
C234   H235    1.115   .     S
C234   O89     1.409   1_655 S
C237   H240    1.106   .     S
C237   H239    1.110   .     S
C237   H94     1.111   1_655 S
O241   C242    1.427   .     S
C242   C245    1.528   .     S
C242   H244    1.118   .     S
C242   H243    1.107   .     S
C245   H247    1.110   .     S
C245   H248    1.109   .     S
C245   H1398   1.109   1_554 S
H246   C821    1.109   .     S
O249   C250    1.427   .     S
C250   H251    1.107   .     S
C250   H252    1.118   .     S
C250   C253    1.528   .     S
C253   H255    1.110   .     S
C253   H256    1.109   .     S
C253   H830    1.109   .     S
H254   C1405   1.109   1_554 S
O257   C258    1.409   .     S
C258   H259    1.115   .     S
C258   H260    1.103   .     S
C258   C261    1.522   .     S
C261   H264    1.106   .     S
C261   H263    1.110   .     S
C261   H262    1.111   .     S
O265   C266    1.409   .     S
C266   H268    1.103   .     S
C266   H267    1.115   .     S
C266   C269    1.522   .     S
C269   H272    1.106   .     S
C269   H270    1.111   .     S
C269   H271    1.110   .     S
C289   O337    1.291   .     A
C289   O340    1.304   .     A
C289   C324    1.449   .     S
C290   C323    1.460   .     S
C290   O338    1.301   .     A
C290   O339    1.299   .     A
C291   C322    1.460   .     S
C291   O344    1.301   .     A
C291   O341    1.299   .     A
C292   O343    1.291   .     A
C292   C321    1.449   .     S
C292   O342    1.304   .     A
C293   O348    1.304   .     A
C293   O345    1.291   .     A
C293   C328    1.449   .     S
C294   O346    1.301   .     A
C294   C327    1.460   .     S
C294   O347    1.299   .     A
C295   O349    1.299   .     A
C295   O352    1.301   .     A
C295   C326    1.460   .     S
C296   C325    1.449   .     S
C296   O351    1.291   .     A
C296   O350    1.304   .     A
C297   O353    1.382   .     S
C297   C1452   1.440   1_554 S
C297   N334    1.382   .     S
C298   O361    1.382   .     S
C298   C875    1.440   .     S
C298   N333    1.382   .     S
C299   O369    1.386   .     S
C299   C1450   1.440   1_554 S
C299   N334    1.364   .     S
C300   O377    1.386   .     S
C300   C873    1.440   .     S
C300   N333    1.364   .     S
C301   O385    1.382   .     S
C301   C1456   1.440   1_554 S
C301   N48     1.382   1_565 S
C302   O393    1.382   .     S
C302   N335    1.382   .     A
C302   C879    1.440   .     S
C303   O401    1.386   .     S
C303   N336    1.364   .     A
C303   C1454   1.440   1_554 S
C304   O409    1.386   .     S
C304   C877    1.440   .     S
C304   N47     1.364   1_565 S
C305   I417    2.116   .     S
C305   C315    1.390   .     A
C305   C322    1.408   .     A
C306   C321    1.407   .     A
C306   C316    1.400   .     A
C306   I418    2.123   .     S
C307   C313    1.390   .     A
C307   I419    2.151   .     S
C307   C321    1.403   .     A
C308   C322    1.410   .     A
C308   I420    2.148   .     S
C308   C314    1.400   .     A
C309   C324    1.403   .     A
C309   C319    1.390   .     A
C309   I421    2.151   .     S
C310   C323    1.410   .     A
C310   C320    1.400   .     A
C310   I422    2.148   .     S
C311   C317    1.390   .     A
C311   C323    1.408   .     A
C311   I423    2.116   .     S
C312   C324    1.407   .     A
C312   I424    2.123   .     S
C312   C318    1.400   .     A
C313   C326    1.408   .     A
C313   I425    2.116   .     S
C314   I426    2.123   .     S
C314   C325    1.407   .     A
C315   I427    2.151   .     S
C315   C325    1.403   .     A
C316   I428    2.148   .     S
C316   C326    1.410   .     A
C317   I429    2.151   .     S
C317   C328    1.403   .     A
C318   I430    2.148   .     S
C318   C327    1.410   .     A
C319   I431    2.116   .     S
C319   C327    1.408   .     A
C320   C328    1.407   .     A
C320   I432    2.123   .     S
Cu329  Cu330   2.702   .     S
Cu329  O488    1.952   1_455 S
Cu329  N333    2.030   .     S
Cu329  O483    1.974   1_455 S
Cu329  O337    1.952   .     S
Cu329  O342    1.974   .     S
Cu330  O485    1.974   1_455 S
Cu330  N334    2.030   .     S
Cu330  O482    1.952   1_455 S
Cu330  O340    1.974   .     S
Cu330  O343    1.952   .     S
Cu331  Cu332   2.702   .     S
Cu331  O347    1.974   .     S
Cu331  O350    1.974   .     S
Cu331  N335    2.030   .     S
Cu332  O346    1.952   .     S
Cu332  O351    1.952   .     S
Cu332  N336    2.030   .     S
O338   Cu474   1.952   .     S
O339   Cu473   1.974   .     S
O341   Cu474   1.974   .     S
O344   Cu473   1.952   .     S
O345   Cu43    1.952   1_565 S
O348   Cu44    1.974   1_565 S
O349   Cu44    1.974   1_565 S
O352   Cu43    1.952   1_565 S
O353   C354    1.427   .     S
C354   H356    1.118   .     S
C354   C357    1.528   .     S
C354   H355    1.107   .     S
C357   H359    1.110   .     S
C357   H360    1.109   .     S
C357   H1510   1.109   1_554 S
H358   C933    1.109   .     S
O361   C362    1.427   .     S
C362   C365    1.528   .     S
C362   H363    1.107   .     S
C362   H364    1.118   .     S
C365   H368    1.109   .     S
C365   H367    1.110   .     S
C365   H942    1.109   .     S
H366   C1517   1.109   1_554 S
O369   C514    1.409   1_455 S
C370   H371    1.115   .     S
C370   H372    1.103   .     S
C370   C373    1.522   .     S
C370   O513    1.409   .     S
C373   H375    1.110   .     S
C373   H376    1.106   .     S
C373   H518    1.111   .     S
H374   C517    1.111   1_455 S
O377   C522    1.409   1_455 S
C378   H380    1.103   .     S
C378   C381    1.522   .     S
C378   H379    1.115   .     S
C378   O521    1.409   .     S
C381   H384    1.106   .     S
C381   H383    1.110   .     S
C381   H526    1.111   .     S
H382   C525    1.111   1_455 S
O385   C386    1.427   .     S
C386   C389    1.528   .     S
C386   H388    1.118   .     S
C386   H387    1.107   .     S
C389   H391    1.110   .     S
C389   H392    1.109   .     S
C389   H1542   1.109   1_554 S
H390   C965    1.109   .     S
O393   C394    1.427   .     S
C394   H395    1.107   .     S
C394   H396    1.118   .     S
C394   C397    1.528   .     S
C397   H399    1.110   .     S
C397   H400    1.109   .     S
C397   H974    1.109   .     S
H398   C1549   1.109   1_554 S
O401   C402    1.409   .     S
C402   H403    1.115   .     S
C402   H404    1.103   .     S
C402   C405    1.522   .     S
C405   H408    1.106   .     S
C405   H407    1.110   .     S
C405   H406    1.111   .     S
O409   C410    1.409   .     S
C410   H412    1.103   .     S
C410   H411    1.115   .     S
C410   C413    1.522   .     S
C413   H416    1.106   .     S
C413   H414    1.111   .     S
C413   H415    1.110   .     S
C433   O481    1.291   .     A
C433   O484    1.304   .     A
C433   C468    1.449   .     S
C434   C467    1.460   .     S
C434   O482    1.301   .     A
C434   O483    1.299   .     A
C435   C466    1.460   .     S
C435   O488    1.301   .     A
C435   O485    1.299   .     A
C436   O487    1.291   .     A
C436   C465    1.449   .     S
C436   O486    1.304   .     A
C437   O492    1.304   .     A
C437   O489    1.291   .     A
C437   C472    1.449   .     S
C438   O490    1.301   .     A
C438   C471    1.460   .     S
C438   O491    1.299   .     A
C439   O493    1.299   .     A
C439   O496    1.301   .     A
C439   C470    1.460   .     S
C440   C469    1.449   .     S
C440   O495    1.291   .     A
C440   O494    1.304   .     A
C441   O497    1.382   .     S
C441   C1596   1.440   1_554 S
C441   N478    1.382   .     S
C442   O505    1.382   .     S
C442   C1019   1.440   .     S
C442   N477    1.382   .     S
C443   O513    1.386   .     S
C443   C1594   1.440   1_554 S
C443   N478    1.364   .     S
C444   O521    1.386   .     S
C444   C1017   1.440   .     S
C444   N477    1.364   .     S
C445   O529    1.382   .     S
C445   C1600   1.440   1_554 S
C445   N192    1.382   1_565 S
C446   O537    1.382   .     S
C446   N479    1.382   .     A
C446   C1023   1.440   .     S
C447   O545    1.386   .     S
C447   N480    1.364   .     A
C447   C1598   1.440   1_554 S
C448   O553    1.386   .     S
C448   C1021   1.440   .     S
C448   N191    1.364   1_565 S
C449   I561    2.116   .     S
C449   C459    1.390   .     A
C449   C466    1.408   .     A
C450   C465    1.407   .     A
C450   C460    1.400   .     A
C450   I562    2.123   .     S
C451   C457    1.390   .     A
C451   I563    2.151   .     S
C451   C465    1.403   .     A
C452   C466    1.410   .     A
C452   I564    2.148   .     S
C452   C458    1.400   .     A
C453   C468    1.403   .     A
C453   C463    1.390   .     A
C453   I565    2.151   .     S
C454   C467    1.410   .     A
C454   C464    1.400   .     A
C454   I566    2.148   .     S
C455   C461    1.390   .     A
C455   C467    1.408   .     A
C455   I567    2.116   .     S
C456   C468    1.407   .     A
C456   I568    2.123   .     S
C456   C462    1.400   .     A
C457   C470    1.408   .     A
C457   I569    2.116   .     S
C458   I570    2.123   .     S
C458   C469    1.407   .     A
C459   I571    2.151   .     S
C459   C469    1.403   .     A
C460   I572    2.148   .     S
C460   C470    1.410   .     A
C461   I573    2.151   .     S
C461   C472    1.403   .     A
C462   I574    2.148   .     S
C462   C471    1.410   .     A
C463   I575    2.116   .     S
C463   C471    1.408   .     A
C464   C472    1.407   .     A
C464   I576    2.123   .     S
Cu473  Cu474   2.702   .     S
Cu473  N477    2.030   .     S
Cu473  O481    1.952   .     S
Cu473  O486    1.974   .     S
Cu474  N478    2.030   .     S
Cu474  O484    1.974   .     S
Cu474  O487    1.952   .     S
Cu475  Cu476   2.702   .     S
Cu475  O491    1.974   .     S
Cu475  O494    1.974   .     S
Cu475  N479    2.030   .     S
Cu476  O490    1.952   .     S
Cu476  O495    1.952   .     S
Cu476  N480    2.030   .     S
O482   Cu330   1.952   1_655 S
O483   Cu329   1.974   1_655 S
O485   Cu330   1.974   1_655 S
O488   Cu329   1.952   1_655 S
O489   Cu187   1.952   1_565 S
O492   Cu188   1.974   1_565 S
O493   Cu188   1.974   1_565 S
O496   Cu187   1.952   1_565 S
O497   C498    1.427   .     S
C498   H500    1.118   .     S
C498   C501    1.528   .     S
C498   H499    1.107   .     S
C501   H503    1.110   .     S
C501   H504    1.109   .     S
C501   H1654   1.109   1_554 S
H502   C1077   1.109   .     S
O505   C506    1.427   .     S
C506   C509    1.528   .     S
C506   H507    1.107   .     S
C506   H508    1.118   .     S
C509   H512    1.109   .     S
C509   H511    1.110   .     S
C509   H1086   1.109   .     S
H510   C1661   1.109   1_554 S
C514   H515    1.115   .     S
C514   H516    1.103   .     S
C514   C517    1.522   .     S
C514   O369    1.409   1_655 S
C517   H519    1.110   .     S
C517   H520    1.106   .     S
C517   H374    1.111   1_655 S
C522   H524    1.103   .     S
C522   C525    1.522   .     S
C522   H523    1.115   .     S
C522   O377    1.409   1_655 S
C525   H528    1.106   .     S
C525   H527    1.110   .     S
C525   H382    1.111   1_655 S
O529   C530    1.427   .     S
C530   C533    1.528   .     S
C530   H532    1.118   .     S
C530   H531    1.107   .     S
C533   H535    1.110   .     S
C533   H536    1.109   .     S
C533   H1686   1.109   1_554 S
H534   C1109   1.109   .     S
O537   C538    1.427   .     S
C538   H539    1.107   .     S
C538   H540    1.118   .     S
C538   C541    1.528   .     S
C541   H543    1.110   .     S
C541   H544    1.109   .     S
C541   H1118   1.109   .     S
H542   C1693   1.109   1_554 S
O545   C546    1.409   .     S
C546   H547    1.115   .     S
C546   H548    1.103   .     S
C546   C549    1.522   .     S
C549   H552    1.106   .     S
C549   H551    1.110   .     S
C549   H550    1.111   .     S
O553   C554    1.409   .     S
C554   H556    1.103   .     S
C554   H555    1.115   .     S
C554   C557    1.522   .     S
C557   H560    1.106   .     S
C557   H558    1.111   .     S
C557   H559    1.110   .     S
C577   O625    1.291   .     A
C577   O628    1.304   .     A
C577   C612    1.449   .     S
C578   C611    1.460   .     S
C578   O626    1.301   .     A
C578   O627    1.299   .     A
C579   C610    1.460   .     S
C579   O632    1.301   .     A
C579   O629    1.299   .     A
C580   O631    1.291   .     A
C580   C609    1.449   .     S
C580   O630    1.304   .     A
C581   O636    1.304   .     A
C581   O633    1.291   .     A
C581   C616    1.449   .     S
C582   O634    1.301   .     A
C582   C615    1.460   .     S
C582   O635    1.299   .     A
C583   O637    1.299   .     A
C583   O640    1.301   .     A
C583   C614    1.460   .     S
C584   C613    1.449   .     S
C584   O639    1.291   .     A
C584   O638    1.304   .     A
C585   O641    1.382   .     S
C585   N622    1.382   .     S
C586   O649    1.382   .     S
C586   C1163   1.440   .     S
C586   N621    1.382   .     S
C587   O657    1.386   .     S
C587   N622    1.364   .     S
C588   O665    1.386   .     S
C588   C1161   1.440   .     S
C588   N621    1.364   .     S
C589   O673    1.382   .     S
C589   N912    1.382   .     S
C590   O681    1.382   .     S
C590   N623    1.382   .     A
C590   C1167   1.440   .     S
C591   O689    1.386   .     S
C591   N624    1.364   .     A
C592   O697    1.386   .     S
C592   C1165   1.440   .     S
C592   N911    1.364   .     S
C593   I705    2.116   .     S
C593   C603    1.390   .     A
C593   C610    1.408   .     A
C594   C609    1.407   .     A
C594   C604    1.400   .     A
C594   I706    2.123   .     S
C595   C601    1.390   .     A
C595   I707    2.151   .     S
C595   C609    1.403   .     A
C596   C610    1.410   .     A
C596   I708    2.148   .     S
C596   C602    1.400   .     A
C597   C612    1.403   .     A
C597   C607    1.390   .     A
C597   I709    2.151   .     S
C598   C611    1.410   .     A
C598   C608    1.400   .     A
C598   I710    2.148   .     S
C599   C605    1.390   .     A
C599   C611    1.408   .     A
C599   I711    2.116   .     S
C600   C612    1.407   .     A
C600   I712    2.123   .     S
C600   C606    1.400   .     A
C601   C614    1.408   .     A
C601   I713    2.116   .     S
C602   I714    2.123   .     S
C602   C613    1.407   .     A
C603   I715    2.151   .     S
C603   C613    1.403   .     A
C604   I716    2.148   .     S
C604   C614    1.410   .     A
C605   I717    2.151   .     S
C605   C616    1.403   .     A
C606   I718    2.148   .     S
C606   C615    1.410   .     A
C607   I719    2.116   .     S
C607   C615    1.408   .     A
C608   C616    1.407   .     A
C608   I720    2.123   .     S
Cu617  Cu618   2.702   .     S
Cu617  O776    1.952   1_455 S
Cu617  N621    2.030   .     S
Cu617  O771    1.974   1_455 S
Cu617  O625    1.952   .     S
Cu617  O630    1.974   .     S
Cu618  O773    1.974   1_455 S
Cu618  N622    2.030   .     S
Cu618  O770    1.952   1_455 S
Cu618  O628    1.974   .     S
Cu618  O631    1.952   .     S
Cu619  Cu620   2.702   .     S
Cu619  O635    1.974   .     S
Cu619  O638    1.974   .     S
Cu619  N623    2.030   .     S
Cu619  O921    1.952   1_545 S
Cu619  O928    1.952   1_545 S
Cu620  O634    1.952   .     S
Cu620  O639    1.952   .     S
Cu620  N624    2.030   .     S
Cu620  O924    1.974   1_545 S
Cu620  O925    1.974   1_545 S
N623   C880    1.364   1_545 S
N624   C877    1.382   1_545 S
O626   Cu762   1.952   .     S
O627   Cu761   1.974   .     S
O629   Cu762   1.974   .     S
O632   Cu761   1.952   .     S
O633   Cu907   1.952   .     S
O636   Cu908   1.974   .     S
O637   Cu908   1.974   .     S
O640   Cu907   1.952   .     S
O641   C642    1.427   .     S
C642   H644    1.118   .     S
C642   C645    1.528   .     S
C642   H643    1.107   .     S
C645   H647    1.110   .     S
C645   H648    1.109   .     S
H646   C1221   1.109   .     S
O649   C650    1.427   .     S
C650   C653    1.528   .     S
C650   H651    1.107   .     S
C650   H652    1.118   .     S
C653   H656    1.109   .     S
C653   H655    1.110   .     S
C653   H1230   1.109   .     S
O657   C802    1.409   1_455 S
C658   H659    1.115   .     S
C658   H660    1.103   .     S
C658   C661    1.522   .     S
C658   O801    1.409   .     S
C661   H663    1.110   .     S
C661   H664    1.106   .     S
C661   H806    1.111   .     S
H662   C805    1.111   1_455 S
O665   C810    1.409   1_455 S
C666   H668    1.103   .     S
C666   C669    1.522   .     S
C666   H667    1.115   .     S
C666   O809    1.409   .     S
C669   H672    1.106   .     S
C669   H671    1.110   .     S
C669   H814    1.111   .     S
H670   C813    1.111   1_455 S
O673   C674    1.427   .     S
C674   C677    1.528   .     S
C674   H676    1.118   .     S
C674   H675    1.107   .     S
C677   H679    1.110   .     S
C677   H680    1.109   .     S
H678   C1253   1.109   .     S
O681   C682    1.427   .     S
C682   H683    1.107   .     S
C682   H684    1.118   .     S
C682   C685    1.528   .     S
C685   H687    1.110   .     S
C685   H688    1.109   .     S
C685   H1262   1.109   .     S
O689   C690    1.409   .     S
C690   H691    1.115   .     S
C690   H692    1.103   .     S
C690   C693    1.522   .     S
C693   H696    1.106   .     S
C693   H695    1.110   .     S
C693   H694    1.111   .     S
O697   C698    1.409   .     S
C698   H700    1.103   .     S
C698   H699    1.115   .     S
C698   C701    1.522   .     S
C701   H704    1.106   .     S
C701   H702    1.111   .     S
C701   H703    1.110   .     S
C721   O769    1.291   .     A
C721   O772    1.304   .     A
C721   C756    1.449   .     S
C722   C755    1.460   .     S
C722   O770    1.301   .     A
C722   O771    1.299   .     A
C723   C754    1.460   .     S
C723   O776    1.301   .     A
C723   O773    1.299   .     A
C724   O775    1.291   .     A
C724   C753    1.449   .     S
C724   O774    1.304   .     A
C725   O780    1.304   .     A
C725   O777    1.291   .     A
C725   C760    1.449   .     S
C726   O778    1.301   .     A
C726   C759    1.460   .     S
C726   O779    1.299   .     A
C727   O781    1.299   .     A
C727   O784    1.301   .     A
C727   C758    1.460   .     S
C728   C757    1.449   .     S
C728   O783    1.291   .     A
C728   O782    1.304   .     A
C729   O785    1.382   .     S
C729   N766    1.382   .     S
C730   O793    1.382   .     S
C730   C1307   1.440   .     S
C730   N765    1.382   .     S
C731   O801    1.386   .     S
C731   N766    1.364   .     S
C732   O809    1.386   .     S
C732   C1305   1.440   .     S
C732   N765    1.364   .     S
C733   O817    1.382   .     S
C733   N1056   1.382   .     S
C734   O825    1.382   .     S
C734   N767    1.382   .     A
C734   C1311   1.440   .     S
C735   O833    1.386   .     S
C735   N768    1.364   .     A
C736   O841    1.386   .     S
C736   C1309   1.440   .     S
C736   N1055   1.364   .     S
C737   I849    2.116   .     S
C737   C747    1.390   .     A
C737   C754    1.408   .     A
C738   C753    1.407   .     A
C738   C748    1.400   .     A
C738   I850    2.123   .     S
C739   C745    1.390   .     A
C739   I851    2.151   .     S
C739   C753    1.403   .     A
C740   C754    1.410   .     A
C740   I852    2.148   .     S
C740   C746    1.400   .     A
C741   C756    1.403   .     A
C741   C751    1.390   .     A
C741   I853    2.151   .     S
C742   C755    1.410   .     A
C742   C752    1.400   .     A
C742   I854    2.148   .     S
C743   C749    1.390   .     A
C743   C755    1.408   .     A
C743   I855    2.116   .     S
C744   C756    1.407   .     A
C744   I856    2.123   .     S
C744   C750    1.400   .     A
C745   C758    1.408   .     A
C745   I857    2.116   .     S
C746   I858    2.123   .     S
C746   C757    1.407   .     A
C747   I859    2.151   .     S
C747   C757    1.403   .     A
C748   I860    2.148   .     S
C748   C758    1.410   .     A
C749   I861    2.151   .     S
C749   C760    1.403   .     A
C750   I862    2.148   .     S
C750   C759    1.410   .     A
C751   I863    2.116   .     S
C751   C759    1.408   .     A
C752   C760    1.407   .     A
C752   I864    2.123   .     S
Cu761  Cu762   2.702   .     S
Cu761  N765    2.030   .     S
Cu761  O769    1.952   .     S
Cu761  O774    1.974   .     S
Cu762  N766    2.030   .     S
Cu762  O772    1.974   .     S
Cu762  O775    1.952   .     S
Cu763  Cu764   2.702   .     S
Cu763  O779    1.974   .     S
Cu763  O782    1.974   .     S
Cu763  N767    2.030   .     S
Cu763  O1065   1.952   1_545 S
Cu763  O1072   1.952   1_545 S
Cu764  O778    1.952   .     S
Cu764  O783    1.952   .     S
Cu764  N768    2.030   .     S
Cu764  O1068   1.974   1_545 S
Cu764  O1069   1.974   1_545 S
N767   C1024   1.364   1_545 S
N768   C1021   1.382   1_545 S
O770   Cu618   1.952   1_655 S
O771   Cu617   1.974   1_655 S
O773   Cu618   1.974   1_655 S
O776   Cu617   1.952   1_655 S
O777   Cu1051  1.952   .     S
O780   Cu1052  1.974   .     S
O781   Cu1052  1.974   .     S
O784   Cu1051  1.952   .     S
O785   C786    1.427   .     S
C786   H788    1.118   .     S
C786   C789    1.528   .     S
C786   H787    1.107   .     S
C789   H791    1.110   .     S
C789   H792    1.109   .     S
H790   C1365   1.109   .     S
O793   C794    1.427   .     S
C794   C797    1.528   .     S
C794   H795    1.107   .     S
C794   H796    1.118   .     S
C797   H800    1.109   .     S
C797   H799    1.110   .     S
C797   H1374   1.109   .     S
C802   H803    1.115   .     S
C802   H804    1.103   .     S
C802   C805    1.522   .     S
C802   O657    1.409   1_655 S
C805   H807    1.110   .     S
C805   H808    1.106   .     S
C805   H662    1.111   1_655 S
C810   H812    1.103   .     S
C810   C813    1.522   .     S
C810   H811    1.115   .     S
C810   O665    1.409   1_655 S
C813   H816    1.106   .     S
C813   H815    1.110   .     S
C813   H670    1.111   1_655 S
O817   C818    1.427   .     S
C818   C821    1.528   .     S
C818   H820    1.118   .     S
C818   H819    1.107   .     S
C821   H823    1.110   .     S
C821   H824    1.109   .     S
H822   C1397   1.109   .     S
O825   C826    1.427   .     S
C826   H827    1.107   .     S
C826   H828    1.118   .     S
C826   C829    1.528   .     S
C829   H831    1.110   .     S
C829   H832    1.109   .     S
C829   H1406   1.109   .     S
O833   C834    1.409   .     S
C834   H835    1.115   .     S
C834   H836    1.103   .     S
C834   C837    1.522   .     S
C837   H840    1.106   .     S
C837   H839    1.110   .     S
C837   H838    1.111   .     S
O841   C842    1.409   .     S
C842   H844    1.103   .     S
C842   H843    1.115   .     S
C842   C845    1.522   .     S
C845   H848    1.106   .     S
C845   H846    1.111   .     S
C845   H847    1.110   .     S
C865   O913    1.291   .     A
C865   O916    1.304   .     A
C865   C900    1.449   .     S
C866   C899    1.460   .     S
C866   O914    1.301   .     A
C866   O915    1.299   .     A
C867   C898    1.460   .     S
C867   O920    1.301   .     A
C867   O917    1.299   .     A
C868   O919    1.291   .     A
C868   C897    1.449   .     S
C868   O918    1.304   .     A
C869   O924    1.304   .     A
C869   O921    1.291   .     A
C869   C904    1.449   .     S
C870   O922    1.301   .     A
C870   C903    1.460   .     S
C870   O923    1.299   .     A
C871   O925    1.299   .     A
C871   O928    1.301   .     A
C871   C902    1.460   .     S
C872   C901    1.449   .     S
C872   O927    1.291   .     A
C872   O926    1.304   .     A
C873   O929    1.382   .     S
C873   N910    1.382   .     S
C874   O937    1.382   .     S
C874   C1451   1.440   .     S
C874   N909    1.382   .     S
C875   O945    1.386   .     S
C875   N910    1.364   .     S
C876   O953    1.386   .     S
C876   C1449   1.440   .     S
C876   N909    1.364   .     S
C877   O961    1.382   .     S
C877   N624    1.382   1_565 S
C878   O969    1.382   .     S
C878   N911    1.382   .     A
C878   C1455   1.440   .     S
C879   O977    1.386   .     S
C879   N912    1.364   .     A
C880   O985    1.386   .     S
C880   C1453   1.440   .     S
C880   N623    1.364   1_565 S
C881   I993    2.116   .     S
C881   C891    1.390   .     A
C881   C898    1.408   .     A
C882   C897    1.407   .     A
C882   C892    1.400   .     A
C882   I994    2.123   .     S
C883   C889    1.390   .     A
C883   I995    2.151   .     S
C883   C897    1.403   .     A
C884   C898    1.410   .     A
C884   I996    2.148   .     S
C884   C890    1.400   .     A
C885   C900    1.403   .     A
C885   C895    1.390   .     A
C885   I997    2.151   .     S
C886   C899    1.410   .     A
C886   C896    1.400   .     A
C886   I998    2.148   .     S
C887   C893    1.390   .     A
C887   C899    1.408   .     A
C887   I999    2.116   .     S
C888   C900    1.407   .     A
C888   I1000   2.123   .     S
C888   C894    1.400   .     A
C889   C902    1.408   .     A
C889   I1001   2.116   .     S
C890   I1002   2.123   .     S
C890   C901    1.407   .     A
C891   I1003   2.151   .     S
C891   C901    1.403   .     A
C892   I1004   2.148   .     S
C892   C902    1.410   .     A
C893   I1005   2.151   .     S
C893   C904    1.403   .     A
C894   I1006   2.148   .     S
C894   C903    1.410   .     A
C895   I1007   2.116   .     S
C895   C903    1.408   .     A
C896   C904    1.407   .     A
C896   I1008   2.123   .     S
Cu905  Cu906   2.702   .     S
Cu905  O1064   1.952   1_455 S
Cu905  N909    2.030   .     S
Cu905  O1059   1.974   1_455 S
Cu905  O913    1.952   .     S
Cu905  O918    1.974   .     S
Cu906  O1061   1.974   1_455 S
Cu906  N910    2.030   .     S
Cu906  O1058   1.952   1_455 S
Cu906  O916    1.974   .     S
Cu906  O919    1.952   .     S
Cu907  Cu908   2.702   .     S
Cu907  O923    1.974   .     S
Cu907  O926    1.974   .     S
Cu907  N911    2.030   .     S
Cu908  O922    1.952   .     S
Cu908  O927    1.952   .     S
Cu908  N912    2.030   .     S
O914   Cu1050  1.952   .     S
O915   Cu1049  1.974   .     S
O917   Cu1050  1.974   .     S
O920   Cu1049  1.952   .     S
O921   Cu619   1.952   1_565 S
O924   Cu620   1.974   1_565 S
O925   Cu620   1.974   1_565 S
O928   Cu619   1.952   1_565 S
O929   C930    1.427   .     S
C930   H932    1.118   .     S
C930   C933    1.528   .     S
C930   H931    1.107   .     S
C933   H935    1.110   .     S
C933   H936    1.109   .     S
H934   C1509   1.109   .     S
O937   C938    1.427   .     S
C938   C941    1.528   .     S
C938   H939    1.107   .     S
C938   H940    1.118   .     S
C941   H944    1.109   .     S
C941   H943    1.110   .     S
C941   H1518   1.109   .     S
O945   C1090   1.409   1_455 S
C946   H947    1.115   .     S
C946   H948    1.103   .     S
C946   C949    1.522   .     S
C946   O1089   1.409   .     S
C949   H951    1.110   .     S
C949   H952    1.106   .     S
C949   H1094   1.111   .     S
H950   C1093   1.111   1_455 S
O953   C1098   1.409   1_455 S
C954   H956    1.103   .     S
C954   C957    1.522   .     S
C954   H955    1.115   .     S
C954   O1097   1.409   .     S
C957   H960    1.106   .     S
C957   H959    1.110   .     S
C957   H1102   1.111   .     S
H958   C1101   1.111   1_455 S
O961   C962    1.427   .     S
C962   C965    1.528   .     S
C962   H964    1.118   .     S
C962   H963    1.107   .     S
C965   H967    1.110   .     S
C965   H968    1.109   .     S
H966   C1541   1.109   .     S
O969   C970    1.427   .     S
C970   H971    1.107   .     S
C970   H972    1.118   .     S
C970   C973    1.528   .     S
C973   H975    1.110   .     S
C973   H976    1.109   .     S
C973   H1550   1.109   .     S
O977   C978    1.409   .     S
C978   H979    1.115   .     S
C978   H980    1.103   .     S
C978   C981    1.522   .     S
C981   H984    1.106   .     S
C981   H983    1.110   .     S
C981   H982    1.111   .     S
O985   C986    1.409   .     S
C986   H988    1.103   .     S
C986   H987    1.115   .     S
C986   C989    1.522   .     S
C989   H992    1.106   .     S
C989   H990    1.111   .     S
C989   H991    1.110   .     S
C1009  O1057   1.291   .     A
C1009  O1060   1.304   .     A
C1009  C1044   1.449   .     S
C1010  C1043   1.460   .     S
C1010  O1058   1.301   .     A
C1010  O1059   1.299   .     A
C1011  C1042   1.460   .     S
C1011  O1064   1.301   .     A
C1011  O1061   1.299   .     A
C1012  O1063   1.291   .     A
C1012  C1041   1.449   .     S
C1012  O1062   1.304   .     A
C1013  O1068   1.304   .     A
C1013  O1065   1.291   .     A
C1013  C1048   1.449   .     S
C1014  O1066   1.301   .     A
C1014  C1047   1.460   .     S
C1014  O1067   1.299   .     A
C1015  O1069   1.299   .     A
C1015  O1072   1.301   .     A
C1015  C1046   1.460   .     S
C1016  C1045   1.449   .     S
C1016  O1071   1.291   .     A
C1016  O1070   1.304   .     A
C1017  O1073   1.382   .     S
C1017  N1054   1.382   .     S
C1018  O1081   1.382   .     S
C1018  C1595   1.440   .     S
C1018  N1053   1.382   .     S
C1019  O1089   1.386   .     S
C1019  N1054   1.364   .     S
C1020  O1097   1.386   .     S
C1020  C1593   1.440   .     S
C1020  N1053   1.364   .     S
C1021  O1105   1.382   .     S
C1021  N768    1.382   1_565 S
C1022  O1113   1.382   .     S
C1022  N1055   1.382   .     A
C1022  C1599   1.440   .     S
C1023  O1121   1.386   .     S
C1023  N1056   1.364   .     A
C1024  O1129   1.386   .     S
C1024  C1597   1.440   .     S
C1024  N767    1.364   1_565 S
C1025  I1137   2.116   .     S
C1025  C1035   1.390   .     A
C1025  C1042   1.408   .     A
C1026  C1041   1.407   .     A
C1026  C1036   1.400   .     A
C1026  I1138   2.123   .     S
C1027  C1033   1.390   .     A
C1027  I1139   2.151   .     S
C1027  C1041   1.403   .     A
C1028  C1042   1.410   .     A
C1028  I1140   2.148   .     S
C1028  C1034   1.400   .     A
C1029  C1044   1.403   .     A
C1029  C1039   1.390   .     A
C1029  I1141   2.151   .     S
C1030  C1043   1.410   .     A
C1030  C1040   1.400   .     A
C1030  I1142   2.148   .     S
C1031  C1037   1.390   .     A
C1031  C1043   1.408   .     A
C1031  I1143   2.116   .     S
C1032  C1044   1.407   .     A
C1032  I1144   2.123   .     S
C1032  C1038   1.400   .     A
C1033  C1046   1.408   .     A
C1033  I1145   2.116   .     S
C1034  I1146   2.123   .     S
C1034  C1045   1.407   .     A
C1035  I1147   2.151   .     S
C1035  C1045   1.403   .     A
C1036  I1148   2.148   .     S
C1036  C1046   1.410   .     A
C1037  I1149   2.151   .     S
C1037  C1048   1.403   .     A
C1038  I1150   2.148   .     S
C1038  C1047   1.410   .     A
C1039  I1151   2.116   .     S
C1039  C1047   1.408   .     A
C1040  C1048   1.407   .     A
C1040  I1152   2.123   .     S
Cu1049 Cu1050  2.702   .     S
Cu1049 N1053   2.030   .     S
Cu1049 O1057   1.952   .     S
Cu1049 O1062   1.974   .     S
Cu1050 N1054   2.030   .     S
Cu1050 O1060   1.974   .     S
Cu1050 O1063   1.952   .     S
Cu1051 Cu1052  2.702   .     S
Cu1051 O1067   1.974   .     S
Cu1051 O1070   1.974   .     S
Cu1051 N1055   2.030   .     S
Cu1052 O1066   1.952   .     S
Cu1052 O1071   1.952   .     S
Cu1052 N1056   2.030   .     S
O1058  Cu906   1.952   1_655 S
O1059  Cu905   1.974   1_655 S
O1061  Cu906   1.974   1_655 S
O1064  Cu905   1.952   1_655 S
O1065  Cu763   1.952   1_565 S
O1068  Cu764   1.974   1_565 S
O1069  Cu764   1.974   1_565 S
O1072  Cu763   1.952   1_565 S
O1073  C1074   1.427   .     S
C1074  H1076   1.118   .     S
C1074  C1077   1.528   .     S
C1074  H1075   1.107   .     S
C1077  H1079   1.110   .     S
C1077  H1080   1.109   .     S
H1078  C1653   1.109   .     S
O1081  C1082   1.427   .     S
C1082  C1085   1.528   .     S
C1082  H1083   1.107   .     S
C1082  H1084   1.118   .     S
C1085  H1088   1.109   .     S
C1085  H1087   1.110   .     S
C1085  H1662   1.109   .     S
C1090  H1091   1.115   .     S
C1090  H1092   1.103   .     S
C1090  C1093   1.522   .     S
C1090  O945    1.409   1_655 S
C1093  H1095   1.110   .     S
C1093  H1096   1.106   .     S
C1093  H950    1.111   1_655 S
C1098  H1100   1.103   .     S
C1098  C1101   1.522   .     S
C1098  H1099   1.115   .     S
C1098  O953    1.409   1_655 S
C1101  H1104   1.106   .     S
C1101  H1103   1.110   .     S
C1101  H958    1.111   1_655 S
O1105  C1106   1.427   .     S
C1106  C1109   1.528   .     S
C1106  H1108   1.118   .     S
C1106  H1107   1.107   .     S
C1109  H1111   1.110   .     S
C1109  H1112   1.109   .     S
H1110  C1685   1.109   .     S
O1113  C1114   1.427   .     S
C1114  H1115   1.107   .     S
C1114  H1116   1.118   .     S
C1114  C1117   1.528   .     S
C1117  H1119   1.110   .     S
C1117  H1120   1.109   .     S
C1117  H1694   1.109   .     S
O1121  C1122   1.409   .     S
C1122  H1123   1.115   .     S
C1122  H1124   1.103   .     S
C1122  C1125   1.522   .     S
C1125  H1128   1.106   .     S
C1125  H1127   1.110   .     S
C1125  H1126   1.111   .     S
O1129  C1130   1.409   .     S
C1130  H1132   1.103   .     S
C1130  H1131   1.115   .     S
C1130  C1133   1.522   .     S
C1133  H1136   1.106   .     S
C1133  H1134   1.111   .     S
C1133  H1135   1.110   .     S
C1153  O1201   1.291   .     A
C1153  O1204   1.304   .     A
C1153  C1188   1.449   .     S
C1154  C1187   1.460   .     S
C1154  O1202   1.301   .     A
C1154  O1203   1.299   .     A
C1155  C1186   1.460   .     S
C1155  O1208   1.301   .     A
C1155  O1205   1.299   .     A
C1156  O1207   1.291   .     A
C1156  C1185   1.449   .     S
C1156  O1206   1.304   .     A
C1157  O1212   1.304   .     A
C1157  O1209   1.291   .     A
C1157  C1192   1.449   .     S
C1158  O1210   1.301   .     A
C1158  C1191   1.460   .     S
C1158  O1211   1.299   .     A
C1159  O1213   1.299   .     A
C1159  O1216   1.301   .     A
C1159  C1190   1.460   .     S
C1160  C1189   1.449   .     S
C1160  O1215   1.291   .     A
C1160  O1214   1.304   .     A
C1161  O1217   1.382   .     S
C1161  N1198   1.382   .     S
C1162  O1225   1.382   .     S
C1162  C11     1.440   1_556 S
C1162  N1197   1.382   .     S
C1163  O1233   1.386   .     S
C1163  N1198   1.364   .     S
C1164  O1241   1.386   .     S
C1164  C9      1.440   1_556 S
C1164  N1197   1.364   .     S
C1165  O1249   1.382   .     S
C1165  N1488   1.382   .     S
C1166  O1257   1.382   .     S
C1166  N1199   1.382   .     A
C1166  C15     1.440   1_556 S
C1167  O1265   1.386   .     S
C1167  N1200   1.364   .     A
C1168  O1273   1.386   .     S
C1168  C13     1.440   1_556 S
C1168  N1487   1.364   .     S
C1169  I1281   2.116   .     S
C1169  C1179   1.390   .     A
C1169  C1186   1.408   .     A
C1170  C1185   1.407   .     A
C1170  C1180   1.400   .     A
C1170  I1282   2.123   .     S
C1171  C1177   1.390   .     A
C1171  I1283   2.151   .     S
C1171  C1185   1.403   .     A
C1172  C1186   1.410   .     A
C1172  I1284   2.148   .     S
C1172  C1178   1.400   .     A
C1173  C1188   1.403   .     A
C1173  C1183   1.390   .     A
C1173  I1285   2.151   .     S
C1174  C1187   1.410   .     A
C1174  C1184   1.400   .     A
C1174  I1286   2.148   .     S
C1175  C1181   1.390   .     A
C1175  C1187   1.408   .     A
C1175  I1287   2.116   .     S
C1176  C1188   1.407   .     A
C1176  I1288   2.123   .     S
C1176  C1182   1.400   .     A
C1177  C1190   1.408   .     A
C1177  I1289   2.116   .     S
C1178  I1290   2.123   .     S
C1178  C1189   1.407   .     A
C1179  I1291   2.151   .     S
C1179  C1189   1.403   .     A
C1180  I1292   2.148   .     S
C1180  C1190   1.410   .     A
C1181  I1293   2.151   .     S
C1181  C1192   1.403   .     A
C1182  I1294   2.148   .     S
C1182  C1191   1.410   .     A
C1183  I1295   2.116   .     S
C1183  C1191   1.408   .     A
C1184  C1192   1.407   .     A
C1184  I1296   2.123   .     S
Cu1193 Cu1194  2.702   .     S
Cu1193 O1352   1.952   1_455 S
Cu1193 N1197   2.030   .     S
Cu1193 O1347   1.974   1_455 S
Cu1193 O1201   1.952   .     S
Cu1193 O1206   1.974   .     S
Cu1194 O1349   1.974   1_455 S
Cu1194 N1198   2.030   .     S
Cu1194 O1346   1.952   1_455 S
Cu1194 O1204   1.974   .     S
Cu1194 O1207   1.952   .     S
Cu1195 Cu1196  2.702   .     S
Cu1195 O1211   1.974   .     S
Cu1195 O1214   1.974   .     S
Cu1195 N1199   2.030   .     S
Cu1195 O1497   1.952   1_545 S
Cu1195 O1504   1.952   1_545 S
Cu1196 O1210   1.952   .     S
Cu1196 O1215   1.952   .     S
Cu1196 N1200   2.030   .     S
Cu1196 O1500   1.974   1_545 S
Cu1196 O1501   1.974   1_545 S
N1199  C1456   1.364   1_545 S
N1200  C1453   1.382   1_545 S
O1202  Cu1338  1.952   .     S
O1203  Cu1337  1.974   .     S
O1205  Cu1338  1.974   .     S
O1208  Cu1337  1.952   .     S
O1209  Cu1483  1.952   .     S
O1212  Cu1484  1.974   .     S
O1213  Cu1484  1.974   .     S
O1216  Cu1483  1.952   .     S
O1217  C1218   1.427   .     S
C1218  H1220   1.118   .     S
C1218  C1221   1.528   .     S
C1218  H1219   1.107   .     S
C1221  H1223   1.110   .     S
C1221  H1224   1.109   .     S
H1222  C69     1.109   1_556 S
O1225  C1226   1.427   .     S
C1226  C1229   1.528   .     S
C1226  H1227   1.107   .     S
C1226  H1228   1.118   .     S
C1229  H1232   1.109   .     S
C1229  H1231   1.110   .     S
C1229  H78     1.109   1_556 S
O1233  C1378   1.409   1_455 S
C1234  H1235   1.115   .     S
C1234  H1236   1.103   .     S
C1234  C1237   1.522   .     S
C1234  O1377   1.409   .     S
C1237  H1239   1.110   .     S
C1237  H1240   1.106   .     S
C1237  H1382   1.111   .     S
H1238  C1381   1.111   1_455 S
O1241  C1386   1.409   1_455 S
C1242  H1244   1.103   .     S
C1242  C1245   1.522   .     S
C1242  H1243   1.115   .     S
C1242  O1385   1.409   .     S
C1245  H1248   1.106   .     S
C1245  H1247   1.110   .     S
C1245  H1390   1.111   .     S
H1246  C1389   1.111   1_455 S
O1249  C1250   1.427   .     S
C1250  C1253   1.528   .     S
C1250  H1252   1.118   .     S
C1250  H1251   1.107   .     S
C1253  H1255   1.110   .     S
C1253  H1256   1.109   .     S
H1254  C101    1.109   1_556 S
O1257  C1258   1.427   .     S
C1258  H1259   1.107   .     S
C1258  H1260   1.118   .     S
C1258  C1261   1.528   .     S
C1261  H1263   1.110   .     S
C1261  H1264   1.109   .     S
C1261  H110    1.109   1_556 S
O1265  C1266   1.409   .     S
C1266  H1267   1.115   .     S
C1266  H1268   1.103   .     S
C1266  C1269   1.522   .     S
C1269  H1272   1.106   .     S
C1269  H1271   1.110   .     S
C1269  H1270   1.111   .     S
O1273  C1274   1.409   .     S
C1274  H1276   1.103   .     S
C1274  H1275   1.115   .     S
C1274  C1277   1.522   .     S
C1277  H1280   1.106   .     S
C1277  H1278   1.111   .     S
C1277  H1279   1.110   .     S
C1297  O1345   1.291   .     A
C1297  O1348   1.304   .     A
C1297  C1332   1.449   .     S
C1298  C1331   1.460   .     S
C1298  O1346   1.301   .     A
C1298  O1347   1.299   .     A
C1299  C1330   1.460   .     S
C1299  O1352   1.301   .     A
C1299  O1349   1.299   .     A
C1300  O1351   1.291   .     A
C1300  C1329   1.449   .     S
C1300  O1350   1.304   .     A
C1301  O1356   1.304   .     A
C1301  O1353   1.291   .     A
C1301  C1336   1.449   .     S
C1302  O1354   1.301   .     A
C1302  C1335   1.460   .     S
C1302  O1355   1.299   .     A
C1303  O1357   1.299   .     A
C1303  O1360   1.301   .     A
C1303  C1334   1.460   .     S
C1304  C1333   1.449   .     S
C1304  O1359   1.291   .     A
C1304  O1358   1.304   .     A
C1305  O1361   1.382   .     S
C1305  N1342   1.382   .     S
C1306  O1369   1.382   .     S
C1306  C155    1.440   1_556 S
C1306  N1341   1.382   .     S
C1307  O1377   1.386   .     S
C1307  N1342   1.364   .     S
C1308  O1385   1.386   .     S
C1308  C153    1.440   1_556 S
C1308  N1341   1.364   .     S
C1309  O1393   1.382   .     S
C1309  N1632   1.382   .     S
C1310  O1401   1.382   .     S
C1310  N1343   1.382   .     A
C1310  C159    1.440   1_556 S
C1311  O1409   1.386   .     S
C1311  N1344   1.364   .     A
C1312  O1417   1.386   .     S
C1312  C157    1.440   1_556 S
C1312  N1631   1.364   .     S
C1313  I1425   2.116   .     S
C1313  C1323   1.390   .     A
C1313  C1330   1.408   .     A
C1314  C1329   1.407   .     A
C1314  C1324   1.400   .     A
C1314  I1426   2.123   .     S
C1315  C1321   1.390   .     A
C1315  I1427   2.151   .     S
C1315  C1329   1.403   .     A
C1316  C1330   1.410   .     A
C1316  I1428   2.148   .     S
C1316  C1322   1.400   .     A
C1317  C1332   1.403   .     A
C1317  C1327   1.390   .     A
C1317  I1429   2.151   .     S
C1318  C1331   1.410   .     A
C1318  C1328   1.400   .     A
C1318  I1430   2.148   .     S
C1319  C1325   1.390   .     A
C1319  C1331   1.408   .     A
C1319  I1431   2.116   .     S
C1320  C1332   1.407   .     A
C1320  I1432   2.123   .     S
C1320  C1326   1.400   .     A
C1321  C1334   1.408   .     A
C1321  I1433   2.116   .     S
C1322  I1434   2.123   .     S
C1322  C1333   1.407   .     A
C1323  I1435   2.151   .     S
C1323  C1333   1.403   .     A
C1324  I1436   2.148   .     S
C1324  C1334   1.410   .     A
C1325  I1437   2.151   .     S
C1325  C1336   1.403   .     A
C1326  I1438   2.148   .     S
C1326  C1335   1.410   .     A
C1327  I1439   2.116   .     S
C1327  C1335   1.408   .     A
C1328  C1336   1.407   .     A
C1328  I1440   2.123   .     S
Cu1337 Cu1338  2.702   .     S
Cu1337 N1341   2.030   .     S
Cu1337 O1345   1.952   .     S
Cu1337 O1350   1.974   .     S
Cu1338 N1342   2.030   .     S
Cu1338 O1348   1.974   .     S
Cu1338 O1351   1.952   .     S
Cu1339 Cu1340  2.702   .     S
Cu1339 O1355   1.974   .     S
Cu1339 O1358   1.974   .     S
Cu1339 N1343   2.030   .     S
Cu1339 O1641   1.952   1_545 S
Cu1339 O1648   1.952   1_545 S
Cu1340 O1354   1.952   .     S
Cu1340 O1359   1.952   .     S
Cu1340 N1344   2.030   .     S
Cu1340 O1644   1.974   1_545 S
Cu1340 O1645   1.974   1_545 S
N1343  C1600   1.364   1_545 S
N1344  C1597   1.382   1_545 S
O1346  Cu1194  1.952   1_655 S
O1347  Cu1193  1.974   1_655 S
O1349  Cu1194  1.974   1_655 S
O1352  Cu1193  1.952   1_655 S
O1353  Cu1627  1.952   .     S
O1356  Cu1628  1.974   .     S
O1357  Cu1628  1.974   .     S
O1360  Cu1627  1.952   .     S
O1361  C1362   1.427   .     S
C1362  H1364   1.118   .     S
C1362  C1365   1.528   .     S
C1362  H1363   1.107   .     S
C1365  H1367   1.110   .     S
C1365  H1368   1.109   .     S
H1366  C213    1.109   1_556 S
O1369  C1370   1.427   .     S
C1370  C1373   1.528   .     S
C1370  H1371   1.107   .     S
C1370  H1372   1.118   .     S
C1373  H1376   1.109   .     S
C1373  H1375   1.110   .     S
C1373  H222    1.109   1_556 S
C1378  H1379   1.115   .     S
C1378  H1380   1.103   .     S
C1378  C1381   1.522   .     S
C1378  O1233   1.409   1_655 S
C1381  H1383   1.110   .     S
C1381  H1384   1.106   .     S
C1381  H1238   1.111   1_655 S
C1386  H1388   1.103   .     S
C1386  C1389   1.522   .     S
C1386  H1387   1.115   .     S
C1386  O1241   1.409   1_655 S
C1389  H1392   1.106   .     S
C1389  H1391   1.110   .     S
C1389  H1246   1.111   1_655 S
O1393  C1394   1.427   .     S
C1394  C1397   1.528   .     S
C1394  H1396   1.118   .     S
C1394  H1395   1.107   .     S
C1397  H1399   1.110   .     S
C1397  H1400   1.109   .     S
H1398  C245    1.109   1_556 S
O1401  C1402   1.427   .     S
C1402  H1403   1.107   .     S
C1402  H1404   1.118   .     S
C1402  C1405   1.528   .     S
C1405  H1407   1.110   .     S
C1405  H1408   1.109   .     S
C1405  H254    1.109   1_556 S
O1409  C1410   1.409   .     S
C1410  H1411   1.115   .     S
C1410  H1412   1.103   .     S
C1410  C1413   1.522   .     S
C1413  H1416   1.106   .     S
C1413  H1415   1.110   .     S
C1413  H1414   1.111   .     S
O1417  C1418   1.409   .     S
C1418  H1420   1.103   .     S
C1418  H1419   1.115   .     S
C1418  C1421   1.522   .     S
C1421  H1424   1.106   .     S
C1421  H1422   1.111   .     S
C1421  H1423   1.110   .     S
C1441  O1489   1.291   .     A
C1441  O1492   1.304   .     A
C1441  C1476   1.449   .     S
C1442  C1475   1.460   .     S
C1442  O1490   1.301   .     A
C1442  O1491   1.299   .     A
C1443  C1474   1.460   .     S
C1443  O1496   1.301   .     A
C1443  O1493   1.299   .     A
C1444  O1495   1.291   .     A
C1444  C1473   1.449   .     S
C1444  O1494   1.304   .     A
C1445  O1500   1.304   .     A
C1445  O1497   1.291   .     A
C1445  C1480   1.449   .     S
C1446  O1498   1.301   .     A
C1446  C1479   1.460   .     S
C1446  O1499   1.299   .     A
C1447  O1501   1.299   .     A
C1447  O1504   1.301   .     A
C1447  C1478   1.460   .     S
C1448  C1477   1.449   .     S
C1448  O1503   1.291   .     A
C1448  O1502   1.304   .     A
C1449  O1505   1.382   .     S
C1449  N1486   1.382   .     S
C1450  O1513   1.382   .     S
C1450  C299    1.440   1_556 S
C1450  N1485   1.382   .     S
C1451  O1521   1.386   .     S
C1451  N1486   1.364   .     S
C1452  O1529   1.386   .     S
C1452  C297    1.440   1_556 S
C1452  N1485   1.364   .     S
C1453  O1537   1.382   .     S
C1453  N1200   1.382   1_565 S
C1454  O1545   1.382   .     S
C1454  N1487   1.382   .     A
C1454  C303    1.440   1_556 S
C1455  O1553   1.386   .     S
C1455  N1488   1.364   .     A
C1456  O1561   1.386   .     S
C1456  C301    1.440   1_556 S
C1456  N1199   1.364   1_565 S
C1457  I1569   2.116   .     S
C1457  C1467   1.390   .     A
C1457  C1474   1.408   .     A
C1458  C1473   1.407   .     A
C1458  C1468   1.400   .     A
C1458  I1570   2.123   .     S
C1459  C1465   1.390   .     A
C1459  I1571   2.151   .     S
C1459  C1473   1.403   .     A
C1460  C1474   1.410   .     A
C1460  I1572   2.148   .     S
C1460  C1466   1.400   .     A
C1461  C1476   1.403   .     A
C1461  C1471   1.390   .     A
C1461  I1573   2.151   .     S
C1462  C1475   1.410   .     A
C1462  C1472   1.400   .     A
C1462  I1574   2.148   .     S
C1463  C1469   1.390   .     A
C1463  C1475   1.408   .     A
C1463  I1575   2.116   .     S
C1464  C1476   1.407   .     A
C1464  I1576   2.123   .     S
C1464  C1470   1.400   .     A
C1465  C1478   1.408   .     A
C1465  I1577   2.116   .     S
C1466  I1578   2.123   .     S
C1466  C1477   1.407   .     A
C1467  I1579   2.151   .     S
C1467  C1477   1.403   .     A
C1468  I1580   2.148   .     S
C1468  C1478   1.410   .     A
C1469  I1581   2.151   .     S
C1469  C1480   1.403   .     A
C1470  I1582   2.148   .     S
C1470  C1479   1.410   .     A
C1471  I1583   2.116   .     S
C1471  C1479   1.408   .     A
C1472  C1480   1.407   .     A
C1472  I1584   2.123   .     S
Cu1481 Cu1482  2.702   .     S
Cu1481 O1640   1.952   1_455 S
Cu1481 N1485   2.030   .     S
Cu1481 O1635   1.974   1_455 S
Cu1481 O1489   1.952   .     S
Cu1481 O1494   1.974   .     S
Cu1482 O1637   1.974   1_455 S
Cu1482 N1486   2.030   .     S
Cu1482 O1634   1.952   1_455 S
Cu1482 O1492   1.974   .     S
Cu1482 O1495   1.952   .     S
Cu1483 Cu1484  2.702   .     S
Cu1483 O1499   1.974   .     S
Cu1483 O1502   1.974   .     S
Cu1483 N1487   2.030   .     S
Cu1484 O1498   1.952   .     S
Cu1484 O1503   1.952   .     S
Cu1484 N1488   2.030   .     S
O1490  Cu1626  1.952   .     S
O1491  Cu1625  1.974   .     S
O1493  Cu1626  1.974   .     S
O1496  Cu1625  1.952   .     S
O1497  Cu1195  1.952   1_565 S
O1500  Cu1196  1.974   1_565 S
O1501  Cu1196  1.974   1_565 S
O1504  Cu1195  1.952   1_565 S
O1505  C1506   1.427   .     S
C1506  H1508   1.118   .     S
C1506  C1509   1.528   .     S
C1506  H1507   1.107   .     S
C1509  H1511   1.110   .     S
C1509  H1512   1.109   .     S
H1510  C357    1.109   1_556 S
O1513  C1514   1.427   .     S
C1514  C1517   1.528   .     S
C1514  H1515   1.107   .     S
C1514  H1516   1.118   .     S
C1517  H1520   1.109   .     S
C1517  H1519   1.110   .     S
C1517  H366    1.109   1_556 S
O1521  C1666   1.409   1_455 S
C1522  H1523   1.115   .     S
C1522  H1524   1.103   .     S
C1522  C1525   1.522   .     S
C1522  O1665   1.409   .     S
C1525  H1527   1.110   .     S
C1525  H1528   1.106   .     S
C1525  H1670   1.111   .     S
H1526  C1669   1.111   1_455 S
O1529  C1674   1.409   1_455 S
C1530  H1532   1.103   .     S
C1530  C1533   1.522   .     S
C1530  H1531   1.115   .     S
C1530  O1673   1.409   .     S
C1533  H1536   1.106   .     S
C1533  H1535   1.110   .     S
C1533  H1678   1.111   .     S
H1534  C1677   1.111   1_455 S
O1537  C1538   1.427   .     S
C1538  C1541   1.528   .     S
C1538  H1540   1.118   .     S
C1538  H1539   1.107   .     S
C1541  H1543   1.110   .     S
C1541  H1544   1.109   .     S
H1542  C389    1.109   1_556 S
O1545  C1546   1.427   .     S
C1546  H1547   1.107   .     S
C1546  H1548   1.118   .     S
C1546  C1549   1.528   .     S
C1549  H1551   1.110   .     S
C1549  H1552   1.109   .     S
C1549  H398    1.109   1_556 S
O1553  C1554   1.409   .     S
C1554  H1555   1.115   .     S
C1554  H1556   1.103   .     S
C1554  C1557   1.522   .     S
C1557  H1560   1.106   .     S
C1557  H1559   1.110   .     S
C1557  H1558   1.111   .     S
O1561  C1562   1.409   .     S
C1562  H1564   1.103   .     S
C1562  H1563   1.115   .     S
C1562  C1565   1.522   .     S
C1565  H1568   1.106   .     S
C1565  H1566   1.111   .     S
C1565  H1567   1.110   .     S
C1585  O1633   1.291   .     A
C1585  O1636   1.304   .     A
C1585  C1620   1.449   .     S
C1586  C1619   1.460   .     S
C1586  O1634   1.301   .     A
C1586  O1635   1.299   .     A
C1587  C1618   1.460   .     S
C1587  O1640   1.301   .     A
C1587  O1637   1.299   .     A
C1588  O1639   1.291   .     A
C1588  C1617   1.449   .     S
C1588  O1638   1.304   .     A
C1589  O1644   1.304   .     A
C1589  O1641   1.291   .     A
C1589  C1624   1.449   .     S
C1590  O1642   1.301   .     A
C1590  C1623   1.460   .     S
C1590  O1643   1.299   .     A
C1591  O1645   1.299   .     A
C1591  O1648   1.301   .     A
C1591  C1622   1.460   .     S
C1592  C1621   1.449   .     S
C1592  O1647   1.291   .     A
C1592  O1646   1.304   .     A
C1593  O1649   1.382   .     S
C1593  N1630   1.382   .     S
C1594  O1657   1.382   .     S
C1594  C443    1.440   1_556 S
C1594  N1629   1.382   .     S
C1595  O1665   1.386   .     S
C1595  N1630   1.364   .     S
C1596  O1673   1.386   .     S
C1596  C441    1.440   1_556 S
C1596  N1629   1.364   .     S
C1597  O1681   1.382   .     S
C1597  N1344   1.382   1_565 S
C1598  O1689   1.382   .     S
C1598  N1631   1.382   .     A
C1598  C447    1.440   1_556 S
C1599  O1697   1.386   .     S
C1599  N1632   1.364   .     A
C1600  O1705   1.386   .     S
C1600  C445    1.440   1_556 S
C1600  N1343   1.364   1_565 S
C1601  I1713   2.116   .     S
C1601  C1611   1.390   .     A
C1601  C1618   1.408   .     A
C1602  C1617   1.407   .     A
C1602  C1612   1.400   .     A
C1602  I1714   2.123   .     S
C1603  C1609   1.390   .     A
C1603  I1715   2.151   .     S
C1603  C1617   1.403   .     A
C1604  C1618   1.410   .     A
C1604  I1716   2.148   .     S
C1604  C1610   1.400   .     A
C1605  C1620   1.403   .     A
C1605  C1615   1.390   .     A
C1605  I1717   2.151   .     S
C1606  C1619   1.410   .     A
C1606  C1616   1.400   .     A
C1606  I1718   2.148   .     S
C1607  C1613   1.390   .     A
C1607  C1619   1.408   .     A
C1607  I1719   2.116   .     S
C1608  C1620   1.407   .     A
C1608  I1720   2.123   .     S
C1608  C1614   1.400   .     A
C1609  C1622   1.408   .     A
C1609  I1721   2.116   .     S
C1610  I1722   2.123   .     S
C1610  C1621   1.407   .     A
C1611  I1723   2.151   .     S
C1611  C1621   1.403   .     A
C1612  I1724   2.148   .     S
C1612  C1622   1.410   .     A
C1613  I1725   2.151   .     S
C1613  C1624   1.403   .     A
C1614  I1726   2.148   .     S
C1614  C1623   1.410   .     A
C1615  I1727   2.116   .     S
C1615  C1623   1.408   .     A
C1616  C1624   1.407   .     A
C1616  I1728   2.123   .     S
Cu1625 Cu1626  2.702   .     S
Cu1625 N1629   2.030   .     S
Cu1625 O1633   1.952   .     S
Cu1625 O1638   1.974   .     S
Cu1626 N1630   2.030   .     S
Cu1626 O1636   1.974   .     S
Cu1626 O1639   1.952   .     S
Cu1627 Cu1628  2.702   .     S
Cu1627 O1643   1.974   .     S
Cu1627 O1646   1.974   .     S
Cu1627 N1631   2.030   .     S
Cu1628 O1642   1.952   .     S
Cu1628 O1647   1.952   .     S
Cu1628 N1632   2.030   .     S
O1634  Cu1482  1.952   1_655 S
O1635  Cu1481  1.974   1_655 S
O1637  Cu1482  1.974   1_655 S
O1640  Cu1481  1.952   1_655 S
O1641  Cu1339  1.952   1_565 S
O1644  Cu1340  1.974   1_565 S
O1645  Cu1340  1.974   1_565 S
O1648  Cu1339  1.952   1_565 S
O1649  C1650   1.427   .     S
C1650  H1652   1.118   .     S
C1650  C1653   1.528   .     S
C1650  H1651   1.107   .     S
C1653  H1655   1.110   .     S
C1653  H1656   1.109   .     S
H1654  C501    1.109   1_556 S
O1657  C1658   1.427   .     S
C1658  C1661   1.528   .     S
C1658  H1659   1.107   .     S
C1658  H1660   1.118   .     S
C1661  H1664   1.109   .     S
C1661  H1663   1.110   .     S
C1661  H510    1.109   1_556 S
C1666  H1667   1.115   .     S
C1666  H1668   1.103   .     S
C1666  C1669   1.522   .     S
C1666  O1521   1.409   1_655 S
C1669  H1671   1.110   .     S
C1669  H1672   1.106   .     S
C1669  H1526   1.111   1_655 S
C1674  H1676   1.103   .     S
C1674  C1677   1.522   .     S
C1674  H1675   1.115   .     S
C1674  O1529   1.409   1_655 S
C1677  H1680   1.106   .     S
C1677  H1679   1.110   .     S
C1677  H1534   1.111   1_655 S
O1681  C1682   1.427   .     S
C1682  C1685   1.528   .     S
C1682  H1684   1.118   .     S
C1682  H1683   1.107   .     S
C1685  H1687   1.110   .     S
C1685  H1688   1.109   .     S
H1686  C533    1.109   1_556 S
O1689  C1690   1.427   .     S
C1690  H1691   1.107   .     S
C1690  H1692   1.118   .     S
C1690  C1693   1.528   .     S
C1693  H1695   1.110   .     S
C1693  H1696   1.109   .     S
C1693  H542    1.109   1_556 S
O1697  C1698   1.409   .     S
C1698  H1699   1.115   .     S
C1698  H1700   1.103   .     S
C1698  C1701   1.522   .     S
C1701  H1704   1.106   .     S
C1701  H1703   1.110   .     S
C1701  H1702   1.111   .     S
O1705  C1706   1.409   .     S
C1706  H1708   1.103   .     S
C1706  H1707   1.115   .     S
C1706  C1709   1.522   .     S
C1709  H1712   1.106   .     S
C1709  H1710   1.111   .     S
C1709  H1711   1.110   .     S
