data_str_m3_o1_o10_pcu_sym.214
_audit_creation_date              2020-01-03
_audit_creation_method            'Materials Studio'
_symmetry_space_group_name_H-M    'P1'
_symmetry_Int_Tables_number       1
_symmetry_cell_setting            triclinic
loop_
_symmetry_equiv_pos_as_xyz
  x,y,z
_cell_length_a                    25.8570
_cell_length_b                    31.9073
_cell_length_c                    29.6902
_cell_angle_alpha                 90.6888
_cell_angle_beta                  97.8777
_cell_angle_gamma                 90.7518
loop_
_atom_site_label
_atom_site_type_symbol
_atom_site_fract_x
_atom_site_fract_y
_atom_site_fract_z
_atom_site_U_iso_or_equiv
_atom_site_adp_type
_atom_site_occupancy
C1     C     0.16688   0.08673   0.16655   0.00000  Uiso   1.00
C2     C     0.16715   0.24659   0.16697   0.00000  Uiso   1.00
C3     C     0.06735   0.16777   0.15510   0.00000  Uiso   1.00
C4     C     0.26594   0.16572   0.17816   0.00000  Uiso   1.00
C5     C     0.01301   0.17454   0.15037   0.00000  Uiso   1.00
C6     C     0.32012   0.15873   0.18254   0.00000  Uiso   1.00
C7     C     0.19622   0.02138   0.13752   0.00000  Uiso   1.00
C8     C     0.14060   0.31193   0.19786   0.00000  Uiso   1.00
C9     C     0.19606   0.31175   0.13754   0.00000  Uiso   1.00
C10    C     0.14007   0.02154   0.19730   0.00000  Uiso   1.00
C11    C     0.16806   0.29073   0.16757   0.00000  Uiso   1.00
C12    C     0.16749   0.04257   0.16683   0.00000  Uiso   1.00
C13    C     0.19615   0.19541   0.02824   0.00000  Uiso   1.00
C14    C     0.13415   0.14032   0.30458   0.00000  Uiso   1.00
C15    C     0.19875   0.19362   0.31349   0.00000  Uiso   1.00
C16    C     0.13678   0.13808   0.01964   0.00000  Uiso   1.00
H17    H     0.21874   0.03800   0.11503   0.00000  Uiso   1.00
H18    H     0.11883   0.29533   0.22097   0.00000  Uiso   1.00
H19    H     0.21806   0.29500   0.11470   0.00000  Uiso   1.00
H20    H     0.11783   0.03826   0.21998   0.00000  Uiso   1.00
N21    N     0.16665   0.16666   0.28573   0.00000  Uiso   1.00
N22    N     0.16668   0.16668   0.04760   0.00000  Uiso   1.00
O23    O     0.16666   0.10558   0.20487   0.00000  Uiso   1.00
O24    O     0.16667   0.22775   0.12846   0.00000  Uiso   1.00
O25    O     0.16666   0.10559   0.12843   0.00000  Uiso   1.00
O26    O     0.16667   0.22774   0.20490   0.00000  Uiso   1.00
O27    O     0.09058   0.16666   0.19595   0.00000  Uiso   1.00
O28    O     0.24275   0.16667   0.13739   0.00000  Uiso   1.00
O29    O     0.09058   0.16667   0.11950   0.00000  Uiso   1.00
O30    O     0.24275   0.16666   0.21383   0.00000  Uiso   1.00
Zn31   Zn    0.16667   0.16666   0.21771   0.00000  Uiso   1.00
Zn32   Zn    0.16667   0.16667   0.11563   0.00000  Uiso   1.00
O33    O     0.32283   0.20049   0.11650   0.00000  Uiso   1.00
H34    H     0.01619   0.21153   0.09855   0.00000  Uiso   1.00
O35    O     0.00994   0.13193   0.21557   0.00000  Uiso   1.00
H36    H     0.31655   0.12082   0.23344   0.00000  Uiso   1.00
O37    O     0.22251   0.22582   0.05610   0.00000  Uiso   1.00
H38    H     0.23197   0.24935   0.03721   0.00000  Uiso   1.00
O39    O     0.09874   0.11681   0.27562   0.00000  Uiso   1.00
H40    H     0.06998   0.10779   0.29229   0.00000  Uiso   1.00
O41    O     0.23071   0.22106   0.29388   0.00000  Uiso   1.00
C42    C     0.28338   0.20908   0.30508   0.00000  Uiso   1.00
H43    H     0.28889   0.17618   0.29392   0.00000  Uiso   1.00
H44    H     0.29634   0.21143   0.00899   0.00000  Uiso   1.00
C45    C     0.31802   0.23836   0.28134   0.00000  Uiso   1.00
H46    H     0.30534   0.23710   0.24403   0.00000  Uiso   1.00
H47    H     0.31377   0.27108   0.29343   0.00000  Uiso   1.00
C48    C     0.04202   0.22631   0.29091   0.00000  Uiso   1.00
H49    H     0.05609   0.22838   0.32796   0.00000  Uiso   1.00
H50    H     0.06596   0.24791   0.27290   0.00000  Uiso   1.00
H51    H     0.04710   0.19391   0.27853   0.00000  Uiso   1.00
O52    O     0.10636   0.10857   0.03814   0.00000  Uiso   1.00
C53    C     0.13254   0.06963   0.04261   0.00000  Uiso   1.00
H54    H     0.12000   0.05422   0.07268   0.00000  Uiso   1.00
H55    H     0.17594   0.07326   0.04907   0.00000  Uiso   1.00
C56    C     0.11708   0.03975   0.00197   0.00000  Uiso   1.00
H57    H     0.07398   0.03930   0.32584   0.00000  Uiso   1.00
H58    H     0.13593   0.05025   0.30594   0.00000  Uiso   1.00
C59    C     0.13506   0.32847   0.01303   0.00000  Uiso   1.00
H60    H     0.17806   0.32803   0.02302   0.00000  Uiso   1.00
H61    H     0.12482   0.30792   0.31592   0.00000  Uiso   1.00
H62    H     0.11558   0.31580   0.04118   0.00000  Uiso   1.00
C63    C     0.50022   0.08673   0.16655   0.00000  Uiso   1.00
C64    C     0.50048   0.24659   0.16697   0.00000  Uiso   1.00
C65    C     0.40068   0.16777   0.15510   0.00000  Uiso   1.00
C66    C     0.59928   0.16572   0.17816   0.00000  Uiso   1.00
C67    C     0.34634   0.17454   0.15037   0.00000  Uiso   1.00
C68    C     0.65346   0.15873   0.18254   0.00000  Uiso   1.00
C69    C     0.52955   0.02138   0.13752   0.00000  Uiso   1.00
C70    C     0.47393   0.31193   0.19786   0.00000  Uiso   1.00
C71    C     0.52939   0.31175   0.13754   0.00000  Uiso   1.00
C72    C     0.47340   0.02154   0.19730   0.00000  Uiso   1.00
C73    C     0.50139   0.29073   0.16757   0.00000  Uiso   1.00
C74    C     0.50082   0.04257   0.16683   0.00000  Uiso   1.00
C75    C     0.52948   0.19541   0.02824   0.00000  Uiso   1.00
C76    C     0.46749   0.14032   0.30458   0.00000  Uiso   1.00
C77    C     0.53209   0.19362   0.31349   0.00000  Uiso   1.00
C78    C     0.47012   0.13808   0.01964   0.00000  Uiso   1.00
H79    H     0.55208   0.03800   0.11503   0.00000  Uiso   1.00
H80    H     0.45216   0.29533   0.22097   0.00000  Uiso   1.00
H81    H     0.55139   0.29500   0.11470   0.00000  Uiso   1.00
H82    H     0.45116   0.03826   0.21998   0.00000  Uiso   1.00
N83    N     0.49999   0.16666   0.28573   0.00000  Uiso   1.00
N84    N     0.50001   0.16668   0.04760   0.00000  Uiso   1.00
O85    O     0.50000   0.10558   0.20487   0.00000  Uiso   1.00
O86    O     0.50000   0.22775   0.12846   0.00000  Uiso   1.00
O87    O     0.50000   0.10559   0.12843   0.00000  Uiso   1.00
O88    O     0.50000   0.22774   0.20490   0.00000  Uiso   1.00
O89    O     0.42392   0.16666   0.19595   0.00000  Uiso   1.00
O90    O     0.57608   0.16667   0.13739   0.00000  Uiso   1.00
O91    O     0.42392   0.16667   0.11950   0.00000  Uiso   1.00
O92    O     0.57608   0.16666   0.21383   0.00000  Uiso   1.00
Zn93   Zn    0.50000   0.16666   0.21771   0.00000  Uiso   1.00
Zn94   Zn    0.50000   0.16667   0.11563   0.00000  Uiso   1.00
O95    O     0.65617   0.20049   0.11650   0.00000  Uiso   1.00
H96    H     0.34952   0.21153   0.09855   0.00000  Uiso   1.00
O97    O     0.34327   0.13193   0.21557   0.00000  Uiso   1.00
H98    H     0.64989   0.12082   0.23344   0.00000  Uiso   1.00
O99    O     0.55584   0.22582   0.05610   0.00000  Uiso   1.00
H100   H     0.56531   0.24935   0.03721   0.00000  Uiso   1.00
O101   O     0.43208   0.11681   0.27562   0.00000  Uiso   1.00
H102   H     0.40331   0.10779   0.29229   0.00000  Uiso   1.00
O103   O     0.56404   0.22106   0.29388   0.00000  Uiso   1.00
C104   C     0.61671   0.20908   0.30508   0.00000  Uiso   1.00
H105   H     0.62222   0.17618   0.29392   0.00000  Uiso   1.00
H106   H     0.62967   0.21143   0.00899   0.00000  Uiso   1.00
C107   C     0.65135   0.23836   0.28134   0.00000  Uiso   1.00
H108   H     0.63867   0.23710   0.24403   0.00000  Uiso   1.00
H109   H     0.64710   0.27108   0.29343   0.00000  Uiso   1.00
C110   C     0.37535   0.22631   0.29091   0.00000  Uiso   1.00
H111   H     0.38942   0.22838   0.32796   0.00000  Uiso   1.00
H112   H     0.39929   0.24791   0.27290   0.00000  Uiso   1.00
H113   H     0.38044   0.19391   0.27853   0.00000  Uiso   1.00
O114   O     0.43969   0.10857   0.03814   0.00000  Uiso   1.00
C115   C     0.46587   0.06963   0.04261   0.00000  Uiso   1.00
H116   H     0.45333   0.05422   0.07268   0.00000  Uiso   1.00
H117   H     0.50928   0.07326   0.04907   0.00000  Uiso   1.00
C118   C     0.45042   0.03975   0.00197   0.00000  Uiso   1.00
H119   H     0.40731   0.03930   0.32584   0.00000  Uiso   1.00
H120   H     0.46927   0.05025   0.30594   0.00000  Uiso   1.00
C121   C     0.46839   0.32847   0.01303   0.00000  Uiso   1.00
H122   H     0.51139   0.32803   0.02302   0.00000  Uiso   1.00
H123   H     0.45815   0.30792   0.31592   0.00000  Uiso   1.00
H124   H     0.44891   0.31580   0.04118   0.00000  Uiso   1.00
C125   C     0.83355   0.08673   0.16655   0.00000  Uiso   1.00
C126   C     0.83382   0.24659   0.16697   0.00000  Uiso   1.00
C127   C     0.73402   0.16777   0.15510   0.00000  Uiso   1.00
C128   C     0.93261   0.16572   0.17816   0.00000  Uiso   1.00
C129   C     0.67968   0.17454   0.15037   0.00000  Uiso   1.00
C130   C     0.98679   0.15873   0.18254   0.00000  Uiso   1.00
C131   C     0.86288   0.02138   0.13752   0.00000  Uiso   1.00
C132   C     0.80727   0.31193   0.19786   0.00000  Uiso   1.00
C133   C     0.86272   0.31175   0.13754   0.00000  Uiso   1.00
C134   C     0.80674   0.02154   0.19730   0.00000  Uiso   1.00
C135   C     0.83472   0.29073   0.16757   0.00000  Uiso   1.00
C136   C     0.83416   0.04257   0.16683   0.00000  Uiso   1.00
C137   C     0.86282   0.19541   0.02824   0.00000  Uiso   1.00
C138   C     0.80082   0.14032   0.30458   0.00000  Uiso   1.00
C139   C     0.86542   0.19362   0.31349   0.00000  Uiso   1.00
C140   C     0.80345   0.13808   0.01964   0.00000  Uiso   1.00
H141   H     0.88541   0.03800   0.11503   0.00000  Uiso   1.00
H142   H     0.78550   0.29533   0.22097   0.00000  Uiso   1.00
H143   H     0.88472   0.29500   0.11470   0.00000  Uiso   1.00
H144   H     0.78450   0.03826   0.21998   0.00000  Uiso   1.00
N145   N     0.83332   0.16666   0.28573   0.00000  Uiso   1.00
N146   N     0.83335   0.16668   0.04760   0.00000  Uiso   1.00
O147   O     0.83333   0.10558   0.20487   0.00000  Uiso   1.00
O148   O     0.83334   0.22775   0.12846   0.00000  Uiso   1.00
O149   O     0.83333   0.10559   0.12843   0.00000  Uiso   1.00
O150   O     0.83334   0.22774   0.20490   0.00000  Uiso   1.00
O151   O     0.75725   0.16666   0.19595   0.00000  Uiso   1.00
O152   O     0.90942   0.16667   0.13739   0.00000  Uiso   1.00
O153   O     0.75725   0.16667   0.11950   0.00000  Uiso   1.00
O154   O     0.90942   0.16666   0.21383   0.00000  Uiso   1.00
Zn155  Zn    0.83333   0.16666   0.21771   0.00000  Uiso   1.00
Zn156  Zn    0.83333   0.16667   0.11563   0.00000  Uiso   1.00
O157   O     0.98950   0.20049   0.11650   0.00000  Uiso   1.00
H158   H     0.68286   0.21153   0.09855   0.00000  Uiso   1.00
O159   O     0.67661   0.13193   0.21557   0.00000  Uiso   1.00
H160   H     0.98322   0.12082   0.23344   0.00000  Uiso   1.00
O161   O     0.88917   0.22582   0.05610   0.00000  Uiso   1.00
H162   H     0.89864   0.24935   0.03721   0.00000  Uiso   1.00
O163   O     0.76541   0.11681   0.27562   0.00000  Uiso   1.00
H164   H     0.73664   0.10779   0.29229   0.00000  Uiso   1.00
O165   O     0.89737   0.22106   0.29388   0.00000  Uiso   1.00
C166   C     0.95004   0.20908   0.30508   0.00000  Uiso   1.00
H167   H     0.95556   0.17618   0.29392   0.00000  Uiso   1.00
H168   H     0.96301   0.21143   0.00899   0.00000  Uiso   1.00
C169   C     0.98469   0.23836   0.28134   0.00000  Uiso   1.00
H170   H     0.97201   0.23710   0.24403   0.00000  Uiso   1.00
H171   H     0.98043   0.27108   0.29343   0.00000  Uiso   1.00
C172   C     0.70869   0.22631   0.29091   0.00000  Uiso   1.00
H173   H     0.72276   0.22838   0.32796   0.00000  Uiso   1.00
H174   H     0.73263   0.24791   0.27290   0.00000  Uiso   1.00
H175   H     0.71377   0.19391   0.27853   0.00000  Uiso   1.00
O176   O     0.77303   0.10857   0.03814   0.00000  Uiso   1.00
C177   C     0.79921   0.06963   0.04261   0.00000  Uiso   1.00
H178   H     0.78666   0.05422   0.07268   0.00000  Uiso   1.00
H179   H     0.84261   0.07326   0.04907   0.00000  Uiso   1.00
C180   C     0.78375   0.03975   0.00197   0.00000  Uiso   1.00
H181   H     0.74065   0.03930   0.32584   0.00000  Uiso   1.00
H182   H     0.80260   0.05025   0.30594   0.00000  Uiso   1.00
C183   C     0.80173   0.32847   0.01303   0.00000  Uiso   1.00
H184   H     0.84473   0.32803   0.02302   0.00000  Uiso   1.00
H185   H     0.79148   0.30792   0.31592   0.00000  Uiso   1.00
H186   H     0.78224   0.31580   0.04118   0.00000  Uiso   1.00
C187   C     0.16688   0.42006   0.16655   0.00000  Uiso   1.00
C188   C     0.16715   0.57992   0.16697   0.00000  Uiso   1.00
C189   C     0.06735   0.50110   0.15510   0.00000  Uiso   1.00
C190   C     0.26594   0.49905   0.17816   0.00000  Uiso   1.00
C191   C     0.01301   0.50788   0.15037   0.00000  Uiso   1.00
C192   C     0.32012   0.49207   0.18254   0.00000  Uiso   1.00
C193   C     0.19622   0.35471   0.13752   0.00000  Uiso   1.00
C194   C     0.14060   0.64526   0.19786   0.00000  Uiso   1.00
C195   C     0.19606   0.64508   0.13754   0.00000  Uiso   1.00
C196   C     0.14007   0.35487   0.19730   0.00000  Uiso   1.00
C197   C     0.16806   0.62406   0.16757   0.00000  Uiso   1.00
C198   C     0.16749   0.37590   0.16683   0.00000  Uiso   1.00
C199   C     0.19615   0.52875   0.02824   0.00000  Uiso   1.00
C200   C     0.13415   0.47366   0.30458   0.00000  Uiso   1.00
C201   C     0.19875   0.52696   0.31349   0.00000  Uiso   1.00
C202   C     0.13678   0.47141   0.01964   0.00000  Uiso   1.00
H203   H     0.21874   0.37133   0.11503   0.00000  Uiso   1.00
H204   H     0.11883   0.62866   0.22097   0.00000  Uiso   1.00
H205   H     0.21806   0.62833   0.11470   0.00000  Uiso   1.00
H206   H     0.11783   0.37160   0.21998   0.00000  Uiso   1.00
N207   N     0.16665   0.49999   0.28573   0.00000  Uiso   1.00
N208   N     0.16668   0.50001   0.04760   0.00000  Uiso   1.00
O209   O     0.16666   0.43892   0.20487   0.00000  Uiso   1.00
O210   O     0.16667   0.56108   0.12846   0.00000  Uiso   1.00
O211   O     0.16666   0.43893   0.12843   0.00000  Uiso   1.00
O212   O     0.16667   0.56107   0.20490   0.00000  Uiso   1.00
O213   O     0.09058   0.50000   0.19595   0.00000  Uiso   1.00
O214   O     0.24275   0.50000   0.13739   0.00000  Uiso   1.00
O215   O     0.09058   0.50000   0.11950   0.00000  Uiso   1.00
O216   O     0.24275   0.50000   0.21383   0.00000  Uiso   1.00
Zn217  Zn    0.16667   0.49999   0.21771   0.00000  Uiso   1.00
Zn218  Zn    0.16667   0.50001   0.11563   0.00000  Uiso   1.00
O219   O     0.32283   0.53382   0.11650   0.00000  Uiso   1.00
H220   H     0.01619   0.54486   0.09855   0.00000  Uiso   1.00
O221   O     0.00994   0.46526   0.21557   0.00000  Uiso   1.00
H222   H     0.31655   0.45415   0.23344   0.00000  Uiso   1.00
O223   O     0.22251   0.55915   0.05610   0.00000  Uiso   1.00
H224   H     0.23197   0.58268   0.03721   0.00000  Uiso   1.00
O225   O     0.09874   0.45014   0.27562   0.00000  Uiso   1.00
H226   H     0.06998   0.44113   0.29229   0.00000  Uiso   1.00
O227   O     0.23071   0.55439   0.29388   0.00000  Uiso   1.00
C228   C     0.28338   0.54241   0.30508   0.00000  Uiso   1.00
H229   H     0.28889   0.50951   0.29392   0.00000  Uiso   1.00
H230   H     0.29634   0.54477   0.00899   0.00000  Uiso   1.00
C231   C     0.31802   0.57170   0.28134   0.00000  Uiso   1.00
H232   H     0.30534   0.57043   0.24403   0.00000  Uiso   1.00
H233   H     0.31377   0.60442   0.29343   0.00000  Uiso   1.00
C234   C     0.04202   0.55965   0.29091   0.00000  Uiso   1.00
H235   H     0.05609   0.56172   0.32796   0.00000  Uiso   1.00
H236   H     0.06596   0.58125   0.27290   0.00000  Uiso   1.00
H237   H     0.04710   0.52725   0.27853   0.00000  Uiso   1.00
O238   O     0.10636   0.44191   0.03814   0.00000  Uiso   1.00
C239   C     0.13254   0.40297   0.04261   0.00000  Uiso   1.00
H240   H     0.12000   0.38755   0.07268   0.00000  Uiso   1.00
H241   H     0.17594   0.40660   0.04907   0.00000  Uiso   1.00
C242   C     0.11708   0.37308   0.00197   0.00000  Uiso   1.00
H243   H     0.07398   0.37264   0.32584   0.00000  Uiso   1.00
H244   H     0.13593   0.38358   0.30594   0.00000  Uiso   1.00
C245   C     0.13506   0.66181   0.01303   0.00000  Uiso   1.00
H246   H     0.17806   0.66137   0.02302   0.00000  Uiso   1.00
H247   H     0.12482   0.64125   0.31592   0.00000  Uiso   1.00
H248   H     0.11558   0.64913   0.04118   0.00000  Uiso   1.00
C249   C     0.50022   0.42006   0.16655   0.00000  Uiso   1.00
C250   C     0.50048   0.57992   0.16697   0.00000  Uiso   1.00
C251   C     0.40068   0.50110   0.15510   0.00000  Uiso   1.00
C252   C     0.59928   0.49905   0.17816   0.00000  Uiso   1.00
C253   C     0.34634   0.50788   0.15037   0.00000  Uiso   1.00
C254   C     0.65346   0.49207   0.18254   0.00000  Uiso   1.00
C255   C     0.52955   0.35471   0.13752   0.00000  Uiso   1.00
C256   C     0.47393   0.64526   0.19786   0.00000  Uiso   1.00
C257   C     0.52939   0.64508   0.13754   0.00000  Uiso   1.00
C258   C     0.47340   0.35487   0.19730   0.00000  Uiso   1.00
C259   C     0.50139   0.62406   0.16757   0.00000  Uiso   1.00
C260   C     0.50082   0.37590   0.16683   0.00000  Uiso   1.00
C261   C     0.52948   0.52875   0.02824   0.00000  Uiso   1.00
C262   C     0.46749   0.47366   0.30458   0.00000  Uiso   1.00
C263   C     0.53209   0.52696   0.31349   0.00000  Uiso   1.00
C264   C     0.47012   0.47141   0.01964   0.00000  Uiso   1.00
H265   H     0.55208   0.37133   0.11503   0.00000  Uiso   1.00
H266   H     0.45216   0.62866   0.22097   0.00000  Uiso   1.00
H267   H     0.55139   0.62833   0.11470   0.00000  Uiso   1.00
H268   H     0.45116   0.37160   0.21998   0.00000  Uiso   1.00
N269   N     0.49999   0.49999   0.28573   0.00000  Uiso   1.00
N270   N     0.50001   0.50001   0.04760   0.00000  Uiso   1.00
O271   O     0.50000   0.43892   0.20487   0.00000  Uiso   1.00
O272   O     0.50000   0.56108   0.12846   0.00000  Uiso   1.00
O273   O     0.50000   0.43893   0.12843   0.00000  Uiso   1.00
O274   O     0.50000   0.56107   0.20490   0.00000  Uiso   1.00
O275   O     0.42392   0.50000   0.19595   0.00000  Uiso   1.00
O276   O     0.57608   0.50000   0.13739   0.00000  Uiso   1.00
O277   O     0.42392   0.50000   0.11950   0.00000  Uiso   1.00
O278   O     0.57608   0.50000   0.21383   0.00000  Uiso   1.00
Zn279  Zn    0.50000   0.49999   0.21771   0.00000  Uiso   1.00
Zn280  Zn    0.50000   0.50001   0.11563   0.00000  Uiso   1.00
O281   O     0.65617   0.53382   0.11650   0.00000  Uiso   1.00
H282   H     0.34952   0.54486   0.09855   0.00000  Uiso   1.00
O283   O     0.34327   0.46526   0.21557   0.00000  Uiso   1.00
H284   H     0.64989   0.45415   0.23344   0.00000  Uiso   1.00
O285   O     0.55584   0.55915   0.05610   0.00000  Uiso   1.00
H286   H     0.56531   0.58268   0.03721   0.00000  Uiso   1.00
O287   O     0.43208   0.45014   0.27562   0.00000  Uiso   1.00
H288   H     0.40331   0.44113   0.29229   0.00000  Uiso   1.00
O289   O     0.56404   0.55439   0.29388   0.00000  Uiso   1.00
C290   C     0.61671   0.54241   0.30508   0.00000  Uiso   1.00
H291   H     0.62222   0.50951   0.29392   0.00000  Uiso   1.00
H292   H     0.62967   0.54477   0.00899   0.00000  Uiso   1.00
C293   C     0.65135   0.57170   0.28134   0.00000  Uiso   1.00
H294   H     0.63867   0.57043   0.24403   0.00000  Uiso   1.00
H295   H     0.64710   0.60442   0.29343   0.00000  Uiso   1.00
C296   C     0.37535   0.55965   0.29091   0.00000  Uiso   1.00
H297   H     0.38942   0.56172   0.32796   0.00000  Uiso   1.00
H298   H     0.39929   0.58125   0.27290   0.00000  Uiso   1.00
H299   H     0.38044   0.52725   0.27853   0.00000  Uiso   1.00
O300   O     0.43969   0.44191   0.03814   0.00000  Uiso   1.00
C301   C     0.46587   0.40297   0.04261   0.00000  Uiso   1.00
H302   H     0.45333   0.38755   0.07268   0.00000  Uiso   1.00
H303   H     0.50928   0.40660   0.04907   0.00000  Uiso   1.00
C304   C     0.45042   0.37308   0.00197   0.00000  Uiso   1.00
H305   H     0.40731   0.37264   0.32584   0.00000  Uiso   1.00
H306   H     0.46927   0.38358   0.30594   0.00000  Uiso   1.00
C307   C     0.46839   0.66181   0.01303   0.00000  Uiso   1.00
H308   H     0.51139   0.66137   0.02302   0.00000  Uiso   1.00
H309   H     0.45815   0.64125   0.31592   0.00000  Uiso   1.00
H310   H     0.44891   0.64913   0.04118   0.00000  Uiso   1.00
C311   C     0.83355   0.42006   0.16655   0.00000  Uiso   1.00
C312   C     0.83382   0.57992   0.16697   0.00000  Uiso   1.00
C313   C     0.73402   0.50110   0.15510   0.00000  Uiso   1.00
C314   C     0.93261   0.49905   0.17816   0.00000  Uiso   1.00
C315   C     0.67968   0.50788   0.15037   0.00000  Uiso   1.00
C316   C     0.98679   0.49207   0.18254   0.00000  Uiso   1.00
C317   C     0.86288   0.35471   0.13752   0.00000  Uiso   1.00
C318   C     0.80727   0.64526   0.19786   0.00000  Uiso   1.00
C319   C     0.86272   0.64508   0.13754   0.00000  Uiso   1.00
C320   C     0.80674   0.35487   0.19730   0.00000  Uiso   1.00
C321   C     0.83472   0.62406   0.16757   0.00000  Uiso   1.00
C322   C     0.83416   0.37590   0.16683   0.00000  Uiso   1.00
C323   C     0.86282   0.52875   0.02824   0.00000  Uiso   1.00
C324   C     0.80082   0.47366   0.30458   0.00000  Uiso   1.00
C325   C     0.86542   0.52696   0.31349   0.00000  Uiso   1.00
C326   C     0.80345   0.47141   0.01964   0.00000  Uiso   1.00
H327   H     0.88541   0.37133   0.11503   0.00000  Uiso   1.00
H328   H     0.78550   0.62866   0.22097   0.00000  Uiso   1.00
H329   H     0.88472   0.62833   0.11470   0.00000  Uiso   1.00
H330   H     0.78450   0.37160   0.21998   0.00000  Uiso   1.00
N331   N     0.83332   0.49999   0.28573   0.00000  Uiso   1.00
N332   N     0.83335   0.50001   0.04760   0.00000  Uiso   1.00
O333   O     0.83333   0.43892   0.20487   0.00000  Uiso   1.00
O334   O     0.83334   0.56108   0.12846   0.00000  Uiso   1.00
O335   O     0.83333   0.43893   0.12843   0.00000  Uiso   1.00
O336   O     0.83334   0.56107   0.20490   0.00000  Uiso   1.00
O337   O     0.75725   0.50000   0.19595   0.00000  Uiso   1.00
O338   O     0.90942   0.50000   0.13739   0.00000  Uiso   1.00
O339   O     0.75725   0.50000   0.11950   0.00000  Uiso   1.00
O340   O     0.90942   0.50000   0.21383   0.00000  Uiso   1.00
Zn341  Zn    0.83333   0.49999   0.21771   0.00000  Uiso   1.00
Zn342  Zn    0.83333   0.50001   0.11563   0.00000  Uiso   1.00
O343   O     0.98950   0.53382   0.11650   0.00000  Uiso   1.00
H344   H     0.68286   0.54486   0.09855   0.00000  Uiso   1.00
O345   O     0.67661   0.46526   0.21557   0.00000  Uiso   1.00
H346   H     0.98322   0.45415   0.23344   0.00000  Uiso   1.00
O347   O     0.88917   0.55915   0.05610   0.00000  Uiso   1.00
H348   H     0.89864   0.58268   0.03721   0.00000  Uiso   1.00
O349   O     0.76541   0.45014   0.27562   0.00000  Uiso   1.00
H350   H     0.73664   0.44113   0.29229   0.00000  Uiso   1.00
O351   O     0.89737   0.55439   0.29388   0.00000  Uiso   1.00
C352   C     0.95004   0.54241   0.30508   0.00000  Uiso   1.00
H353   H     0.95556   0.50951   0.29392   0.00000  Uiso   1.00
H354   H     0.96301   0.54477   0.00899   0.00000  Uiso   1.00
C355   C     0.98469   0.57170   0.28134   0.00000  Uiso   1.00
H356   H     0.97201   0.57043   0.24403   0.00000  Uiso   1.00
H357   H     0.98043   0.60442   0.29343   0.00000  Uiso   1.00
C358   C     0.70869   0.55965   0.29091   0.00000  Uiso   1.00
H359   H     0.72276   0.56172   0.32796   0.00000  Uiso   1.00
H360   H     0.73263   0.58125   0.27290   0.00000  Uiso   1.00
H361   H     0.71377   0.52725   0.27853   0.00000  Uiso   1.00
O362   O     0.77303   0.44191   0.03814   0.00000  Uiso   1.00
C363   C     0.79921   0.40297   0.04261   0.00000  Uiso   1.00
H364   H     0.78666   0.38755   0.07268   0.00000  Uiso   1.00
H365   H     0.84261   0.40660   0.04907   0.00000  Uiso   1.00
C366   C     0.78375   0.37308   0.00197   0.00000  Uiso   1.00
H367   H     0.74065   0.37264   0.32584   0.00000  Uiso   1.00
H368   H     0.80260   0.38358   0.30594   0.00000  Uiso   1.00
C369   C     0.80173   0.66181   0.01303   0.00000  Uiso   1.00
H370   H     0.84473   0.66137   0.02302   0.00000  Uiso   1.00
H371   H     0.79148   0.64125   0.31592   0.00000  Uiso   1.00
H372   H     0.78224   0.64913   0.04118   0.00000  Uiso   1.00
C373   C     0.16688   0.75340   0.16655   0.00000  Uiso   1.00
C374   C     0.16715   0.91326   0.16697   0.00000  Uiso   1.00
C375   C     0.06735   0.83443   0.15510   0.00000  Uiso   1.00
C376   C     0.26594   0.83239   0.17816   0.00000  Uiso   1.00
C377   C     0.01301   0.84121   0.15037   0.00000  Uiso   1.00
C378   C     0.32012   0.82540   0.18254   0.00000  Uiso   1.00
C379   C     0.19622   0.68805   0.13752   0.00000  Uiso   1.00
C380   C     0.14060   0.97860   0.19786   0.00000  Uiso   1.00
C381   C     0.19606   0.97841   0.13754   0.00000  Uiso   1.00
C382   C     0.14007   0.68820   0.19730   0.00000  Uiso   1.00
C383   C     0.16806   0.95740   0.16757   0.00000  Uiso   1.00
C384   C     0.16749   0.70923   0.16683   0.00000  Uiso   1.00
C385   C     0.19615   0.86208   0.02824   0.00000  Uiso   1.00
C386   C     0.13415   0.80699   0.30458   0.00000  Uiso   1.00
C387   C     0.19875   0.86029   0.31349   0.00000  Uiso   1.00
C388   C     0.13678   0.80475   0.01964   0.00000  Uiso   1.00
H389   H     0.21874   0.70467   0.11503   0.00000  Uiso   1.00
H390   H     0.11883   0.96200   0.22097   0.00000  Uiso   1.00
H391   H     0.21806   0.96167   0.11470   0.00000  Uiso   1.00
H392   H     0.11783   0.70493   0.21998   0.00000  Uiso   1.00
N393   N     0.16665   0.83332   0.28573   0.00000  Uiso   1.00
N394   N     0.16668   0.83334   0.04760   0.00000  Uiso   1.00
O395   O     0.16666   0.77225   0.20487   0.00000  Uiso   1.00
O396   O     0.16667   0.89442   0.12846   0.00000  Uiso   1.00
O397   O     0.16666   0.77226   0.12843   0.00000  Uiso   1.00
O398   O     0.16667   0.89441   0.20490   0.00000  Uiso   1.00
O399   O     0.09058   0.83333   0.19595   0.00000  Uiso   1.00
O400   O     0.24275   0.83334   0.13739   0.00000  Uiso   1.00
O401   O     0.09058   0.83334   0.11950   0.00000  Uiso   1.00
O402   O     0.24275   0.83333   0.21383   0.00000  Uiso   1.00
Zn403  Zn    0.16667   0.83333   0.21771   0.00000  Uiso   1.00
Zn404  Zn    0.16667   0.83334   0.11563   0.00000  Uiso   1.00
O405   O     0.32283   0.86715   0.11650   0.00000  Uiso   1.00
H406   H     0.01619   0.87819   0.09855   0.00000  Uiso   1.00
O407   O     0.00994   0.79859   0.21557   0.00000  Uiso   1.00
H408   H     0.31655   0.78749   0.23344   0.00000  Uiso   1.00
O409   O     0.22251   0.89249   0.05610   0.00000  Uiso   1.00
H410   H     0.23197   0.91601   0.03721   0.00000  Uiso   1.00
O411   O     0.09874   0.78347   0.27562   0.00000  Uiso   1.00
H412   H     0.06998   0.77446   0.29229   0.00000  Uiso   1.00
O413   O     0.23071   0.88773   0.29388   0.00000  Uiso   1.00
C414   C     0.28338   0.87574   0.30508   0.00000  Uiso   1.00
H415   H     0.28889   0.84284   0.29392   0.00000  Uiso   1.00
H416   H     0.29634   0.87810   0.00899   0.00000  Uiso   1.00
C417   C     0.31802   0.90503   0.28134   0.00000  Uiso   1.00
H418   H     0.30534   0.90377   0.24403   0.00000  Uiso   1.00
H419   H     0.31377   0.93775   0.29343   0.00000  Uiso   1.00
C420   C     0.04202   0.89298   0.29091   0.00000  Uiso   1.00
H421   H     0.05609   0.89505   0.32796   0.00000  Uiso   1.00
H422   H     0.06596   0.91458   0.27290   0.00000  Uiso   1.00
H423   H     0.04710   0.86058   0.27853   0.00000  Uiso   1.00
O424   O     0.10636   0.77524   0.03814   0.00000  Uiso   1.00
C425   C     0.13254   0.73630   0.04261   0.00000  Uiso   1.00
H426   H     0.12000   0.72089   0.07268   0.00000  Uiso   1.00
H427   H     0.17594   0.73993   0.04907   0.00000  Uiso   1.00
C428   C     0.11708   0.70641   0.00197   0.00000  Uiso   1.00
H429   H     0.07398   0.70597   0.32584   0.00000  Uiso   1.00
H430   H     0.13593   0.71691   0.30594   0.00000  Uiso   1.00
C431   C     0.13506   0.99514   0.01303   0.00000  Uiso   1.00
H432   H     0.17806   0.99470   0.02302   0.00000  Uiso   1.00
H433   H     0.12482   0.97458   0.31592   0.00000  Uiso   1.00
H434   H     0.11558   0.98246   0.04118   0.00000  Uiso   1.00
C435   C     0.50022   0.75340   0.16655   0.00000  Uiso   1.00
C436   C     0.50048   0.91326   0.16697   0.00000  Uiso   1.00
C437   C     0.40068   0.83443   0.15510   0.00000  Uiso   1.00
C438   C     0.59928   0.83239   0.17816   0.00000  Uiso   1.00
C439   C     0.34634   0.84121   0.15037   0.00000  Uiso   1.00
C440   C     0.65346   0.82540   0.18254   0.00000  Uiso   1.00
C441   C     0.52955   0.68805   0.13752   0.00000  Uiso   1.00
C442   C     0.47393   0.97860   0.19786   0.00000  Uiso   1.00
C443   C     0.52939   0.97841   0.13754   0.00000  Uiso   1.00
C444   C     0.47340   0.68820   0.19730   0.00000  Uiso   1.00
C445   C     0.50139   0.95740   0.16757   0.00000  Uiso   1.00
C446   C     0.50082   0.70923   0.16683   0.00000  Uiso   1.00
C447   C     0.52948   0.86208   0.02824   0.00000  Uiso   1.00
C448   C     0.46749   0.80699   0.30458   0.00000  Uiso   1.00
C449   C     0.53209   0.86029   0.31349   0.00000  Uiso   1.00
C450   C     0.47012   0.80475   0.01964   0.00000  Uiso   1.00
H451   H     0.55208   0.70467   0.11503   0.00000  Uiso   1.00
H452   H     0.45216   0.96200   0.22097   0.00000  Uiso   1.00
H453   H     0.55139   0.96167   0.11470   0.00000  Uiso   1.00
H454   H     0.45116   0.70493   0.21998   0.00000  Uiso   1.00
N455   N     0.49999   0.83332   0.28573   0.00000  Uiso   1.00
N456   N     0.50001   0.83334   0.04760   0.00000  Uiso   1.00
O457   O     0.50000   0.77225   0.20487   0.00000  Uiso   1.00
O458   O     0.50000   0.89442   0.12846   0.00000  Uiso   1.00
O459   O     0.50000   0.77226   0.12843   0.00000  Uiso   1.00
O460   O     0.50000   0.89441   0.20490   0.00000  Uiso   1.00
O461   O     0.42392   0.83333   0.19595   0.00000  Uiso   1.00
O462   O     0.57608   0.83334   0.13739   0.00000  Uiso   1.00
O463   O     0.42392   0.83334   0.11950   0.00000  Uiso   1.00
O464   O     0.57608   0.83333   0.21383   0.00000  Uiso   1.00
Zn465  Zn    0.50000   0.83333   0.21771   0.00000  Uiso   1.00
Zn466  Zn    0.50000   0.83334   0.11563   0.00000  Uiso   1.00
O467   O     0.65617   0.86715   0.11650   0.00000  Uiso   1.00
H468   H     0.34952   0.87819   0.09855   0.00000  Uiso   1.00
O469   O     0.34327   0.79859   0.21557   0.00000  Uiso   1.00
H470   H     0.64989   0.78749   0.23344   0.00000  Uiso   1.00
O471   O     0.55584   0.89249   0.05610   0.00000  Uiso   1.00
H472   H     0.56531   0.91601   0.03721   0.00000  Uiso   1.00
O473   O     0.43208   0.78347   0.27562   0.00000  Uiso   1.00
H474   H     0.40331   0.77446   0.29229   0.00000  Uiso   1.00
O475   O     0.56404   0.88773   0.29388   0.00000  Uiso   1.00
C476   C     0.61671   0.87574   0.30508   0.00000  Uiso   1.00
H477   H     0.62222   0.84284   0.29392   0.00000  Uiso   1.00
H478   H     0.62967   0.87810   0.00899   0.00000  Uiso   1.00
C479   C     0.65135   0.90503   0.28134   0.00000  Uiso   1.00
H480   H     0.63867   0.90377   0.24403   0.00000  Uiso   1.00
H481   H     0.64710   0.93775   0.29343   0.00000  Uiso   1.00
C482   C     0.37535   0.89298   0.29091   0.00000  Uiso   1.00
H483   H     0.38942   0.89505   0.32796   0.00000  Uiso   1.00
H484   H     0.39929   0.91458   0.27290   0.00000  Uiso   1.00
H485   H     0.38044   0.86058   0.27853   0.00000  Uiso   1.00
O486   O     0.43969   0.77524   0.03814   0.00000  Uiso   1.00
C487   C     0.46587   0.73630   0.04261   0.00000  Uiso   1.00
H488   H     0.45333   0.72089   0.07268   0.00000  Uiso   1.00
H489   H     0.50928   0.73993   0.04907   0.00000  Uiso   1.00
C490   C     0.45042   0.70641   0.00197   0.00000  Uiso   1.00
H491   H     0.40731   0.70597   0.32584   0.00000  Uiso   1.00
H492   H     0.46927   0.71691   0.30594   0.00000  Uiso   1.00
C493   C     0.46839   0.99514   0.01303   0.00000  Uiso   1.00
H494   H     0.51139   0.99470   0.02302   0.00000  Uiso   1.00
H495   H     0.45815   0.97458   0.31592   0.00000  Uiso   1.00
H496   H     0.44891   0.98246   0.04118   0.00000  Uiso   1.00
C497   C     0.83355   0.75340   0.16655   0.00000  Uiso   1.00
C498   C     0.83382   0.91326   0.16697   0.00000  Uiso   1.00
C499   C     0.73402   0.83443   0.15510   0.00000  Uiso   1.00
C500   C     0.93261   0.83239   0.17816   0.00000  Uiso   1.00
C501   C     0.67968   0.84121   0.15037   0.00000  Uiso   1.00
C502   C     0.98679   0.82540   0.18254   0.00000  Uiso   1.00
C503   C     0.86288   0.68805   0.13752   0.00000  Uiso   1.00
C504   C     0.80727   0.97860   0.19786   0.00000  Uiso   1.00
C505   C     0.86272   0.97841   0.13754   0.00000  Uiso   1.00
C506   C     0.80674   0.68820   0.19730   0.00000  Uiso   1.00
C507   C     0.83472   0.95740   0.16757   0.00000  Uiso   1.00
C508   C     0.83416   0.70923   0.16683   0.00000  Uiso   1.00
C509   C     0.86282   0.86208   0.02824   0.00000  Uiso   1.00
C510   C     0.80082   0.80699   0.30458   0.00000  Uiso   1.00
C511   C     0.86542   0.86029   0.31349   0.00000  Uiso   1.00
C512   C     0.80345   0.80475   0.01964   0.00000  Uiso   1.00
H513   H     0.88541   0.70467   0.11503   0.00000  Uiso   1.00
H514   H     0.78550   0.96200   0.22097   0.00000  Uiso   1.00
H515   H     0.88472   0.96167   0.11470   0.00000  Uiso   1.00
H516   H     0.78450   0.70493   0.21998   0.00000  Uiso   1.00
N517   N     0.83332   0.83332   0.28573   0.00000  Uiso   1.00
N518   N     0.83335   0.83334   0.04760   0.00000  Uiso   1.00
O519   O     0.83333   0.77225   0.20487   0.00000  Uiso   1.00
O520   O     0.83334   0.89442   0.12846   0.00000  Uiso   1.00
O521   O     0.83333   0.77226   0.12843   0.00000  Uiso   1.00
O522   O     0.83334   0.89441   0.20490   0.00000  Uiso   1.00
O523   O     0.75725   0.83333   0.19595   0.00000  Uiso   1.00
O524   O     0.90942   0.83334   0.13739   0.00000  Uiso   1.00
O525   O     0.75725   0.83334   0.11950   0.00000  Uiso   1.00
O526   O     0.90942   0.83333   0.21383   0.00000  Uiso   1.00
Zn527  Zn    0.83333   0.83333   0.21771   0.00000  Uiso   1.00
Zn528  Zn    0.83333   0.83334   0.11563   0.00000  Uiso   1.00
O529   O     0.98950   0.86715   0.11650   0.00000  Uiso   1.00
H530   H     0.68286   0.87819   0.09855   0.00000  Uiso   1.00
O531   O     0.67661   0.79859   0.21557   0.00000  Uiso   1.00
H532   H     0.98322   0.78749   0.23344   0.00000  Uiso   1.00
O533   O     0.88917   0.89249   0.05610   0.00000  Uiso   1.00
H534   H     0.89864   0.91601   0.03721   0.00000  Uiso   1.00
O535   O     0.76541   0.78347   0.27562   0.00000  Uiso   1.00
H536   H     0.73664   0.77446   0.29229   0.00000  Uiso   1.00
O537   O     0.89737   0.88773   0.29388   0.00000  Uiso   1.00
C538   C     0.95004   0.87574   0.30508   0.00000  Uiso   1.00
H539   H     0.95556   0.84284   0.29392   0.00000  Uiso   1.00
H540   H     0.96301   0.87810   0.00899   0.00000  Uiso   1.00
C541   C     0.98469   0.90503   0.28134   0.00000  Uiso   1.00
H542   H     0.97201   0.90377   0.24403   0.00000  Uiso   1.00
H543   H     0.98043   0.93775   0.29343   0.00000  Uiso   1.00
C544   C     0.70869   0.89298   0.29091   0.00000  Uiso   1.00
H545   H     0.72276   0.89505   0.32796   0.00000  Uiso   1.00
H546   H     0.73263   0.91458   0.27290   0.00000  Uiso   1.00
H547   H     0.71377   0.86058   0.27853   0.00000  Uiso   1.00
O548   O     0.77303   0.77524   0.03814   0.00000  Uiso   1.00
C549   C     0.79921   0.73630   0.04261   0.00000  Uiso   1.00
H550   H     0.78666   0.72089   0.07268   0.00000  Uiso   1.00
H551   H     0.84261   0.73993   0.04907   0.00000  Uiso   1.00
C552   C     0.78375   0.70641   0.00197   0.00000  Uiso   1.00
H553   H     0.74065   0.70597   0.32584   0.00000  Uiso   1.00
H554   H     0.80260   0.71691   0.30594   0.00000  Uiso   1.00
C555   C     0.80173   0.99514   0.01303   0.00000  Uiso   1.00
H556   H     0.84473   0.99470   0.02302   0.00000  Uiso   1.00
H557   H     0.79148   0.97458   0.31592   0.00000  Uiso   1.00
H558   H     0.78224   0.98246   0.04118   0.00000  Uiso   1.00
C559   C     0.16688   0.08673   0.49989   0.00000  Uiso   1.00
C560   C     0.16715   0.24659   0.50031   0.00000  Uiso   1.00
C561   C     0.06735   0.16777   0.48843   0.00000  Uiso   1.00
C562   C     0.26594   0.16572   0.51150   0.00000  Uiso   1.00
C563   C     0.01301   0.17454   0.48371   0.00000  Uiso   1.00
C564   C     0.32012   0.15873   0.51588   0.00000  Uiso   1.00
C565   C     0.19622   0.02138   0.47085   0.00000  Uiso   1.00
C566   C     0.14060   0.31193   0.53119   0.00000  Uiso   1.00
C567   C     0.19606   0.31175   0.47087   0.00000  Uiso   1.00
C568   C     0.14007   0.02154   0.53063   0.00000  Uiso   1.00
C569   C     0.16806   0.29073   0.50090   0.00000  Uiso   1.00
C570   C     0.16749   0.04257   0.50016   0.00000  Uiso   1.00
C571   C     0.19615   0.19541   0.36158   0.00000  Uiso   1.00
C572   C     0.13415   0.14032   0.63791   0.00000  Uiso   1.00
C573   C     0.19875   0.19362   0.64682   0.00000  Uiso   1.00
C574   C     0.13678   0.13808   0.35298   0.00000  Uiso   1.00
H575   H     0.21874   0.03800   0.44837   0.00000  Uiso   1.00
H576   H     0.11883   0.29533   0.55430   0.00000  Uiso   1.00
H577   H     0.21806   0.29500   0.44803   0.00000  Uiso   1.00
H578   H     0.11783   0.03826   0.55332   0.00000  Uiso   1.00
N579   N     0.16665   0.16666   0.61907   0.00000  Uiso   1.00
N580   N     0.16668   0.16668   0.38093   0.00000  Uiso   1.00
O581   O     0.16666   0.10558   0.53821   0.00000  Uiso   1.00
O582   O     0.16667   0.22775   0.46179   0.00000  Uiso   1.00
O583   O     0.16666   0.10559   0.46176   0.00000  Uiso   1.00
O584   O     0.16667   0.22774   0.53824   0.00000  Uiso   1.00
O585   O     0.09058   0.16666   0.52928   0.00000  Uiso   1.00
O586   O     0.24275   0.16667   0.47072   0.00000  Uiso   1.00
O587   O     0.09058   0.16667   0.45284   0.00000  Uiso   1.00
O588   O     0.24275   0.16666   0.54716   0.00000  Uiso   1.00
Zn589  Zn    0.16667   0.16666   0.55104   0.00000  Uiso   1.00
Zn590  Zn    0.16667   0.16667   0.44896   0.00000  Uiso   1.00
O591   O     0.32283   0.20049   0.44983   0.00000  Uiso   1.00
H592   H     0.01619   0.21153   0.43189   0.00000  Uiso   1.00
O593   O     0.00994   0.13193   0.54890   0.00000  Uiso   1.00
H594   H     0.31655   0.12082   0.56677   0.00000  Uiso   1.00
O595   O     0.22251   0.22582   0.38943   0.00000  Uiso   1.00
H596   H     0.23197   0.24935   0.37055   0.00000  Uiso   1.00
O597   O     0.09874   0.11681   0.60895   0.00000  Uiso   1.00
H598   H     0.06998   0.10779   0.62563   0.00000  Uiso   1.00
O599   O     0.23071   0.22106   0.62721   0.00000  Uiso   1.00
C600   C     0.28338   0.20908   0.63841   0.00000  Uiso   1.00
H601   H     0.28889   0.17618   0.62725   0.00000  Uiso   1.00
H602   H     0.29634   0.21143   0.34232   0.00000  Uiso   1.00
C603   C     0.31802   0.23836   0.61467   0.00000  Uiso   1.00
H604   H     0.30534   0.23710   0.57737   0.00000  Uiso   1.00
H605   H     0.31377   0.27108   0.62677   0.00000  Uiso   1.00
C606   C     0.04202   0.22631   0.62425   0.00000  Uiso   1.00
H607   H     0.05609   0.22838   0.66129   0.00000  Uiso   1.00
H608   H     0.06596   0.24791   0.60624   0.00000  Uiso   1.00
H609   H     0.04710   0.19391   0.61187   0.00000  Uiso   1.00
O610   O     0.10636   0.10857   0.37147   0.00000  Uiso   1.00
C611   C     0.13254   0.06963   0.37595   0.00000  Uiso   1.00
H612   H     0.12000   0.05422   0.40601   0.00000  Uiso   1.00
H613   H     0.17594   0.07326   0.38240   0.00000  Uiso   1.00
C614   C     0.11708   0.03975   0.33530   0.00000  Uiso   1.00
H615   H     0.07398   0.03930   0.65918   0.00000  Uiso   1.00
H616   H     0.13593   0.05025   0.63928   0.00000  Uiso   1.00
C617   C     0.13506   0.32847   0.34636   0.00000  Uiso   1.00
H618   H     0.17806   0.32803   0.35635   0.00000  Uiso   1.00
H619   H     0.12482   0.30792   0.64925   0.00000  Uiso   1.00
H620   H     0.11558   0.31580   0.37452   0.00000  Uiso   1.00
C621   C     0.50022   0.08673   0.49989   0.00000  Uiso   1.00
C622   C     0.50048   0.24659   0.50031   0.00000  Uiso   1.00
C623   C     0.40068   0.16777   0.48843   0.00000  Uiso   1.00
C624   C     0.59928   0.16572   0.51150   0.00000  Uiso   1.00
C625   C     0.34634   0.17454   0.48371   0.00000  Uiso   1.00
C626   C     0.65346   0.15873   0.51588   0.00000  Uiso   1.00
C627   C     0.52955   0.02138   0.47085   0.00000  Uiso   1.00
C628   C     0.47393   0.31193   0.53119   0.00000  Uiso   1.00
C629   C     0.52939   0.31175   0.47087   0.00000  Uiso   1.00
C630   C     0.47340   0.02154   0.53063   0.00000  Uiso   1.00
C631   C     0.50139   0.29073   0.50090   0.00000  Uiso   1.00
C632   C     0.50082   0.04257   0.50016   0.00000  Uiso   1.00
C633   C     0.52948   0.19541   0.36158   0.00000  Uiso   1.00
C634   C     0.46749   0.14032   0.63791   0.00000  Uiso   1.00
C635   C     0.53209   0.19362   0.64682   0.00000  Uiso   1.00
C636   C     0.47012   0.13808   0.35298   0.00000  Uiso   1.00
H637   H     0.55208   0.03800   0.44837   0.00000  Uiso   1.00
H638   H     0.45216   0.29533   0.55430   0.00000  Uiso   1.00
H639   H     0.55139   0.29500   0.44803   0.00000  Uiso   1.00
H640   H     0.45116   0.03826   0.55332   0.00000  Uiso   1.00
N641   N     0.49999   0.16666   0.61907   0.00000  Uiso   1.00
N642   N     0.50001   0.16668   0.38093   0.00000  Uiso   1.00
O643   O     0.50000   0.10558   0.53821   0.00000  Uiso   1.00
O644   O     0.50000   0.22775   0.46179   0.00000  Uiso   1.00
O645   O     0.50000   0.10559   0.46176   0.00000  Uiso   1.00
O646   O     0.50000   0.22774   0.53824   0.00000  Uiso   1.00
O647   O     0.42392   0.16666   0.52928   0.00000  Uiso   1.00
O648   O     0.57608   0.16667   0.47072   0.00000  Uiso   1.00
O649   O     0.42392   0.16667   0.45284   0.00000  Uiso   1.00
O650   O     0.57608   0.16666   0.54716   0.00000  Uiso   1.00
Zn651  Zn    0.50000   0.16666   0.55104   0.00000  Uiso   1.00
Zn652  Zn    0.50000   0.16667   0.44896   0.00000  Uiso   1.00
O653   O     0.65617   0.20049   0.44983   0.00000  Uiso   1.00
H654   H     0.34952   0.21153   0.43189   0.00000  Uiso   1.00
O655   O     0.34327   0.13193   0.54890   0.00000  Uiso   1.00
H656   H     0.64989   0.12082   0.56677   0.00000  Uiso   1.00
O657   O     0.55584   0.22582   0.38943   0.00000  Uiso   1.00
H658   H     0.56531   0.24935   0.37055   0.00000  Uiso   1.00
O659   O     0.43208   0.11681   0.60895   0.00000  Uiso   1.00
H660   H     0.40331   0.10779   0.62563   0.00000  Uiso   1.00
O661   O     0.56404   0.22106   0.62721   0.00000  Uiso   1.00
C662   C     0.61671   0.20908   0.63841   0.00000  Uiso   1.00
H663   H     0.62222   0.17618   0.62725   0.00000  Uiso   1.00
H664   H     0.62967   0.21143   0.34232   0.00000  Uiso   1.00
C665   C     0.65135   0.23836   0.61467   0.00000  Uiso   1.00
H666   H     0.63867   0.23710   0.57737   0.00000  Uiso   1.00
H667   H     0.64710   0.27108   0.62677   0.00000  Uiso   1.00
C668   C     0.37535   0.22631   0.62425   0.00000  Uiso   1.00
H669   H     0.38942   0.22838   0.66129   0.00000  Uiso   1.00
H670   H     0.39929   0.24791   0.60624   0.00000  Uiso   1.00
H671   H     0.38044   0.19391   0.61187   0.00000  Uiso   1.00
O672   O     0.43969   0.10857   0.37147   0.00000  Uiso   1.00
C673   C     0.46587   0.06963   0.37595   0.00000  Uiso   1.00
H674   H     0.45333   0.05422   0.40601   0.00000  Uiso   1.00
H675   H     0.50928   0.07326   0.38240   0.00000  Uiso   1.00
C676   C     0.45042   0.03975   0.33530   0.00000  Uiso   1.00
H677   H     0.40731   0.03930   0.65918   0.00000  Uiso   1.00
H678   H     0.46927   0.05025   0.63928   0.00000  Uiso   1.00
C679   C     0.46839   0.32847   0.34636   0.00000  Uiso   1.00
H680   H     0.51139   0.32803   0.35635   0.00000  Uiso   1.00
H681   H     0.45815   0.30792   0.64925   0.00000  Uiso   1.00
H682   H     0.44891   0.31580   0.37452   0.00000  Uiso   1.00
C683   C     0.83355   0.08673   0.49989   0.00000  Uiso   1.00
C684   C     0.83382   0.24659   0.50031   0.00000  Uiso   1.00
C685   C     0.73402   0.16777   0.48843   0.00000  Uiso   1.00
C686   C     0.93261   0.16572   0.51150   0.00000  Uiso   1.00
C687   C     0.67968   0.17454   0.48371   0.00000  Uiso   1.00
C688   C     0.98679   0.15873   0.51588   0.00000  Uiso   1.00
C689   C     0.86288   0.02138   0.47085   0.00000  Uiso   1.00
C690   C     0.80727   0.31193   0.53119   0.00000  Uiso   1.00
C691   C     0.86272   0.31175   0.47087   0.00000  Uiso   1.00
C692   C     0.80674   0.02154   0.53063   0.00000  Uiso   1.00
C693   C     0.83472   0.29073   0.50090   0.00000  Uiso   1.00
C694   C     0.83416   0.04257   0.50016   0.00000  Uiso   1.00
C695   C     0.86282   0.19541   0.36158   0.00000  Uiso   1.00
C696   C     0.80082   0.14032   0.63791   0.00000  Uiso   1.00
C697   C     0.86542   0.19362   0.64682   0.00000  Uiso   1.00
C698   C     0.80345   0.13808   0.35298   0.00000  Uiso   1.00
H699   H     0.88541   0.03800   0.44837   0.00000  Uiso   1.00
H700   H     0.78550   0.29533   0.55430   0.00000  Uiso   1.00
H701   H     0.88472   0.29500   0.44803   0.00000  Uiso   1.00
H702   H     0.78450   0.03826   0.55332   0.00000  Uiso   1.00
N703   N     0.83332   0.16666   0.61907   0.00000  Uiso   1.00
N704   N     0.83335   0.16668   0.38093   0.00000  Uiso   1.00
O705   O     0.83333   0.10558   0.53821   0.00000  Uiso   1.00
O706   O     0.83334   0.22775   0.46179   0.00000  Uiso   1.00
O707   O     0.83333   0.10559   0.46176   0.00000  Uiso   1.00
O708   O     0.83334   0.22774   0.53824   0.00000  Uiso   1.00
O709   O     0.75725   0.16666   0.52928   0.00000  Uiso   1.00
O710   O     0.90942   0.16667   0.47072   0.00000  Uiso   1.00
O711   O     0.75725   0.16667   0.45284   0.00000  Uiso   1.00
O712   O     0.90942   0.16666   0.54716   0.00000  Uiso   1.00
Zn713  Zn    0.83333   0.16666   0.55104   0.00000  Uiso   1.00
Zn714  Zn    0.83333   0.16667   0.44896   0.00000  Uiso   1.00
O715   O     0.98950   0.20049   0.44983   0.00000  Uiso   1.00
H716   H     0.68286   0.21153   0.43189   0.00000  Uiso   1.00
O717   O     0.67661   0.13193   0.54890   0.00000  Uiso   1.00
H718   H     0.98322   0.12082   0.56677   0.00000  Uiso   1.00
O719   O     0.88917   0.22582   0.38943   0.00000  Uiso   1.00
H720   H     0.89864   0.24935   0.37055   0.00000  Uiso   1.00
O721   O     0.76541   0.11681   0.60895   0.00000  Uiso   1.00
H722   H     0.73664   0.10779   0.62563   0.00000  Uiso   1.00
O723   O     0.89737   0.22106   0.62721   0.00000  Uiso   1.00
C724   C     0.95004   0.20908   0.63841   0.00000  Uiso   1.00
H725   H     0.95556   0.17618   0.62725   0.00000  Uiso   1.00
H726   H     0.96301   0.21143   0.34232   0.00000  Uiso   1.00
C727   C     0.98469   0.23836   0.61467   0.00000  Uiso   1.00
H728   H     0.97201   0.23710   0.57737   0.00000  Uiso   1.00
H729   H     0.98043   0.27108   0.62677   0.00000  Uiso   1.00
C730   C     0.70869   0.22631   0.62425   0.00000  Uiso   1.00
H731   H     0.72276   0.22838   0.66129   0.00000  Uiso   1.00
H732   H     0.73263   0.24791   0.60624   0.00000  Uiso   1.00
H733   H     0.71377   0.19391   0.61187   0.00000  Uiso   1.00
O734   O     0.77303   0.10857   0.37147   0.00000  Uiso   1.00
C735   C     0.79921   0.06963   0.37595   0.00000  Uiso   1.00
H736   H     0.78666   0.05422   0.40601   0.00000  Uiso   1.00
H737   H     0.84261   0.07326   0.38240   0.00000  Uiso   1.00
C738   C     0.78375   0.03975   0.33530   0.00000  Uiso   1.00
H739   H     0.74065   0.03930   0.65918   0.00000  Uiso   1.00
H740   H     0.80260   0.05025   0.63928   0.00000  Uiso   1.00
C741   C     0.80173   0.32847   0.34636   0.00000  Uiso   1.00
H742   H     0.84473   0.32803   0.35635   0.00000  Uiso   1.00
H743   H     0.79148   0.30792   0.64925   0.00000  Uiso   1.00
H744   H     0.78224   0.31580   0.37452   0.00000  Uiso   1.00
C745   C     0.16688   0.42006   0.49989   0.00000  Uiso   1.00
C746   C     0.16715   0.57992   0.50031   0.00000  Uiso   1.00
C747   C     0.06735   0.50110   0.48843   0.00000  Uiso   1.00
C748   C     0.26594   0.49905   0.51150   0.00000  Uiso   1.00
C749   C     0.01301   0.50788   0.48371   0.00000  Uiso   1.00
C750   C     0.32012   0.49207   0.51588   0.00000  Uiso   1.00
C751   C     0.19622   0.35471   0.47085   0.00000  Uiso   1.00
C752   C     0.14060   0.64526   0.53119   0.00000  Uiso   1.00
C753   C     0.19606   0.64508   0.47087   0.00000  Uiso   1.00
C754   C     0.14007   0.35487   0.53063   0.00000  Uiso   1.00
C755   C     0.16806   0.62406   0.50090   0.00000  Uiso   1.00
C756   C     0.16749   0.37590   0.50016   0.00000  Uiso   1.00
C757   C     0.19615   0.52875   0.36158   0.00000  Uiso   1.00
C758   C     0.13415   0.47366   0.63791   0.00000  Uiso   1.00
C759   C     0.19875   0.52696   0.64682   0.00000  Uiso   1.00
C760   C     0.13678   0.47141   0.35298   0.00000  Uiso   1.00
H761   H     0.21874   0.37133   0.44837   0.00000  Uiso   1.00
H762   H     0.11883   0.62866   0.55430   0.00000  Uiso   1.00
H763   H     0.21806   0.62833   0.44803   0.00000  Uiso   1.00
H764   H     0.11783   0.37160   0.55332   0.00000  Uiso   1.00
N765   N     0.16665   0.49999   0.61907   0.00000  Uiso   1.00
N766   N     0.16668   0.50001   0.38093   0.00000  Uiso   1.00
O767   O     0.16666   0.43892   0.53821   0.00000  Uiso   1.00
O768   O     0.16667   0.56108   0.46179   0.00000  Uiso   1.00
O769   O     0.16666   0.43893   0.46176   0.00000  Uiso   1.00
O770   O     0.16667   0.56107   0.53824   0.00000  Uiso   1.00
O771   O     0.09058   0.50000   0.52928   0.00000  Uiso   1.00
O772   O     0.24275   0.50000   0.47072   0.00000  Uiso   1.00
O773   O     0.09058   0.50000   0.45284   0.00000  Uiso   1.00
O774   O     0.24275   0.50000   0.54716   0.00000  Uiso   1.00
Zn775  Zn    0.16667   0.49999   0.55104   0.00000  Uiso   1.00
Zn776  Zn    0.16667   0.50001   0.44896   0.00000  Uiso   1.00
O777   O     0.32283   0.53382   0.44983   0.00000  Uiso   1.00
H778   H     0.01619   0.54486   0.43189   0.00000  Uiso   1.00
O779   O     0.00994   0.46526   0.54890   0.00000  Uiso   1.00
H780   H     0.31655   0.45415   0.56677   0.00000  Uiso   1.00
O781   O     0.22251   0.55915   0.38943   0.00000  Uiso   1.00
H782   H     0.23197   0.58268   0.37055   0.00000  Uiso   1.00
O783   O     0.09874   0.45014   0.60895   0.00000  Uiso   1.00
H784   H     0.06998   0.44113   0.62563   0.00000  Uiso   1.00
O785   O     0.23071   0.55439   0.62721   0.00000  Uiso   1.00
C786   C     0.28338   0.54241   0.63841   0.00000  Uiso   1.00
H787   H     0.28889   0.50951   0.62725   0.00000  Uiso   1.00
H788   H     0.29634   0.54477   0.34232   0.00000  Uiso   1.00
C789   C     0.31802   0.57170   0.61467   0.00000  Uiso   1.00
H790   H     0.30534   0.57043   0.57737   0.00000  Uiso   1.00
H791   H     0.31377   0.60442   0.62677   0.00000  Uiso   1.00
C792   C     0.04202   0.55965   0.62425   0.00000  Uiso   1.00
H793   H     0.05609   0.56172   0.66129   0.00000  Uiso   1.00
H794   H     0.06596   0.58125   0.60624   0.00000  Uiso   1.00
H795   H     0.04710   0.52725   0.61187   0.00000  Uiso   1.00
O796   O     0.10636   0.44191   0.37147   0.00000  Uiso   1.00
C797   C     0.13254   0.40297   0.37595   0.00000  Uiso   1.00
H798   H     0.12000   0.38755   0.40601   0.00000  Uiso   1.00
H799   H     0.17594   0.40660   0.38240   0.00000  Uiso   1.00
C800   C     0.11708   0.37308   0.33530   0.00000  Uiso   1.00
H801   H     0.07398   0.37264   0.65918   0.00000  Uiso   1.00
H802   H     0.13593   0.38358   0.63928   0.00000  Uiso   1.00
C803   C     0.13506   0.66181   0.34636   0.00000  Uiso   1.00
H804   H     0.17806   0.66137   0.35635   0.00000  Uiso   1.00
H805   H     0.12482   0.64125   0.64925   0.00000  Uiso   1.00
H806   H     0.11558   0.64913   0.37452   0.00000  Uiso   1.00
C807   C     0.50022   0.42006   0.49989   0.00000  Uiso   1.00
C808   C     0.50048   0.57992   0.50031   0.00000  Uiso   1.00
C809   C     0.40068   0.50110   0.48843   0.00000  Uiso   1.00
C810   C     0.59928   0.49905   0.51150   0.00000  Uiso   1.00
C811   C     0.34634   0.50788   0.48371   0.00000  Uiso   1.00
C812   C     0.65346   0.49207   0.51588   0.00000  Uiso   1.00
C813   C     0.52955   0.35471   0.47085   0.00000  Uiso   1.00
C814   C     0.47393   0.64526   0.53119   0.00000  Uiso   1.00
C815   C     0.52939   0.64508   0.47087   0.00000  Uiso   1.00
C816   C     0.47340   0.35487   0.53063   0.00000  Uiso   1.00
C817   C     0.50139   0.62406   0.50090   0.00000  Uiso   1.00
C818   C     0.50082   0.37590   0.50016   0.00000  Uiso   1.00
C819   C     0.52948   0.52875   0.36158   0.00000  Uiso   1.00
C820   C     0.46749   0.47366   0.63791   0.00000  Uiso   1.00
C821   C     0.53209   0.52696   0.64682   0.00000  Uiso   1.00
C822   C     0.47012   0.47141   0.35298   0.00000  Uiso   1.00
H823   H     0.55208   0.37133   0.44837   0.00000  Uiso   1.00
H824   H     0.45216   0.62866   0.55430   0.00000  Uiso   1.00
H825   H     0.55139   0.62833   0.44803   0.00000  Uiso   1.00
H826   H     0.45116   0.37160   0.55332   0.00000  Uiso   1.00
N827   N     0.49999   0.49999   0.61907   0.00000  Uiso   1.00
N828   N     0.50001   0.50001   0.38093   0.00000  Uiso   1.00
O829   O     0.50000   0.43892   0.53821   0.00000  Uiso   1.00
O830   O     0.50000   0.56108   0.46179   0.00000  Uiso   1.00
O831   O     0.50000   0.43893   0.46176   0.00000  Uiso   1.00
O832   O     0.50000   0.56107   0.53824   0.00000  Uiso   1.00
O833   O     0.42392   0.50000   0.52928   0.00000  Uiso   1.00
O834   O     0.57608   0.50000   0.47072   0.00000  Uiso   1.00
O835   O     0.42392   0.50000   0.45284   0.00000  Uiso   1.00
O836   O     0.57608   0.50000   0.54716   0.00000  Uiso   1.00
Zn837  Zn    0.50000   0.49999   0.55104   0.00000  Uiso   1.00
Zn838  Zn    0.50000   0.50001   0.44896   0.00000  Uiso   1.00
O839   O     0.65617   0.53382   0.44983   0.00000  Uiso   1.00
H840   H     0.34952   0.54486   0.43189   0.00000  Uiso   1.00
O841   O     0.34327   0.46526   0.54890   0.00000  Uiso   1.00
H842   H     0.64989   0.45415   0.56677   0.00000  Uiso   1.00
O843   O     0.55584   0.55915   0.38943   0.00000  Uiso   1.00
H844   H     0.56531   0.58268   0.37055   0.00000  Uiso   1.00
O845   O     0.43208   0.45014   0.60895   0.00000  Uiso   1.00
H846   H     0.40331   0.44113   0.62563   0.00000  Uiso   1.00
O847   O     0.56404   0.55439   0.62721   0.00000  Uiso   1.00
C848   C     0.61671   0.54241   0.63841   0.00000  Uiso   1.00
H849   H     0.62222   0.50951   0.62725   0.00000  Uiso   1.00
H850   H     0.62967   0.54477   0.34232   0.00000  Uiso   1.00
C851   C     0.65135   0.57170   0.61467   0.00000  Uiso   1.00
H852   H     0.63867   0.57043   0.57737   0.00000  Uiso   1.00
H853   H     0.64710   0.60442   0.62677   0.00000  Uiso   1.00
C854   C     0.37535   0.55965   0.62425   0.00000  Uiso   1.00
H855   H     0.38942   0.56172   0.66129   0.00000  Uiso   1.00
H856   H     0.39929   0.58125   0.60624   0.00000  Uiso   1.00
H857   H     0.38044   0.52725   0.61187   0.00000  Uiso   1.00
O858   O     0.43969   0.44191   0.37147   0.00000  Uiso   1.00
C859   C     0.46587   0.40297   0.37595   0.00000  Uiso   1.00
H860   H     0.45333   0.38755   0.40601   0.00000  Uiso   1.00
H861   H     0.50928   0.40660   0.38240   0.00000  Uiso   1.00
C862   C     0.45042   0.37308   0.33530   0.00000  Uiso   1.00
H863   H     0.40731   0.37264   0.65918   0.00000  Uiso   1.00
H864   H     0.46927   0.38358   0.63928   0.00000  Uiso   1.00
C865   C     0.46839   0.66181   0.34636   0.00000  Uiso   1.00
H866   H     0.51139   0.66137   0.35635   0.00000  Uiso   1.00
H867   H     0.45815   0.64125   0.64925   0.00000  Uiso   1.00
H868   H     0.44891   0.64913   0.37452   0.00000  Uiso   1.00
C869   C     0.83355   0.42006   0.49989   0.00000  Uiso   1.00
C870   C     0.83382   0.57992   0.50031   0.00000  Uiso   1.00
C871   C     0.73402   0.50110   0.48843   0.00000  Uiso   1.00
C872   C     0.93261   0.49905   0.51150   0.00000  Uiso   1.00
C873   C     0.67968   0.50788   0.48371   0.00000  Uiso   1.00
C874   C     0.98679   0.49207   0.51588   0.00000  Uiso   1.00
C875   C     0.86288   0.35471   0.47085   0.00000  Uiso   1.00
C876   C     0.80727   0.64526   0.53119   0.00000  Uiso   1.00
C877   C     0.86272   0.64508   0.47087   0.00000  Uiso   1.00
C878   C     0.80674   0.35487   0.53063   0.00000  Uiso   1.00
C879   C     0.83472   0.62406   0.50090   0.00000  Uiso   1.00
C880   C     0.83416   0.37590   0.50016   0.00000  Uiso   1.00
C881   C     0.86282   0.52875   0.36158   0.00000  Uiso   1.00
C882   C     0.80082   0.47366   0.63791   0.00000  Uiso   1.00
C883   C     0.86542   0.52696   0.64682   0.00000  Uiso   1.00
C884   C     0.80345   0.47141   0.35298   0.00000  Uiso   1.00
H885   H     0.88541   0.37133   0.44837   0.00000  Uiso   1.00
H886   H     0.78550   0.62866   0.55430   0.00000  Uiso   1.00
H887   H     0.88472   0.62833   0.44803   0.00000  Uiso   1.00
H888   H     0.78450   0.37160   0.55332   0.00000  Uiso   1.00
N889   N     0.83332   0.49999   0.61907   0.00000  Uiso   1.00
N890   N     0.83335   0.50001   0.38093   0.00000  Uiso   1.00
O891   O     0.83333   0.43892   0.53821   0.00000  Uiso   1.00
O892   O     0.83334   0.56108   0.46179   0.00000  Uiso   1.00
O893   O     0.83333   0.43893   0.46176   0.00000  Uiso   1.00
O894   O     0.83334   0.56107   0.53824   0.00000  Uiso   1.00
O895   O     0.75725   0.50000   0.52928   0.00000  Uiso   1.00
O896   O     0.90942   0.50000   0.47072   0.00000  Uiso   1.00
O897   O     0.75725   0.50000   0.45284   0.00000  Uiso   1.00
O898   O     0.90942   0.50000   0.54716   0.00000  Uiso   1.00
Zn899  Zn    0.83333   0.49999   0.55104   0.00000  Uiso   1.00
Zn900  Zn    0.83333   0.50001   0.44896   0.00000  Uiso   1.00
O901   O     0.98950   0.53382   0.44983   0.00000  Uiso   1.00
H902   H     0.68286   0.54486   0.43189   0.00000  Uiso   1.00
O903   O     0.67661   0.46526   0.54890   0.00000  Uiso   1.00
H904   H     0.98322   0.45415   0.56677   0.00000  Uiso   1.00
O905   O     0.88917   0.55915   0.38943   0.00000  Uiso   1.00
H906   H     0.89864   0.58268   0.37055   0.00000  Uiso   1.00
O907   O     0.76541   0.45014   0.60895   0.00000  Uiso   1.00
H908   H     0.73664   0.44113   0.62563   0.00000  Uiso   1.00
O909   O     0.89737   0.55439   0.62721   0.00000  Uiso   1.00
C910   C     0.95004   0.54241   0.63841   0.00000  Uiso   1.00
H911   H     0.95556   0.50951   0.62725   0.00000  Uiso   1.00
H912   H     0.96301   0.54477   0.34232   0.00000  Uiso   1.00
C913   C     0.98469   0.57170   0.61467   0.00000  Uiso   1.00
H914   H     0.97201   0.57043   0.57737   0.00000  Uiso   1.00
H915   H     0.98043   0.60442   0.62677   0.00000  Uiso   1.00
C916   C     0.70869   0.55965   0.62425   0.00000  Uiso   1.00
H917   H     0.72276   0.56172   0.66129   0.00000  Uiso   1.00
H918   H     0.73263   0.58125   0.60624   0.00000  Uiso   1.00
H919   H     0.71377   0.52725   0.61187   0.00000  Uiso   1.00
O920   O     0.77303   0.44191   0.37147   0.00000  Uiso   1.00
C921   C     0.79921   0.40297   0.37595   0.00000  Uiso   1.00
H922   H     0.78666   0.38755   0.40601   0.00000  Uiso   1.00
H923   H     0.84261   0.40660   0.38240   0.00000  Uiso   1.00
C924   C     0.78375   0.37308   0.33530   0.00000  Uiso   1.00
H925   H     0.74065   0.37264   0.65918   0.00000  Uiso   1.00
H926   H     0.80260   0.38358   0.63928   0.00000  Uiso   1.00
C927   C     0.80173   0.66181   0.34636   0.00000  Uiso   1.00
H928   H     0.84473   0.66137   0.35635   0.00000  Uiso   1.00
H929   H     0.79148   0.64125   0.64925   0.00000  Uiso   1.00
H930   H     0.78224   0.64913   0.37452   0.00000  Uiso   1.00
C931   C     0.16688   0.75340   0.49989   0.00000  Uiso   1.00
C932   C     0.16715   0.91326   0.50031   0.00000  Uiso   1.00
C933   C     0.06735   0.83443   0.48843   0.00000  Uiso   1.00
C934   C     0.26594   0.83239   0.51150   0.00000  Uiso   1.00
C935   C     0.01301   0.84121   0.48371   0.00000  Uiso   1.00
C936   C     0.32012   0.82540   0.51588   0.00000  Uiso   1.00
C937   C     0.19622   0.68805   0.47085   0.00000  Uiso   1.00
C938   C     0.14060   0.97860   0.53119   0.00000  Uiso   1.00
C939   C     0.19606   0.97841   0.47087   0.00000  Uiso   1.00
C940   C     0.14007   0.68820   0.53063   0.00000  Uiso   1.00
C941   C     0.16806   0.95740   0.50090   0.00000  Uiso   1.00
C942   C     0.16749   0.70923   0.50016   0.00000  Uiso   1.00
C943   C     0.19615   0.86208   0.36158   0.00000  Uiso   1.00
C944   C     0.13415   0.80699   0.63791   0.00000  Uiso   1.00
C945   C     0.19875   0.86029   0.64682   0.00000  Uiso   1.00
C946   C     0.13678   0.80475   0.35298   0.00000  Uiso   1.00
H947   H     0.21874   0.70467   0.44837   0.00000  Uiso   1.00
H948   H     0.11883   0.96200   0.55430   0.00000  Uiso   1.00
H949   H     0.21806   0.96167   0.44803   0.00000  Uiso   1.00
H950   H     0.11783   0.70493   0.55332   0.00000  Uiso   1.00
N951   N     0.16665   0.83332   0.61907   0.00000  Uiso   1.00
N952   N     0.16668   0.83334   0.38093   0.00000  Uiso   1.00
O953   O     0.16666   0.77225   0.53821   0.00000  Uiso   1.00
O954   O     0.16667   0.89442   0.46179   0.00000  Uiso   1.00
O955   O     0.16666   0.77226   0.46176   0.00000  Uiso   1.00
O956   O     0.16667   0.89441   0.53824   0.00000  Uiso   1.00
O957   O     0.09058   0.83333   0.52928   0.00000  Uiso   1.00
O958   O     0.24275   0.83334   0.47072   0.00000  Uiso   1.00
O959   O     0.09058   0.83334   0.45284   0.00000  Uiso   1.00
O960   O     0.24275   0.83333   0.54716   0.00000  Uiso   1.00
Zn961  Zn    0.16667   0.83333   0.55104   0.00000  Uiso   1.00
Zn962  Zn    0.16667   0.83334   0.44896   0.00000  Uiso   1.00
O963   O     0.32283   0.86715   0.44983   0.00000  Uiso   1.00
H964   H     0.01619   0.87819   0.43189   0.00000  Uiso   1.00
O965   O     0.00994   0.79859   0.54890   0.00000  Uiso   1.00
H966   H     0.31655   0.78749   0.56677   0.00000  Uiso   1.00
O967   O     0.22251   0.89249   0.38943   0.00000  Uiso   1.00
H968   H     0.23197   0.91601   0.37055   0.00000  Uiso   1.00
O969   O     0.09874   0.78347   0.60895   0.00000  Uiso   1.00
H970   H     0.06998   0.77446   0.62563   0.00000  Uiso   1.00
O971   O     0.23071   0.88773   0.62721   0.00000  Uiso   1.00
C972   C     0.28338   0.87574   0.63841   0.00000  Uiso   1.00
H973   H     0.28889   0.84284   0.62725   0.00000  Uiso   1.00
H974   H     0.29634   0.87810   0.34232   0.00000  Uiso   1.00
C975   C     0.31802   0.90503   0.61467   0.00000  Uiso   1.00
H976   H     0.30534   0.90377   0.57737   0.00000  Uiso   1.00
H977   H     0.31377   0.93775   0.62677   0.00000  Uiso   1.00
C978   C     0.04202   0.89298   0.62425   0.00000  Uiso   1.00
H979   H     0.05609   0.89505   0.66129   0.00000  Uiso   1.00
H980   H     0.06596   0.91458   0.60624   0.00000  Uiso   1.00
H981   H     0.04710   0.86058   0.61187   0.00000  Uiso   1.00
O982   O     0.10636   0.77524   0.37147   0.00000  Uiso   1.00
C983   C     0.13254   0.73630   0.37595   0.00000  Uiso   1.00
H984   H     0.12000   0.72089   0.40601   0.00000  Uiso   1.00
H985   H     0.17594   0.73993   0.38240   0.00000  Uiso   1.00
C986   C     0.11708   0.70641   0.33530   0.00000  Uiso   1.00
H987   H     0.07398   0.70597   0.65918   0.00000  Uiso   1.00
H988   H     0.13593   0.71691   0.63928   0.00000  Uiso   1.00
C989   C     0.13506   0.99514   0.34636   0.00000  Uiso   1.00
H990   H     0.17806   0.99470   0.35635   0.00000  Uiso   1.00
H991   H     0.12482   0.97458   0.64925   0.00000  Uiso   1.00
H992   H     0.11558   0.98246   0.37452   0.00000  Uiso   1.00
C993   C     0.50022   0.75340   0.49989   0.00000  Uiso   1.00
C994   C     0.50048   0.91326   0.50031   0.00000  Uiso   1.00
C995   C     0.40068   0.83443   0.48843   0.00000  Uiso   1.00
C996   C     0.59928   0.83239   0.51150   0.00000  Uiso   1.00
C997   C     0.34634   0.84121   0.48371   0.00000  Uiso   1.00
C998   C     0.65346   0.82540   0.51588   0.00000  Uiso   1.00
C999   C     0.52955   0.68805   0.47085   0.00000  Uiso   1.00
C1000  C     0.47393   0.97860   0.53119   0.00000  Uiso   1.00
C1001  C     0.52939   0.97841   0.47087   0.00000  Uiso   1.00
C1002  C     0.47340   0.68820   0.53063   0.00000  Uiso   1.00
C1003  C     0.50139   0.95740   0.50090   0.00000  Uiso   1.00
C1004  C     0.50082   0.70923   0.50016   0.00000  Uiso   1.00
C1005  C     0.52948   0.86208   0.36158   0.00000  Uiso   1.00
C1006  C     0.46749   0.80699   0.63791   0.00000  Uiso   1.00
C1007  C     0.53209   0.86029   0.64682   0.00000  Uiso   1.00
C1008  C     0.47012   0.80475   0.35298   0.00000  Uiso   1.00
H1009  H     0.55208   0.70467   0.44837   0.00000  Uiso   1.00
H1010  H     0.45216   0.96200   0.55430   0.00000  Uiso   1.00
H1011  H     0.55139   0.96167   0.44803   0.00000  Uiso   1.00
H1012  H     0.45116   0.70493   0.55332   0.00000  Uiso   1.00
N1013  N     0.49999   0.83332   0.61907   0.00000  Uiso   1.00
N1014  N     0.50001   0.83334   0.38093   0.00000  Uiso   1.00
O1015  O     0.50000   0.77225   0.53821   0.00000  Uiso   1.00
O1016  O     0.50000   0.89442   0.46179   0.00000  Uiso   1.00
O1017  O     0.50000   0.77226   0.46176   0.00000  Uiso   1.00
O1018  O     0.50000   0.89441   0.53824   0.00000  Uiso   1.00
O1019  O     0.42392   0.83333   0.52928   0.00000  Uiso   1.00
O1020  O     0.57608   0.83334   0.47072   0.00000  Uiso   1.00
O1021  O     0.42392   0.83334   0.45284   0.00000  Uiso   1.00
O1022  O     0.57608   0.83333   0.54716   0.00000  Uiso   1.00
Zn1023 Zn    0.50000   0.83333   0.55104   0.00000  Uiso   1.00
Zn1024 Zn    0.50000   0.83334   0.44896   0.00000  Uiso   1.00
O1025  O     0.65617   0.86715   0.44983   0.00000  Uiso   1.00
H1026  H     0.34952   0.87819   0.43189   0.00000  Uiso   1.00
O1027  O     0.34327   0.79859   0.54890   0.00000  Uiso   1.00
H1028  H     0.64989   0.78749   0.56677   0.00000  Uiso   1.00
O1029  O     0.55584   0.89249   0.38943   0.00000  Uiso   1.00
H1030  H     0.56531   0.91601   0.37055   0.00000  Uiso   1.00
O1031  O     0.43208   0.78347   0.60895   0.00000  Uiso   1.00
H1032  H     0.40331   0.77446   0.62563   0.00000  Uiso   1.00
O1033  O     0.56404   0.88773   0.62721   0.00000  Uiso   1.00
C1034  C     0.61671   0.87574   0.63841   0.00000  Uiso   1.00
H1035  H     0.62222   0.84284   0.62725   0.00000  Uiso   1.00
H1036  H     0.62967   0.87810   0.34232   0.00000  Uiso   1.00
C1037  C     0.65135   0.90503   0.61467   0.00000  Uiso   1.00
H1038  H     0.63867   0.90377   0.57737   0.00000  Uiso   1.00
H1039  H     0.64710   0.93775   0.62677   0.00000  Uiso   1.00
C1040  C     0.37535   0.89298   0.62425   0.00000  Uiso   1.00
H1041  H     0.38942   0.89505   0.66129   0.00000  Uiso   1.00
H1042  H     0.39929   0.91458   0.60624   0.00000  Uiso   1.00
H1043  H     0.38044   0.86058   0.61187   0.00000  Uiso   1.00
O1044  O     0.43969   0.77524   0.37147   0.00000  Uiso   1.00
C1045  C     0.46587   0.73630   0.37595   0.00000  Uiso   1.00
H1046  H     0.45333   0.72089   0.40601   0.00000  Uiso   1.00
H1047  H     0.50928   0.73993   0.38240   0.00000  Uiso   1.00
C1048  C     0.45042   0.70641   0.33530   0.00000  Uiso   1.00
H1049  H     0.40731   0.70597   0.65918   0.00000  Uiso   1.00
H1050  H     0.46927   0.71691   0.63928   0.00000  Uiso   1.00
C1051  C     0.46839   0.99514   0.34636   0.00000  Uiso   1.00
H1052  H     0.51139   0.99470   0.35635   0.00000  Uiso   1.00
H1053  H     0.45815   0.97458   0.64925   0.00000  Uiso   1.00
H1054  H     0.44891   0.98246   0.37452   0.00000  Uiso   1.00
C1055  C     0.83355   0.75340   0.49989   0.00000  Uiso   1.00
C1056  C     0.83382   0.91326   0.50031   0.00000  Uiso   1.00
C1057  C     0.73402   0.83443   0.48843   0.00000  Uiso   1.00
C1058  C     0.93261   0.83239   0.51150   0.00000  Uiso   1.00
C1059  C     0.67968   0.84121   0.48371   0.00000  Uiso   1.00
C1060  C     0.98679   0.82540   0.51588   0.00000  Uiso   1.00
C1061  C     0.86288   0.68805   0.47085   0.00000  Uiso   1.00
C1062  C     0.80727   0.97860   0.53119   0.00000  Uiso   1.00
C1063  C     0.86272   0.97841   0.47087   0.00000  Uiso   1.00
C1064  C     0.80674   0.68820   0.53063   0.00000  Uiso   1.00
C1065  C     0.83472   0.95740   0.50090   0.00000  Uiso   1.00
C1066  C     0.83416   0.70923   0.50016   0.00000  Uiso   1.00
C1067  C     0.86282   0.86208   0.36158   0.00000  Uiso   1.00
C1068  C     0.80082   0.80699   0.63791   0.00000  Uiso   1.00
C1069  C     0.86542   0.86029   0.64682   0.00000  Uiso   1.00
C1070  C     0.80345   0.80475   0.35298   0.00000  Uiso   1.00
H1071  H     0.88541   0.70467   0.44837   0.00000  Uiso   1.00
H1072  H     0.78550   0.96200   0.55430   0.00000  Uiso   1.00
H1073  H     0.88472   0.96167   0.44803   0.00000  Uiso   1.00
H1074  H     0.78450   0.70493   0.55332   0.00000  Uiso   1.00
N1075  N     0.83332   0.83332   0.61907   0.00000  Uiso   1.00
N1076  N     0.83335   0.83334   0.38093   0.00000  Uiso   1.00
O1077  O     0.83333   0.77225   0.53821   0.00000  Uiso   1.00
O1078  O     0.83334   0.89442   0.46179   0.00000  Uiso   1.00
O1079  O     0.83333   0.77226   0.46176   0.00000  Uiso   1.00
O1080  O     0.83334   0.89441   0.53824   0.00000  Uiso   1.00
O1081  O     0.75725   0.83333   0.52928   0.00000  Uiso   1.00
O1082  O     0.90942   0.83334   0.47072   0.00000  Uiso   1.00
O1083  O     0.75725   0.83334   0.45284   0.00000  Uiso   1.00
O1084  O     0.90942   0.83333   0.54716   0.00000  Uiso   1.00
Zn1085 Zn    0.83333   0.83333   0.55104   0.00000  Uiso   1.00
Zn1086 Zn    0.83333   0.83334   0.44896   0.00000  Uiso   1.00
O1087  O     0.98950   0.86715   0.44983   0.00000  Uiso   1.00
H1088  H     0.68286   0.87819   0.43189   0.00000  Uiso   1.00
O1089  O     0.67661   0.79859   0.54890   0.00000  Uiso   1.00
H1090  H     0.98322   0.78749   0.56677   0.00000  Uiso   1.00
O1091  O     0.88917   0.89249   0.38943   0.00000  Uiso   1.00
H1092  H     0.89864   0.91601   0.37055   0.00000  Uiso   1.00
O1093  O     0.76541   0.78347   0.60895   0.00000  Uiso   1.00
H1094  H     0.73664   0.77446   0.62563   0.00000  Uiso   1.00
O1095  O     0.89737   0.88773   0.62721   0.00000  Uiso   1.00
C1096  C     0.95004   0.87574   0.63841   0.00000  Uiso   1.00
H1097  H     0.95556   0.84284   0.62725   0.00000  Uiso   1.00
H1098  H     0.96301   0.87810   0.34232   0.00000  Uiso   1.00
C1099  C     0.98469   0.90503   0.61467   0.00000  Uiso   1.00
H1100  H     0.97201   0.90377   0.57737   0.00000  Uiso   1.00
H1101  H     0.98043   0.93775   0.62677   0.00000  Uiso   1.00
C1102  C     0.70869   0.89298   0.62425   0.00000  Uiso   1.00
H1103  H     0.72276   0.89505   0.66129   0.00000  Uiso   1.00
H1104  H     0.73263   0.91458   0.60624   0.00000  Uiso   1.00
H1105  H     0.71377   0.86058   0.61187   0.00000  Uiso   1.00
O1106  O     0.77303   0.77524   0.37147   0.00000  Uiso   1.00
C1107  C     0.79921   0.73630   0.37595   0.00000  Uiso   1.00
H1108  H     0.78666   0.72089   0.40601   0.00000  Uiso   1.00
H1109  H     0.84261   0.73993   0.38240   0.00000  Uiso   1.00
C1110  C     0.78375   0.70641   0.33530   0.00000  Uiso   1.00
H1111  H     0.74065   0.70597   0.65918   0.00000  Uiso   1.00
H1112  H     0.80260   0.71691   0.63928   0.00000  Uiso   1.00
C1113  C     0.80173   0.99514   0.34636   0.00000  Uiso   1.00
H1114  H     0.84473   0.99470   0.35635   0.00000  Uiso   1.00
H1115  H     0.79148   0.97458   0.64925   0.00000  Uiso   1.00
H1116  H     0.78224   0.98246   0.37452   0.00000  Uiso   1.00
C1117  C     0.16688   0.08673   0.83322   0.00000  Uiso   1.00
C1118  C     0.16715   0.24659   0.83364   0.00000  Uiso   1.00
C1119  C     0.06735   0.16777   0.82176   0.00000  Uiso   1.00
C1120  C     0.26594   0.16572   0.84483   0.00000  Uiso   1.00
C1121  C     0.01301   0.17454   0.81704   0.00000  Uiso   1.00
C1122  C     0.32012   0.15873   0.84921   0.00000  Uiso   1.00
C1123  C     0.19622   0.02138   0.80419   0.00000  Uiso   1.00
C1124  C     0.14060   0.31193   0.86452   0.00000  Uiso   1.00
C1125  C     0.19606   0.31175   0.80420   0.00000  Uiso   1.00
C1126  C     0.14007   0.02154   0.86396   0.00000  Uiso   1.00
C1127  C     0.16806   0.29073   0.83423   0.00000  Uiso   1.00
C1128  C     0.16749   0.04257   0.83349   0.00000  Uiso   1.00
C1129  C     0.19615   0.19541   0.69491   0.00000  Uiso   1.00
C1130  C     0.13415   0.14032   0.97124   0.00000  Uiso   1.00
C1131  C     0.19875   0.19362   0.98015   0.00000  Uiso   1.00
C1132  C     0.13678   0.13808   0.68631   0.00000  Uiso   1.00
H1133  H     0.21874   0.03800   0.78170   0.00000  Uiso   1.00
H1134  H     0.11883   0.29533   0.88763   0.00000  Uiso   1.00
H1135  H     0.21806   0.29500   0.78137   0.00000  Uiso   1.00
H1136  H     0.11783   0.03826   0.88665   0.00000  Uiso   1.00
N1137  N     0.16665   0.16666   0.95240   0.00000  Uiso   1.00
N1138  N     0.16668   0.16668   0.71427   0.00000  Uiso   1.00
O1139  O     0.16666   0.10558   0.87154   0.00000  Uiso   1.00
O1140  O     0.16667   0.22775   0.79513   0.00000  Uiso   1.00
O1141  O     0.16666   0.10559   0.79510   0.00000  Uiso   1.00
O1142  O     0.16667   0.22774   0.87157   0.00000  Uiso   1.00
O1143  O     0.09058   0.16666   0.86261   0.00000  Uiso   1.00
O1144  O     0.24275   0.16667   0.80405   0.00000  Uiso   1.00
O1145  O     0.09058   0.16667   0.78617   0.00000  Uiso   1.00
O1146  O     0.24275   0.16666   0.88050   0.00000  Uiso   1.00
Zn1147 Zn    0.16667   0.16666   0.88437   0.00000  Uiso   1.00
Zn1148 Zn    0.16667   0.16667   0.78229   0.00000  Uiso   1.00
O1149  O     0.32283   0.20049   0.78317   0.00000  Uiso   1.00
H1150  H     0.01619   0.21153   0.76522   0.00000  Uiso   1.00
O1151  O     0.00994   0.13193   0.88223   0.00000  Uiso   1.00
H1152  H     0.31655   0.12082   0.90010   0.00000  Uiso   1.00
O1153  O     0.22251   0.22582   0.72277   0.00000  Uiso   1.00
H1154  H     0.23197   0.24935   0.70388   0.00000  Uiso   1.00
O1155  O     0.09874   0.11681   0.94228   0.00000  Uiso   1.00
H1156  H     0.06998   0.10779   0.95896   0.00000  Uiso   1.00
O1157  O     0.23071   0.22106   0.96054   0.00000  Uiso   1.00
C1158  C     0.28338   0.20908   0.97175   0.00000  Uiso   1.00
H1159  H     0.28889   0.17618   0.96059   0.00000  Uiso   1.00
H1160  H     0.29634   0.21143   0.67566   0.00000  Uiso   1.00
C1161  C     0.31802   0.23836   0.94801   0.00000  Uiso   1.00
H1162  H     0.30534   0.23710   0.91070   0.00000  Uiso   1.00
H1163  H     0.31377   0.27108   0.96010   0.00000  Uiso   1.00
C1164  C     0.04202   0.22631   0.95758   0.00000  Uiso   1.00
H1165  H     0.05609   0.22838   0.99463   0.00000  Uiso   1.00
H1166  H     0.06596   0.24791   0.93957   0.00000  Uiso   1.00
H1167  H     0.04710   0.19391   0.94520   0.00000  Uiso   1.00
O1168  O     0.10636   0.10857   0.70480   0.00000  Uiso   1.00
C1169  C     0.13254   0.06963   0.70928   0.00000  Uiso   1.00
H1170  H     0.12000   0.05422   0.73935   0.00000  Uiso   1.00
H1171  H     0.17594   0.07326   0.71574   0.00000  Uiso   1.00
C1172  C     0.11708   0.03975   0.66864   0.00000  Uiso   1.00
H1173  H     0.07398   0.03930   0.99251   0.00000  Uiso   1.00
H1174  H     0.13593   0.05025   0.97261   0.00000  Uiso   1.00
C1175  C     0.13506   0.32847   0.67969   0.00000  Uiso   1.00
H1176  H     0.17806   0.32803   0.68968   0.00000  Uiso   1.00
H1177  H     0.12482   0.30792   0.98258   0.00000  Uiso   1.00
H1178  H     0.11558   0.31580   0.70785   0.00000  Uiso   1.00
C1179  C     0.50022   0.08673   0.83322   0.00000  Uiso   1.00
C1180  C     0.50048   0.24659   0.83364   0.00000  Uiso   1.00
C1181  C     0.40068   0.16777   0.82176   0.00000  Uiso   1.00
C1182  C     0.59928   0.16572   0.84483   0.00000  Uiso   1.00
C1183  C     0.34634   0.17454   0.81704   0.00000  Uiso   1.00
C1184  C     0.65346   0.15873   0.84921   0.00000  Uiso   1.00
C1185  C     0.52955   0.02138   0.80419   0.00000  Uiso   1.00
C1186  C     0.47393   0.31193   0.86452   0.00000  Uiso   1.00
C1187  C     0.52939   0.31175   0.80420   0.00000  Uiso   1.00
C1188  C     0.47340   0.02154   0.86396   0.00000  Uiso   1.00
C1189  C     0.50139   0.29073   0.83423   0.00000  Uiso   1.00
C1190  C     0.50082   0.04257   0.83349   0.00000  Uiso   1.00
C1191  C     0.52948   0.19541   0.69491   0.00000  Uiso   1.00
C1192  C     0.46749   0.14032   0.97124   0.00000  Uiso   1.00
C1193  C     0.53209   0.19362   0.98015   0.00000  Uiso   1.00
C1194  C     0.47012   0.13808   0.68631   0.00000  Uiso   1.00
H1195  H     0.55208   0.03800   0.78170   0.00000  Uiso   1.00
H1196  H     0.45216   0.29533   0.88763   0.00000  Uiso   1.00
H1197  H     0.55139   0.29500   0.78137   0.00000  Uiso   1.00
H1198  H     0.45116   0.03826   0.88665   0.00000  Uiso   1.00
N1199  N     0.49999   0.16666   0.95240   0.00000  Uiso   1.00
N1200  N     0.50001   0.16668   0.71427   0.00000  Uiso   1.00
O1201  O     0.50000   0.10558   0.87154   0.00000  Uiso   1.00
O1202  O     0.50000   0.22775   0.79513   0.00000  Uiso   1.00
O1203  O     0.50000   0.10559   0.79510   0.00000  Uiso   1.00
O1204  O     0.50000   0.22774   0.87157   0.00000  Uiso   1.00
O1205  O     0.42392   0.16666   0.86261   0.00000  Uiso   1.00
O1206  O     0.57608   0.16667   0.80405   0.00000  Uiso   1.00
O1207  O     0.42392   0.16667   0.78617   0.00000  Uiso   1.00
O1208  O     0.57608   0.16666   0.88050   0.00000  Uiso   1.00
Zn1209 Zn    0.50000   0.16666   0.88437   0.00000  Uiso   1.00
Zn1210 Zn    0.50000   0.16667   0.78229   0.00000  Uiso   1.00
O1211  O     0.65617   0.20049   0.78317   0.00000  Uiso   1.00
H1212  H     0.34952   0.21153   0.76522   0.00000  Uiso   1.00
O1213  O     0.34327   0.13193   0.88223   0.00000  Uiso   1.00
H1214  H     0.64989   0.12082   0.90010   0.00000  Uiso   1.00
O1215  O     0.55584   0.22582   0.72277   0.00000  Uiso   1.00
H1216  H     0.56531   0.24935   0.70388   0.00000  Uiso   1.00
O1217  O     0.43208   0.11681   0.94228   0.00000  Uiso   1.00
H1218  H     0.40331   0.10779   0.95896   0.00000  Uiso   1.00
O1219  O     0.56404   0.22106   0.96054   0.00000  Uiso   1.00
C1220  C     0.61671   0.20908   0.97175   0.00000  Uiso   1.00
H1221  H     0.62222   0.17618   0.96059   0.00000  Uiso   1.00
H1222  H     0.62967   0.21143   0.67566   0.00000  Uiso   1.00
C1223  C     0.65135   0.23836   0.94801   0.00000  Uiso   1.00
H1224  H     0.63867   0.23710   0.91070   0.00000  Uiso   1.00
H1225  H     0.64710   0.27108   0.96010   0.00000  Uiso   1.00
C1226  C     0.37535   0.22631   0.95758   0.00000  Uiso   1.00
H1227  H     0.38942   0.22838   0.99463   0.00000  Uiso   1.00
H1228  H     0.39929   0.24791   0.93957   0.00000  Uiso   1.00
H1229  H     0.38044   0.19391   0.94520   0.00000  Uiso   1.00
O1230  O     0.43969   0.10857   0.70480   0.00000  Uiso   1.00
C1231  C     0.46587   0.06963   0.70928   0.00000  Uiso   1.00
H1232  H     0.45333   0.05422   0.73935   0.00000  Uiso   1.00
H1233  H     0.50928   0.07326   0.71574   0.00000  Uiso   1.00
C1234  C     0.45042   0.03975   0.66864   0.00000  Uiso   1.00
H1235  H     0.40731   0.03930   0.99251   0.00000  Uiso   1.00
H1236  H     0.46927   0.05025   0.97261   0.00000  Uiso   1.00
C1237  C     0.46839   0.32847   0.67969   0.00000  Uiso   1.00
H1238  H     0.51139   0.32803   0.68968   0.00000  Uiso   1.00
H1239  H     0.45815   0.30792   0.98258   0.00000  Uiso   1.00
H1240  H     0.44891   0.31580   0.70785   0.00000  Uiso   1.00
C1241  C     0.83355   0.08673   0.83322   0.00000  Uiso   1.00
C1242  C     0.83382   0.24659   0.83364   0.00000  Uiso   1.00
C1243  C     0.73402   0.16777   0.82176   0.00000  Uiso   1.00
C1244  C     0.93261   0.16572   0.84483   0.00000  Uiso   1.00
C1245  C     0.67968   0.17454   0.81704   0.00000  Uiso   1.00
C1246  C     0.98679   0.15873   0.84921   0.00000  Uiso   1.00
C1247  C     0.86288   0.02138   0.80419   0.00000  Uiso   1.00
C1248  C     0.80727   0.31193   0.86452   0.00000  Uiso   1.00
C1249  C     0.86272   0.31175   0.80420   0.00000  Uiso   1.00
C1250  C     0.80674   0.02154   0.86396   0.00000  Uiso   1.00
C1251  C     0.83472   0.29073   0.83423   0.00000  Uiso   1.00
C1252  C     0.83416   0.04257   0.83349   0.00000  Uiso   1.00
C1253  C     0.86282   0.19541   0.69491   0.00000  Uiso   1.00
C1254  C     0.80082   0.14032   0.97124   0.00000  Uiso   1.00
C1255  C     0.86542   0.19362   0.98015   0.00000  Uiso   1.00
C1256  C     0.80345   0.13808   0.68631   0.00000  Uiso   1.00
H1257  H     0.88541   0.03800   0.78170   0.00000  Uiso   1.00
H1258  H     0.78550   0.29533   0.88763   0.00000  Uiso   1.00
H1259  H     0.88472   0.29500   0.78137   0.00000  Uiso   1.00
H1260  H     0.78450   0.03826   0.88665   0.00000  Uiso   1.00
N1261  N     0.83332   0.16666   0.95240   0.00000  Uiso   1.00
N1262  N     0.83335   0.16668   0.71427   0.00000  Uiso   1.00
O1263  O     0.83333   0.10558   0.87154   0.00000  Uiso   1.00
O1264  O     0.83334   0.22775   0.79513   0.00000  Uiso   1.00
O1265  O     0.83333   0.10559   0.79510   0.00000  Uiso   1.00
O1266  O     0.83334   0.22774   0.87157   0.00000  Uiso   1.00
O1267  O     0.75725   0.16666   0.86261   0.00000  Uiso   1.00
O1268  O     0.90942   0.16667   0.80405   0.00000  Uiso   1.00
O1269  O     0.75725   0.16667   0.78617   0.00000  Uiso   1.00
O1270  O     0.90942   0.16666   0.88050   0.00000  Uiso   1.00
Zn1271 Zn    0.83333   0.16666   0.88437   0.00000  Uiso   1.00
Zn1272 Zn    0.83333   0.16667   0.78229   0.00000  Uiso   1.00
O1273  O     0.98950   0.20049   0.78317   0.00000  Uiso   1.00
H1274  H     0.68286   0.21153   0.76522   0.00000  Uiso   1.00
O1275  O     0.67661   0.13193   0.88223   0.00000  Uiso   1.00
H1276  H     0.98322   0.12082   0.90010   0.00000  Uiso   1.00
O1277  O     0.88917   0.22582   0.72277   0.00000  Uiso   1.00
H1278  H     0.89864   0.24935   0.70388   0.00000  Uiso   1.00
O1279  O     0.76541   0.11681   0.94228   0.00000  Uiso   1.00
H1280  H     0.73664   0.10779   0.95896   0.00000  Uiso   1.00
O1281  O     0.89737   0.22106   0.96054   0.00000  Uiso   1.00
C1282  C     0.95004   0.20908   0.97175   0.00000  Uiso   1.00
H1283  H     0.95556   0.17618   0.96059   0.00000  Uiso   1.00
H1284  H     0.96301   0.21143   0.67566   0.00000  Uiso   1.00
C1285  C     0.98469   0.23836   0.94801   0.00000  Uiso   1.00
H1286  H     0.97201   0.23710   0.91070   0.00000  Uiso   1.00
H1287  H     0.98043   0.27108   0.96010   0.00000  Uiso   1.00
C1288  C     0.70869   0.22631   0.95758   0.00000  Uiso   1.00
H1289  H     0.72276   0.22838   0.99463   0.00000  Uiso   1.00
H1290  H     0.73263   0.24791   0.93957   0.00000  Uiso   1.00
H1291  H     0.71377   0.19391   0.94520   0.00000  Uiso   1.00
O1292  O     0.77303   0.10857   0.70480   0.00000  Uiso   1.00
C1293  C     0.79921   0.06963   0.70928   0.00000  Uiso   1.00
H1294  H     0.78666   0.05422   0.73935   0.00000  Uiso   1.00
H1295  H     0.84261   0.07326   0.71574   0.00000  Uiso   1.00
C1296  C     0.78375   0.03975   0.66864   0.00000  Uiso   1.00
H1297  H     0.74065   0.03930   0.99251   0.00000  Uiso   1.00
H1298  H     0.80260   0.05025   0.97261   0.00000  Uiso   1.00
C1299  C     0.80173   0.32847   0.67969   0.00000  Uiso   1.00
H1300  H     0.84473   0.32803   0.68968   0.00000  Uiso   1.00
H1301  H     0.79148   0.30792   0.98258   0.00000  Uiso   1.00
H1302  H     0.78224   0.31580   0.70785   0.00000  Uiso   1.00
C1303  C     0.16688   0.42006   0.83322   0.00000  Uiso   1.00
C1304  C     0.16715   0.57992   0.83364   0.00000  Uiso   1.00
C1305  C     0.06735   0.50110   0.82176   0.00000  Uiso   1.00
C1306  C     0.26594   0.49905   0.84483   0.00000  Uiso   1.00
C1307  C     0.01301   0.50788   0.81704   0.00000  Uiso   1.00
C1308  C     0.32012   0.49207   0.84921   0.00000  Uiso   1.00
C1309  C     0.19622   0.35471   0.80419   0.00000  Uiso   1.00
C1310  C     0.14060   0.64526   0.86452   0.00000  Uiso   1.00
C1311  C     0.19606   0.64508   0.80420   0.00000  Uiso   1.00
C1312  C     0.14007   0.35487   0.86396   0.00000  Uiso   1.00
C1313  C     0.16806   0.62406   0.83423   0.00000  Uiso   1.00
C1314  C     0.16749   0.37590   0.83349   0.00000  Uiso   1.00
C1315  C     0.19615   0.52875   0.69491   0.00000  Uiso   1.00
C1316  C     0.13415   0.47366   0.97124   0.00000  Uiso   1.00
C1317  C     0.19875   0.52696   0.98015   0.00000  Uiso   1.00
C1318  C     0.13678   0.47141   0.68631   0.00000  Uiso   1.00
H1319  H     0.21874   0.37133   0.78170   0.00000  Uiso   1.00
H1320  H     0.11883   0.62866   0.88763   0.00000  Uiso   1.00
H1321  H     0.21806   0.62833   0.78137   0.00000  Uiso   1.00
H1322  H     0.11783   0.37160   0.88665   0.00000  Uiso   1.00
N1323  N     0.16665   0.49999   0.95240   0.00000  Uiso   1.00
N1324  N     0.16668   0.50001   0.71427   0.00000  Uiso   1.00
O1325  O     0.16666   0.43892   0.87154   0.00000  Uiso   1.00
O1326  O     0.16667   0.56108   0.79513   0.00000  Uiso   1.00
O1327  O     0.16666   0.43893   0.79510   0.00000  Uiso   1.00
O1328  O     0.16667   0.56107   0.87157   0.00000  Uiso   1.00
O1329  O     0.09058   0.50000   0.86261   0.00000  Uiso   1.00
O1330  O     0.24275   0.50000   0.80405   0.00000  Uiso   1.00
O1331  O     0.09058   0.50000   0.78617   0.00000  Uiso   1.00
O1332  O     0.24275   0.50000   0.88050   0.00000  Uiso   1.00
Zn1333 Zn    0.16667   0.49999   0.88437   0.00000  Uiso   1.00
Zn1334 Zn    0.16667   0.50001   0.78229   0.00000  Uiso   1.00
O1335  O     0.32283   0.53382   0.78317   0.00000  Uiso   1.00
H1336  H     0.01619   0.54486   0.76522   0.00000  Uiso   1.00
O1337  O     0.00994   0.46526   0.88223   0.00000  Uiso   1.00
H1338  H     0.31655   0.45415   0.90010   0.00000  Uiso   1.00
O1339  O     0.22251   0.55915   0.72277   0.00000  Uiso   1.00
H1340  H     0.23197   0.58268   0.70388   0.00000  Uiso   1.00
O1341  O     0.09874   0.45014   0.94228   0.00000  Uiso   1.00
H1342  H     0.06998   0.44113   0.95896   0.00000  Uiso   1.00
O1343  O     0.23071   0.55439   0.96054   0.00000  Uiso   1.00
C1344  C     0.28338   0.54241   0.97175   0.00000  Uiso   1.00
H1345  H     0.28889   0.50951   0.96059   0.00000  Uiso   1.00
H1346  H     0.29634   0.54477   0.67566   0.00000  Uiso   1.00
C1347  C     0.31802   0.57170   0.94801   0.00000  Uiso   1.00
H1348  H     0.30534   0.57043   0.91070   0.00000  Uiso   1.00
H1349  H     0.31377   0.60442   0.96010   0.00000  Uiso   1.00
C1350  C     0.04202   0.55965   0.95758   0.00000  Uiso   1.00
H1351  H     0.05609   0.56172   0.99463   0.00000  Uiso   1.00
H1352  H     0.06596   0.58125   0.93957   0.00000  Uiso   1.00
H1353  H     0.04710   0.52725   0.94520   0.00000  Uiso   1.00
O1354  O     0.10636   0.44191   0.70480   0.00000  Uiso   1.00
C1355  C     0.13254   0.40297   0.70928   0.00000  Uiso   1.00
H1356  H     0.12000   0.38755   0.73935   0.00000  Uiso   1.00
H1357  H     0.17594   0.40660   0.71574   0.00000  Uiso   1.00
C1358  C     0.11708   0.37308   0.66864   0.00000  Uiso   1.00
H1359  H     0.07398   0.37264   0.99251   0.00000  Uiso   1.00
H1360  H     0.13593   0.38358   0.97261   0.00000  Uiso   1.00
C1361  C     0.13506   0.66181   0.67969   0.00000  Uiso   1.00
H1362  H     0.17806   0.66137   0.68968   0.00000  Uiso   1.00
H1363  H     0.12482   0.64125   0.98258   0.00000  Uiso   1.00
H1364  H     0.11558   0.64913   0.70785   0.00000  Uiso   1.00
C1365  C     0.50022   0.42006   0.83322   0.00000  Uiso   1.00
C1366  C     0.50048   0.57992   0.83364   0.00000  Uiso   1.00
C1367  C     0.40068   0.50110   0.82176   0.00000  Uiso   1.00
C1368  C     0.59928   0.49905   0.84483   0.00000  Uiso   1.00
C1369  C     0.34634   0.50788   0.81704   0.00000  Uiso   1.00
C1370  C     0.65346   0.49207   0.84921   0.00000  Uiso   1.00
C1371  C     0.52955   0.35471   0.80419   0.00000  Uiso   1.00
C1372  C     0.47393   0.64526   0.86452   0.00000  Uiso   1.00
C1373  C     0.52939   0.64508   0.80420   0.00000  Uiso   1.00
C1374  C     0.47340   0.35487   0.86396   0.00000  Uiso   1.00
C1375  C     0.50139   0.62406   0.83423   0.00000  Uiso   1.00
C1376  C     0.50082   0.37590   0.83349   0.00000  Uiso   1.00
C1377  C     0.52948   0.52875   0.69491   0.00000  Uiso   1.00
C1378  C     0.46749   0.47366   0.97124   0.00000  Uiso   1.00
C1379  C     0.53209   0.52696   0.98015   0.00000  Uiso   1.00
C1380  C     0.47012   0.47141   0.68631   0.00000  Uiso   1.00
H1381  H     0.55208   0.37133   0.78170   0.00000  Uiso   1.00
H1382  H     0.45216   0.62866   0.88763   0.00000  Uiso   1.00
H1383  H     0.55139   0.62833   0.78137   0.00000  Uiso   1.00
H1384  H     0.45116   0.37160   0.88665   0.00000  Uiso   1.00
N1385  N     0.49999   0.49999   0.95240   0.00000  Uiso   1.00
N1386  N     0.50001   0.50001   0.71427   0.00000  Uiso   1.00
O1387  O     0.50000   0.43892   0.87154   0.00000  Uiso   1.00
O1388  O     0.50000   0.56108   0.79513   0.00000  Uiso   1.00
O1389  O     0.50000   0.43893   0.79510   0.00000  Uiso   1.00
O1390  O     0.50000   0.56107   0.87157   0.00000  Uiso   1.00
O1391  O     0.42392   0.50000   0.86261   0.00000  Uiso   1.00
O1392  O     0.57608   0.50000   0.80405   0.00000  Uiso   1.00
O1393  O     0.42392   0.50000   0.78617   0.00000  Uiso   1.00
O1394  O     0.57608   0.50000   0.88050   0.00000  Uiso   1.00
Zn1395 Zn    0.50000   0.49999   0.88437   0.00000  Uiso   1.00
Zn1396 Zn    0.50000   0.50001   0.78229   0.00000  Uiso   1.00
O1397  O     0.65617   0.53382   0.78317   0.00000  Uiso   1.00
H1398  H     0.34952   0.54486   0.76522   0.00000  Uiso   1.00
O1399  O     0.34327   0.46526   0.88223   0.00000  Uiso   1.00
H1400  H     0.64989   0.45415   0.90010   0.00000  Uiso   1.00
O1401  O     0.55584   0.55915   0.72277   0.00000  Uiso   1.00
H1402  H     0.56531   0.58268   0.70388   0.00000  Uiso   1.00
O1403  O     0.43208   0.45014   0.94228   0.00000  Uiso   1.00
H1404  H     0.40331   0.44113   0.95896   0.00000  Uiso   1.00
O1405  O     0.56404   0.55439   0.96054   0.00000  Uiso   1.00
C1406  C     0.61671   0.54241   0.97175   0.00000  Uiso   1.00
H1407  H     0.62222   0.50951   0.96059   0.00000  Uiso   1.00
H1408  H     0.62967   0.54477   0.67566   0.00000  Uiso   1.00
C1409  C     0.65135   0.57170   0.94801   0.00000  Uiso   1.00
H1410  H     0.63867   0.57043   0.91070   0.00000  Uiso   1.00
H1411  H     0.64710   0.60442   0.96010   0.00000  Uiso   1.00
C1412  C     0.37535   0.55965   0.95758   0.00000  Uiso   1.00
H1413  H     0.38942   0.56172   0.99463   0.00000  Uiso   1.00
H1414  H     0.39929   0.58125   0.93957   0.00000  Uiso   1.00
H1415  H     0.38044   0.52725   0.94520   0.00000  Uiso   1.00
O1416  O     0.43969   0.44191   0.70480   0.00000  Uiso   1.00
C1417  C     0.46587   0.40297   0.70928   0.00000  Uiso   1.00
H1418  H     0.45333   0.38755   0.73935   0.00000  Uiso   1.00
H1419  H     0.50928   0.40660   0.71574   0.00000  Uiso   1.00
C1420  C     0.45042   0.37308   0.66864   0.00000  Uiso   1.00
H1421  H     0.40731   0.37264   0.99251   0.00000  Uiso   1.00
H1422  H     0.46927   0.38358   0.97261   0.00000  Uiso   1.00
C1423  C     0.46839   0.66181   0.67969   0.00000  Uiso   1.00
H1424  H     0.51139   0.66137   0.68968   0.00000  Uiso   1.00
H1425  H     0.45815   0.64125   0.98258   0.00000  Uiso   1.00
H1426  H     0.44891   0.64913   0.70785   0.00000  Uiso   1.00
C1427  C     0.83355   0.42006   0.83322   0.00000  Uiso   1.00
C1428  C     0.83382   0.57992   0.83364   0.00000  Uiso   1.00
C1429  C     0.73402   0.50110   0.82176   0.00000  Uiso   1.00
C1430  C     0.93261   0.49905   0.84483   0.00000  Uiso   1.00
C1431  C     0.67968   0.50788   0.81704   0.00000  Uiso   1.00
C1432  C     0.98679   0.49207   0.84921   0.00000  Uiso   1.00
C1433  C     0.86288   0.35471   0.80419   0.00000  Uiso   1.00
C1434  C     0.80727   0.64526   0.86452   0.00000  Uiso   1.00
C1435  C     0.86272   0.64508   0.80420   0.00000  Uiso   1.00
C1436  C     0.80674   0.35487   0.86396   0.00000  Uiso   1.00
C1437  C     0.83472   0.62406   0.83423   0.00000  Uiso   1.00
C1438  C     0.83416   0.37590   0.83349   0.00000  Uiso   1.00
C1439  C     0.86282   0.52875   0.69491   0.00000  Uiso   1.00
C1440  C     0.80082   0.47366   0.97124   0.00000  Uiso   1.00
C1441  C     0.86542   0.52696   0.98015   0.00000  Uiso   1.00
C1442  C     0.80345   0.47141   0.68631   0.00000  Uiso   1.00
H1443  H     0.88541   0.37133   0.78170   0.00000  Uiso   1.00
H1444  H     0.78550   0.62866   0.88763   0.00000  Uiso   1.00
H1445  H     0.88472   0.62833   0.78137   0.00000  Uiso   1.00
H1446  H     0.78450   0.37160   0.88665   0.00000  Uiso   1.00
N1447  N     0.83332   0.49999   0.95240   0.00000  Uiso   1.00
N1448  N     0.83335   0.50001   0.71427   0.00000  Uiso   1.00
O1449  O     0.83333   0.43892   0.87154   0.00000  Uiso   1.00
O1450  O     0.83334   0.56108   0.79513   0.00000  Uiso   1.00
O1451  O     0.83333   0.43893   0.79510   0.00000  Uiso   1.00
O1452  O     0.83334   0.56107   0.87157   0.00000  Uiso   1.00
O1453  O     0.75725   0.50000   0.86261   0.00000  Uiso   1.00
O1454  O     0.90942   0.50000   0.80405   0.00000  Uiso   1.00
O1455  O     0.75725   0.50000   0.78617   0.00000  Uiso   1.00
O1456  O     0.90942   0.50000   0.88050   0.00000  Uiso   1.00
Zn1457 Zn    0.83333   0.49999   0.88437   0.00000  Uiso   1.00
Zn1458 Zn    0.83333   0.50001   0.78229   0.00000  Uiso   1.00
O1459  O     0.98950   0.53382   0.78317   0.00000  Uiso   1.00
H1460  H     0.68286   0.54486   0.76522   0.00000  Uiso   1.00
O1461  O     0.67661   0.46526   0.88223   0.00000  Uiso   1.00
H1462  H     0.98322   0.45415   0.90010   0.00000  Uiso   1.00
O1463  O     0.88917   0.55915   0.72277   0.00000  Uiso   1.00
H1464  H     0.89864   0.58268   0.70388   0.00000  Uiso   1.00
O1465  O     0.76541   0.45014   0.94228   0.00000  Uiso   1.00
H1466  H     0.73664   0.44113   0.95896   0.00000  Uiso   1.00
O1467  O     0.89737   0.55439   0.96054   0.00000  Uiso   1.00
C1468  C     0.95004   0.54241   0.97175   0.00000  Uiso   1.00
H1469  H     0.95556   0.50951   0.96059   0.00000  Uiso   1.00
H1470  H     0.96301   0.54477   0.67566   0.00000  Uiso   1.00
C1471  C     0.98469   0.57170   0.94801   0.00000  Uiso   1.00
H1472  H     0.97201   0.57043   0.91070   0.00000  Uiso   1.00
H1473  H     0.98043   0.60442   0.96010   0.00000  Uiso   1.00
C1474  C     0.70869   0.55965   0.95758   0.00000  Uiso   1.00
H1475  H     0.72276   0.56172   0.99463   0.00000  Uiso   1.00
H1476  H     0.73263   0.58125   0.93957   0.00000  Uiso   1.00
H1477  H     0.71377   0.52725   0.94520   0.00000  Uiso   1.00
O1478  O     0.77303   0.44191   0.70480   0.00000  Uiso   1.00
C1479  C     0.79921   0.40297   0.70928   0.00000  Uiso   1.00
H1480  H     0.78666   0.38755   0.73935   0.00000  Uiso   1.00
H1481  H     0.84261   0.40660   0.71574   0.00000  Uiso   1.00
C1482  C     0.78375   0.37308   0.66864   0.00000  Uiso   1.00
H1483  H     0.74065   0.37264   0.99251   0.00000  Uiso   1.00
H1484  H     0.80260   0.38358   0.97261   0.00000  Uiso   1.00
C1485  C     0.80173   0.66181   0.67969   0.00000  Uiso   1.00
H1486  H     0.84473   0.66137   0.68968   0.00000  Uiso   1.00
H1487  H     0.79148   0.64125   0.98258   0.00000  Uiso   1.00
H1488  H     0.78224   0.64913   0.70785   0.00000  Uiso   1.00
C1489  C     0.16688   0.75340   0.83322   0.00000  Uiso   1.00
C1490  C     0.16715   0.91326   0.83364   0.00000  Uiso   1.00
C1491  C     0.06735   0.83443   0.82176   0.00000  Uiso   1.00
C1492  C     0.26594   0.83239   0.84483   0.00000  Uiso   1.00
C1493  C     0.01301   0.84121   0.81704   0.00000  Uiso   1.00
C1494  C     0.32012   0.82540   0.84921   0.00000  Uiso   1.00
C1495  C     0.19622   0.68805   0.80419   0.00000  Uiso   1.00
C1496  C     0.14060   0.97860   0.86452   0.00000  Uiso   1.00
C1497  C     0.19606   0.97841   0.80420   0.00000  Uiso   1.00
C1498  C     0.14007   0.68820   0.86396   0.00000  Uiso   1.00
C1499  C     0.16806   0.95740   0.83423   0.00000  Uiso   1.00
C1500  C     0.16749   0.70923   0.83349   0.00000  Uiso   1.00
C1501  C     0.19615   0.86208   0.69491   0.00000  Uiso   1.00
C1502  C     0.13415   0.80699   0.97124   0.00000  Uiso   1.00
C1503  C     0.19875   0.86029   0.98015   0.00000  Uiso   1.00
C1504  C     0.13678   0.80475   0.68631   0.00000  Uiso   1.00
H1505  H     0.21874   0.70467   0.78170   0.00000  Uiso   1.00
H1506  H     0.11883   0.96200   0.88763   0.00000  Uiso   1.00
H1507  H     0.21806   0.96167   0.78137   0.00000  Uiso   1.00
H1508  H     0.11783   0.70493   0.88665   0.00000  Uiso   1.00
N1509  N     0.16665   0.83332   0.95240   0.00000  Uiso   1.00
N1510  N     0.16668   0.83334   0.71427   0.00000  Uiso   1.00
O1511  O     0.16666   0.77225   0.87154   0.00000  Uiso   1.00
O1512  O     0.16667   0.89442   0.79513   0.00000  Uiso   1.00
O1513  O     0.16666   0.77226   0.79510   0.00000  Uiso   1.00
O1514  O     0.16667   0.89441   0.87157   0.00000  Uiso   1.00
O1515  O     0.09058   0.83333   0.86261   0.00000  Uiso   1.00
O1516  O     0.24275   0.83334   0.80405   0.00000  Uiso   1.00
O1517  O     0.09058   0.83334   0.78617   0.00000  Uiso   1.00
O1518  O     0.24275   0.83333   0.88050   0.00000  Uiso   1.00
Zn1519 Zn    0.16667   0.83333   0.88437   0.00000  Uiso   1.00
Zn1520 Zn    0.16667   0.83334   0.78229   0.00000  Uiso   1.00
O1521  O     0.32283   0.86715   0.78317   0.00000  Uiso   1.00
H1522  H     0.01619   0.87819   0.76522   0.00000  Uiso   1.00
O1523  O     0.00994   0.79859   0.88223   0.00000  Uiso   1.00
H1524  H     0.31655   0.78749   0.90010   0.00000  Uiso   1.00
O1525  O     0.22251   0.89249   0.72277   0.00000  Uiso   1.00
H1526  H     0.23197   0.91601   0.70388   0.00000  Uiso   1.00
O1527  O     0.09874   0.78347   0.94228   0.00000  Uiso   1.00
H1528  H     0.06998   0.77446   0.95896   0.00000  Uiso   1.00
O1529  O     0.23071   0.88773   0.96054   0.00000  Uiso   1.00
C1530  C     0.28338   0.87574   0.97175   0.00000  Uiso   1.00
H1531  H     0.28889   0.84284   0.96059   0.00000  Uiso   1.00
H1532  H     0.29634   0.87810   0.67566   0.00000  Uiso   1.00
C1533  C     0.31802   0.90503   0.94801   0.00000  Uiso   1.00
H1534  H     0.30534   0.90377   0.91070   0.00000  Uiso   1.00
H1535  H     0.31377   0.93775   0.96010   0.00000  Uiso   1.00
C1536  C     0.04202   0.89298   0.95758   0.00000  Uiso   1.00
H1537  H     0.05609   0.89505   0.99463   0.00000  Uiso   1.00
H1538  H     0.06596   0.91458   0.93957   0.00000  Uiso   1.00
H1539  H     0.04710   0.86058   0.94520   0.00000  Uiso   1.00
O1540  O     0.10636   0.77524   0.70480   0.00000  Uiso   1.00
C1541  C     0.13254   0.73630   0.70928   0.00000  Uiso   1.00
H1542  H     0.12000   0.72089   0.73935   0.00000  Uiso   1.00
H1543  H     0.17594   0.73993   0.71574   0.00000  Uiso   1.00
C1544  C     0.11708   0.70641   0.66864   0.00000  Uiso   1.00
H1545  H     0.07398   0.70597   0.99251   0.00000  Uiso   1.00
H1546  H     0.13593   0.71691   0.97261   0.00000  Uiso   1.00
C1547  C     0.13506   0.99514   0.67969   0.00000  Uiso   1.00
H1548  H     0.17806   0.99470   0.68968   0.00000  Uiso   1.00
H1549  H     0.12482   0.97458   0.98258   0.00000  Uiso   1.00
H1550  H     0.11558   0.98246   0.70785   0.00000  Uiso   1.00
C1551  C     0.50022   0.75340   0.83322   0.00000  Uiso   1.00
C1552  C     0.50048   0.91326   0.83364   0.00000  Uiso   1.00
C1553  C     0.40068   0.83443   0.82176   0.00000  Uiso   1.00
C1554  C     0.59928   0.83239   0.84483   0.00000  Uiso   1.00
C1555  C     0.34634   0.84121   0.81704   0.00000  Uiso   1.00
C1556  C     0.65346   0.82540   0.84921   0.00000  Uiso   1.00
C1557  C     0.52955   0.68805   0.80419   0.00000  Uiso   1.00
C1558  C     0.47393   0.97860   0.86452   0.00000  Uiso   1.00
C1559  C     0.52939   0.97841   0.80420   0.00000  Uiso   1.00
C1560  C     0.47340   0.68820   0.86396   0.00000  Uiso   1.00
C1561  C     0.50139   0.95740   0.83423   0.00000  Uiso   1.00
C1562  C     0.50082   0.70923   0.83349   0.00000  Uiso   1.00
C1563  C     0.52948   0.86208   0.69491   0.00000  Uiso   1.00
C1564  C     0.46749   0.80699   0.97124   0.00000  Uiso   1.00
C1565  C     0.53209   0.86029   0.98015   0.00000  Uiso   1.00
C1566  C     0.47012   0.80475   0.68631   0.00000  Uiso   1.00
H1567  H     0.55208   0.70467   0.78170   0.00000  Uiso   1.00
H1568  H     0.45216   0.96200   0.88763   0.00000  Uiso   1.00
H1569  H     0.55139   0.96167   0.78137   0.00000  Uiso   1.00
H1570  H     0.45116   0.70493   0.88665   0.00000  Uiso   1.00
N1571  N     0.49999   0.83332   0.95240   0.00000  Uiso   1.00
N1572  N     0.50001   0.83334   0.71427   0.00000  Uiso   1.00
O1573  O     0.50000   0.77225   0.87154   0.00000  Uiso   1.00
O1574  O     0.50000   0.89442   0.79513   0.00000  Uiso   1.00
O1575  O     0.50000   0.77226   0.79510   0.00000  Uiso   1.00
O1576  O     0.50000   0.89441   0.87157   0.00000  Uiso   1.00
O1577  O     0.42392   0.83333   0.86261   0.00000  Uiso   1.00
O1578  O     0.57608   0.83334   0.80405   0.00000  Uiso   1.00
O1579  O     0.42392   0.83334   0.78617   0.00000  Uiso   1.00
O1580  O     0.57608   0.83333   0.88050   0.00000  Uiso   1.00
Zn1581 Zn    0.50000   0.83333   0.88437   0.00000  Uiso   1.00
Zn1582 Zn    0.50000   0.83334   0.78229   0.00000  Uiso   1.00
O1583  O     0.65617   0.86715   0.78317   0.00000  Uiso   1.00
H1584  H     0.34952   0.87819   0.76522   0.00000  Uiso   1.00
O1585  O     0.34327   0.79859   0.88223   0.00000  Uiso   1.00
H1586  H     0.64989   0.78749   0.90010   0.00000  Uiso   1.00
O1587  O     0.55584   0.89249   0.72277   0.00000  Uiso   1.00
H1588  H     0.56531   0.91601   0.70388   0.00000  Uiso   1.00
O1589  O     0.43208   0.78347   0.94228   0.00000  Uiso   1.00
H1590  H     0.40331   0.77446   0.95896   0.00000  Uiso   1.00
O1591  O     0.56404   0.88773   0.96054   0.00000  Uiso   1.00
C1592  C     0.61671   0.87574   0.97175   0.00000  Uiso   1.00
H1593  H     0.62222   0.84284   0.96059   0.00000  Uiso   1.00
H1594  H     0.62967   0.87810   0.67566   0.00000  Uiso   1.00
C1595  C     0.65135   0.90503   0.94801   0.00000  Uiso   1.00
H1596  H     0.63867   0.90377   0.91070   0.00000  Uiso   1.00
H1597  H     0.64710   0.93775   0.96010   0.00000  Uiso   1.00
C1598  C     0.37535   0.89298   0.95758   0.00000  Uiso   1.00
H1599  H     0.38942   0.89505   0.99463   0.00000  Uiso   1.00
H1600  H     0.39929   0.91458   0.93957   0.00000  Uiso   1.00
H1601  H     0.38044   0.86058   0.94520   0.00000  Uiso   1.00
O1602  O     0.43969   0.77524   0.70480   0.00000  Uiso   1.00
C1603  C     0.46587   0.73630   0.70928   0.00000  Uiso   1.00
H1604  H     0.45333   0.72089   0.73935   0.00000  Uiso   1.00
H1605  H     0.50928   0.73993   0.71574   0.00000  Uiso   1.00
C1606  C     0.45042   0.70641   0.66864   0.00000  Uiso   1.00
H1607  H     0.40731   0.70597   0.99251   0.00000  Uiso   1.00
H1608  H     0.46927   0.71691   0.97261   0.00000  Uiso   1.00
C1609  C     0.46839   0.99514   0.67969   0.00000  Uiso   1.00
H1610  H     0.51139   0.99470   0.68968   0.00000  Uiso   1.00
H1611  H     0.45815   0.97458   0.98258   0.00000  Uiso   1.00
H1612  H     0.44891   0.98246   0.70785   0.00000  Uiso   1.00
C1613  C     0.83355   0.75340   0.83322   0.00000  Uiso   1.00
C1614  C     0.83382   0.91326   0.83364   0.00000  Uiso   1.00
C1615  C     0.73402   0.83443   0.82176   0.00000  Uiso   1.00
C1616  C     0.93261   0.83239   0.84483   0.00000  Uiso   1.00
C1617  C     0.67968   0.84121   0.81704   0.00000  Uiso   1.00
C1618  C     0.98679   0.82540   0.84921   0.00000  Uiso   1.00
C1619  C     0.86288   0.68805   0.80419   0.00000  Uiso   1.00
C1620  C     0.80727   0.97860   0.86452   0.00000  Uiso   1.00
C1621  C     0.86272   0.97841   0.80420   0.00000  Uiso   1.00
C1622  C     0.80674   0.68820   0.86396   0.00000  Uiso   1.00
C1623  C     0.83472   0.95740   0.83423   0.00000  Uiso   1.00
C1624  C     0.83416   0.70923   0.83349   0.00000  Uiso   1.00
C1625  C     0.86282   0.86208   0.69491   0.00000  Uiso   1.00
C1626  C     0.80082   0.80699   0.97124   0.00000  Uiso   1.00
C1627  C     0.86542   0.86029   0.98015   0.00000  Uiso   1.00
C1628  C     0.80345   0.80475   0.68631   0.00000  Uiso   1.00
H1629  H     0.88541   0.70467   0.78170   0.00000  Uiso   1.00
H1630  H     0.78550   0.96200   0.88763   0.00000  Uiso   1.00
H1631  H     0.88472   0.96167   0.78137   0.00000  Uiso   1.00
H1632  H     0.78450   0.70493   0.88665   0.00000  Uiso   1.00
N1633  N     0.83332   0.83332   0.95240   0.00000  Uiso   1.00
N1634  N     0.83335   0.83334   0.71427   0.00000  Uiso   1.00
O1635  O     0.83333   0.77225   0.87154   0.00000  Uiso   1.00
O1636  O     0.83334   0.89442   0.79513   0.00000  Uiso   1.00
O1637  O     0.83333   0.77226   0.79510   0.00000  Uiso   1.00
O1638  O     0.83334   0.89441   0.87157   0.00000  Uiso   1.00
O1639  O     0.75725   0.83333   0.86261   0.00000  Uiso   1.00
O1640  O     0.90942   0.83334   0.80405   0.00000  Uiso   1.00
O1641  O     0.75725   0.83334   0.78617   0.00000  Uiso   1.00
O1642  O     0.90942   0.83333   0.88050   0.00000  Uiso   1.00
Zn1643 Zn    0.83333   0.83333   0.88437   0.00000  Uiso   1.00
Zn1644 Zn    0.83333   0.83334   0.78229   0.00000  Uiso   1.00
O1645  O     0.98950   0.86715   0.78317   0.00000  Uiso   1.00
H1646  H     0.68286   0.87819   0.76522   0.00000  Uiso   1.00
O1647  O     0.67661   0.79859   0.88223   0.00000  Uiso   1.00
H1648  H     0.98322   0.78749   0.90010   0.00000  Uiso   1.00
O1649  O     0.88917   0.89249   0.72277   0.00000  Uiso   1.00
H1650  H     0.89864   0.91601   0.70388   0.00000  Uiso   1.00
O1651  O     0.76541   0.78347   0.94228   0.00000  Uiso   1.00
H1652  H     0.73664   0.77446   0.95896   0.00000  Uiso   1.00
O1653  O     0.89737   0.88773   0.96054   0.00000  Uiso   1.00
C1654  C     0.95004   0.87574   0.97175   0.00000  Uiso   1.00
H1655  H     0.95556   0.84284   0.96059   0.00000  Uiso   1.00
H1656  H     0.96301   0.87810   0.67566   0.00000  Uiso   1.00
C1657  C     0.98469   0.90503   0.94801   0.00000  Uiso   1.00
H1658  H     0.97201   0.90377   0.91070   0.00000  Uiso   1.00
H1659  H     0.98043   0.93775   0.96010   0.00000  Uiso   1.00
C1660  C     0.70869   0.89298   0.95758   0.00000  Uiso   1.00
H1661  H     0.72276   0.89505   0.99463   0.00000  Uiso   1.00
H1662  H     0.73263   0.91458   0.93957   0.00000  Uiso   1.00
H1663  H     0.71377   0.86058   0.94520   0.00000  Uiso   1.00
O1664  O     0.77303   0.77524   0.70480   0.00000  Uiso   1.00
C1665  C     0.79921   0.73630   0.70928   0.00000  Uiso   1.00
H1666  H     0.78666   0.72089   0.73935   0.00000  Uiso   1.00
H1667  H     0.84261   0.73993   0.71574   0.00000  Uiso   1.00
C1668  C     0.78375   0.70641   0.66864   0.00000  Uiso   1.00
H1669  H     0.74065   0.70597   0.99251   0.00000  Uiso   1.00
H1670  H     0.80260   0.71691   0.97261   0.00000  Uiso   1.00
C1671  C     0.80173   0.99514   0.67969   0.00000  Uiso   1.00
H1672  H     0.84473   0.99470   0.68968   0.00000  Uiso   1.00
H1673  H     0.79148   0.97458   0.98258   0.00000  Uiso   1.00
H1674  H     0.78224   0.98246   0.70785   0.00000  Uiso   1.00
loop_
_geom_bond_atom_site_label_1
_geom_bond_atom_site_label_2
_geom_bond_distance
_geom_bond_site_symmetry_2
_ccdc_geom_bond_type
C1     O25     1.288   .     A
C1     C12     1.410   .     S
C1     O23     1.281   .     A
C2     O26     1.285   .     A
C2     C11     1.408   .     S
C2     O24     1.284   .     A
C3     O27     1.279   .     A
C3     O29     1.286   .     A
C3     C5      1.413   .     S
C4     O30     1.287   .     A
C4     O28     1.276   .     A
C4     C6      1.410   .     S
C5     C130    1.344   1_455 S
C5     O157    1.390   1_455 S
C6     C67     1.344   .     S
C6     O97     1.387   .     S
C7     C12     1.394   .     A
C7     H17     1.083   .     S
C7     C381    1.371   1_545 S
C8     C11     1.394   .     A
C8     H18     1.084   .     S
C8     C196    1.371   .     S
C9     C11     1.395   .     A
C9     H19     1.083   .     S
C9     C193    1.371   .     S
C10    C12     1.396   .     A
C10    H20     1.084   .     S
C10    C380    1.371   1_545 S
C13    O37     1.378   .     S
C13    N22     1.366   .     A
C13    C1131   1.439   1_554 S
C14    N21     1.359   .     A
C14    O39     1.375   .     S
C14    C574    1.432   .     S
C15    N21     1.373   .     A
C15    O41     1.383   .     S
C15    C571    1.439   .     S
C16    N22     1.381   .     A
C16    O52     1.385   .     S
C16    C1130   1.432   1_554 S
N21    Zn31    2.020   .     S
N22    Zn32    2.020   .     S
O23    Zn31    1.981   .     S
O24    Zn32    1.981   .     S
O25    Zn32    1.990   .     S
O26    Zn31    1.990   .     S
O27    Zn31    1.985   .     S
O28    Zn32    1.985   .     S
O29    Zn32    1.986   .     S
O30    Zn31    1.986   .     S
O33    C67     1.390   .     S
O33    H96     0.991   .     S
H34    O157    0.991   1_455 S
O35    C130    1.387   1_455 S
O35    H160    0.992   1_455 S
H36    O97     0.992   .     S
O37    H38     0.990   .     S
O39    H40     0.990   .     S
O41    C42     1.416   .     S
C42    H43     1.114   .     S
C42    C45     1.530   .     S
C42    H602    1.112   .     S
H44    C1158   1.112   1_554 S
C45    H47     1.112   .     S
C45    H46     1.111   .     S
C45    C110    1.526   .     S
C48    H50     1.110   .     S
C48    H49     1.111   .     S
C48    H51     1.109   .     S
C48    C169    1.526   1_455 S
O52    C53     1.422   .     S
C53    H54     1.109   .     S
C53    H55     1.117   .     S
C53    C56     1.535   .     S
C56    H1173   1.111   1_554 S
C56    H1174   1.109   1_554 S
C56    C431    1.529   1_545 S
H57    C614    1.111   .     S
H58    C614    1.109   .     S
C59    H60     1.111   .     S
C59    H62     1.111   .     S
C59    C242    1.529   .     S
C59    H1177   1.110   1_554 S
H61    C617    1.110   .     S
C63    O87     1.288   .     A
C63    C74     1.410   .     S
C63    O85     1.281   .     A
C64    O88     1.285   .     A
C64    C73     1.408   .     S
C64    O86     1.284   .     A
C65    O89     1.279   .     A
C65    O91     1.286   .     A
C65    C67     1.413   .     S
C66    O92     1.287   .     A
C66    O90     1.276   .     A
C66    C68     1.410   .     S
C68    C129    1.344   .     S
C68    O159    1.387   .     S
C69    C74     1.394   .     A
C69    H79     1.083   .     S
C69    C443    1.371   1_545 S
C70    C73     1.394   .     A
C70    H80     1.084   .     S
C70    C258    1.371   .     S
C71    C73     1.395   .     A
C71    H81     1.083   .     S
C71    C255    1.371   .     S
C72    C74     1.396   .     A
C72    H82     1.084   .     S
C72    C442    1.371   1_545 S
C75    O99     1.378   .     S
C75    N84     1.366   .     A
C75    C1193   1.439   1_554 S
C76    N83     1.359   .     A
C76    O101    1.375   .     S
C76    C636    1.432   .     S
C77    N83     1.373   .     A
C77    O103    1.383   .     S
C77    C633    1.439   .     S
C78    N84     1.381   .     A
C78    O114    1.385   .     S
C78    C1192   1.432   1_554 S
N83    Zn93    2.020   .     S
N84    Zn94    2.020   .     S
O85    Zn93    1.981   .     S
O86    Zn94    1.981   .     S
O87    Zn94    1.990   .     S
O88    Zn93    1.990   .     S
O89    Zn93    1.985   .     S
O90    Zn94    1.985   .     S
O91    Zn94    1.986   .     S
O92    Zn93    1.986   .     S
O95    C129    1.390   .     S
O95    H158    0.991   .     S
H98    O159    0.992   .     S
O99    H100    0.990   .     S
O101   H102    0.990   .     S
O103   C104    1.416   .     S
C104   H105    1.114   .     S
C104   C107    1.530   .     S
C104   H664    1.112   .     S
H106   C1220   1.112   1_554 S
C107   H109    1.112   .     S
C107   H108    1.111   .     S
C107   C172    1.526   .     S
C110   H112    1.110   .     S
C110   H111    1.111   .     S
C110   H113    1.109   .     S
O114   C115    1.422   .     S
C115   H116    1.109   .     S
C115   H117    1.117   .     S
C115   C118    1.535   .     S
C118   H1235   1.111   1_554 S
C118   H1236   1.109   1_554 S
C118   C493    1.529   1_545 S
H119   C676    1.111   .     S
H120   C676    1.109   .     S
C121   H122    1.111   .     S
C121   H124    1.111   .     S
C121   C304    1.529   .     S
C121   H1239   1.110   1_554 S
H123   C679    1.110   .     S
C125   O149    1.288   .     A
C125   C136    1.410   .     S
C125   O147    1.281   .     A
C126   O150    1.285   .     A
C126   C135    1.408   .     S
C126   O148    1.284   .     A
C127   O151    1.279   .     A
C127   O153    1.286   .     A
C127   C129    1.413   .     S
C128   O154    1.287   .     A
C128   O152    1.276   .     A
C128   C130    1.410   .     S
C130   C5      1.344   1_655 S
C130   O35     1.387   1_655 S
C131   C136    1.394   .     A
C131   H141    1.083   .     S
C131   C505    1.371   1_545 S
C132   C135    1.394   .     A
C132   H142    1.084   .     S
C132   C320    1.371   .     S
C133   C135    1.395   .     A
C133   H143    1.083   .     S
C133   C317    1.371   .     S
C134   C136    1.396   .     A
C134   H144    1.084   .     S
C134   C504    1.371   1_545 S
C137   O161    1.378   .     S
C137   N146    1.366   .     A
C137   C1255   1.439   1_554 S
C138   N145    1.359   .     A
C138   O163    1.375   .     S
C138   C698    1.432   .     S
C139   N145    1.373   .     A
C139   O165    1.383   .     S
C139   C695    1.439   .     S
C140   N146    1.381   .     A
C140   O176    1.385   .     S
C140   C1254   1.432   1_554 S
N145   Zn155   2.020   .     S
N146   Zn156   2.020   .     S
O147   Zn155   1.981   .     S
O148   Zn156   1.981   .     S
O149   Zn156   1.990   .     S
O150   Zn155   1.990   .     S
O151   Zn155   1.985   .     S
O152   Zn156   1.985   .     S
O153   Zn156   1.986   .     S
O154   Zn155   1.986   .     S
O157   C5      1.390   1_655 S
O157   H34     0.991   1_655 S
H160   O35     0.992   1_655 S
O161   H162    0.990   .     S
O163   H164    0.990   .     S
O165   C166    1.416   .     S
C166   H167    1.114   .     S
C166   C169    1.530   .     S
C166   H726    1.112   .     S
H168   C1282   1.112   1_554 S
C169   H171    1.112   .     S
C169   H170    1.111   .     S
C169   C48     1.526   1_655 S
C172   H174    1.110   .     S
C172   H173    1.111   .     S
C172   H175    1.109   .     S
O176   C177    1.422   .     S
C177   H178    1.109   .     S
C177   H179    1.117   .     S
C177   C180    1.535   .     S
C180   H1297   1.111   1_554 S
C180   H1298   1.109   1_554 S
C180   C555    1.529   1_545 S
H181   C738    1.111   .     S
H182   C738    1.109   .     S
C183   H184    1.111   .     S
C183   H186    1.111   .     S
C183   C366    1.529   .     S
C183   H1301   1.110   1_554 S
H185   C741    1.110   .     S
C187   O211    1.288   .     A
C187   C198    1.410   .     S
C187   O209    1.281   .     A
C188   O212    1.285   .     A
C188   C197    1.408   .     S
C188   O210    1.284   .     A
C189   O213    1.279   .     A
C189   O215    1.286   .     A
C189   C191    1.413   .     S
C190   O216    1.287   .     A
C190   O214    1.276   .     A
C190   C192    1.410   .     S
C191   C316    1.344   1_455 S
C191   O343    1.390   1_455 S
C192   C253    1.344   .     S
C192   O283    1.387   .     S
C193   C198    1.394   .     A
C193   H203    1.083   .     S
C194   C197    1.394   .     A
C194   H204    1.084   .     S
C194   C382    1.371   .     S
C195   C197    1.395   .     A
C195   H205    1.083   .     S
C195   C379    1.371   .     S
C196   C198    1.396   .     A
C196   H206    1.084   .     S
C199   O223    1.378   .     S
C199   N208    1.366   .     A
C199   C1317   1.439   1_554 S
C200   N207    1.359   .     A
C200   O225    1.375   .     S
C200   C760    1.432   .     S
C201   N207    1.373   .     A
C201   O227    1.383   .     S
C201   C757    1.439   .     S
C202   N208    1.381   .     A
C202   O238    1.385   .     S
C202   C1316   1.432   1_554 S
N207   Zn217   2.020   .     S
N208   Zn218   2.020   .     S
O209   Zn217   1.981   .     S
O210   Zn218   1.981   .     S
O211   Zn218   1.990   .     S
O212   Zn217   1.990   .     S
O213   Zn217   1.985   .     S
O214   Zn218   1.985   .     S
O215   Zn218   1.986   .     S
O216   Zn217   1.986   .     S
O219   C253    1.390   .     S
O219   H282    0.991   .     S
H220   O343    0.991   1_455 S
O221   C316    1.387   1_455 S
O221   H346    0.992   1_455 S
H222   O283    0.992   .     S
O223   H224    0.990   .     S
O225   H226    0.990   .     S
O227   C228    1.416   .     S
C228   H229    1.114   .     S
C228   C231    1.530   .     S
C228   H788    1.112   .     S
H230   C1344   1.112   1_554 S
C231   H233    1.112   .     S
C231   H232    1.111   .     S
C231   C296    1.526   .     S
C234   H236    1.110   .     S
C234   H235    1.111   .     S
C234   H237    1.109   .     S
C234   C355    1.526   1_455 S
O238   C239    1.422   .     S
C239   H240    1.109   .     S
C239   H241    1.117   .     S
C239   C242    1.535   .     S
C242   H1359   1.111   1_554 S
C242   H1360   1.109   1_554 S
H243   C800    1.111   .     S
H244   C800    1.109   .     S
C245   H246    1.111   .     S
C245   H248    1.111   .     S
C245   C428    1.529   .     S
C245   H1363   1.110   1_554 S
H247   C803    1.110   .     S
C249   O273    1.288   .     A
C249   C260    1.410   .     S
C249   O271    1.281   .     A
C250   O274    1.285   .     A
C250   C259    1.408   .     S
C250   O272    1.284   .     A
C251   O275    1.279   .     A
C251   O277    1.286   .     A
C251   C253    1.413   .     S
C252   O278    1.287   .     A
C252   O276    1.276   .     A
C252   C254    1.410   .     S
C254   C315    1.344   .     S
C254   O345    1.387   .     S
C255   C260    1.394   .     A
C255   H265    1.083   .     S
C256   C259    1.394   .     A
C256   H266    1.084   .     S
C256   C444    1.371   .     S
C257   C259    1.395   .     A
C257   H267    1.083   .     S
C257   C441    1.371   .     S
C258   C260    1.396   .     A
C258   H268    1.084   .     S
C261   O285    1.378   .     S
C261   N270    1.366   .     A
C261   C1379   1.439   1_554 S
C262   N269    1.359   .     A
C262   O287    1.375   .     S
C262   C822    1.432   .     S
C263   N269    1.373   .     A
C263   O289    1.383   .     S
C263   C819    1.439   .     S
C264   N270    1.381   .     A
C264   O300    1.385   .     S
C264   C1378   1.432   1_554 S
N269   Zn279   2.020   .     S
N270   Zn280   2.020   .     S
O271   Zn279   1.981   .     S
O272   Zn280   1.981   .     S
O273   Zn280   1.990   .     S
O274   Zn279   1.990   .     S
O275   Zn279   1.985   .     S
O276   Zn280   1.985   .     S
O277   Zn280   1.986   .     S
O278   Zn279   1.986   .     S
O281   C315    1.390   .     S
O281   H344    0.991   .     S
H284   O345    0.992   .     S
O285   H286    0.990   .     S
O287   H288    0.990   .     S
O289   C290    1.416   .     S
C290   H291    1.114   .     S
C290   C293    1.530   .     S
C290   H850    1.112   .     S
H292   C1406   1.112   1_554 S
C293   H295    1.112   .     S
C293   H294    1.111   .     S
C293   C358    1.526   .     S
C296   H298    1.110   .     S
C296   H297    1.111   .     S
C296   H299    1.109   .     S
O300   C301    1.422   .     S
C301   H302    1.109   .     S
C301   H303    1.117   .     S
C301   C304    1.535   .     S
C304   H1421   1.111   1_554 S
C304   H1422   1.109   1_554 S
H305   C862    1.111   .     S
H306   C862    1.109   .     S
C307   H308    1.111   .     S
C307   H310    1.111   .     S
C307   C490    1.529   .     S
C307   H1425   1.110   1_554 S
H309   C865    1.110   .     S
C311   O335    1.288   .     A
C311   C322    1.410   .     S
C311   O333    1.281   .     A
C312   O336    1.285   .     A
C312   C321    1.408   .     S
C312   O334    1.284   .     A
C313   O337    1.279   .     A
C313   O339    1.286   .     A
C313   C315    1.413   .     S
C314   O340    1.287   .     A
C314   O338    1.276   .     A
C314   C316    1.410   .     S
C316   C191    1.344   1_655 S
C316   O221    1.387   1_655 S
C317   C322    1.394   .     A
C317   H327    1.083   .     S
C318   C321    1.394   .     A
C318   H328    1.084   .     S
C318   C506    1.371   .     S
C319   C321    1.395   .     A
C319   H329    1.083   .     S
C319   C503    1.371   .     S
C320   C322    1.396   .     A
C320   H330    1.084   .     S
C323   O347    1.378   .     S
C323   N332    1.366   .     A
C323   C1441   1.439   1_554 S
C324   N331    1.359   .     A
C324   O349    1.375   .     S
C324   C884    1.432   .     S
C325   N331    1.373   .     A
C325   O351    1.383   .     S
C325   C881    1.439   .     S
C326   N332    1.381   .     A
C326   O362    1.385   .     S
C326   C1440   1.432   1_554 S
N331   Zn341   2.020   .     S
N332   Zn342   2.020   .     S
O333   Zn341   1.981   .     S
O334   Zn342   1.981   .     S
O335   Zn342   1.990   .     S
O336   Zn341   1.990   .     S
O337   Zn341   1.985   .     S
O338   Zn342   1.985   .     S
O339   Zn342   1.986   .     S
O340   Zn341   1.986   .     S
O343   C191    1.390   1_655 S
O343   H220    0.991   1_655 S
H346   O221    0.992   1_655 S
O347   H348    0.990   .     S
O349   H350    0.990   .     S
O351   C352    1.416   .     S
C352   H353    1.114   .     S
C352   C355    1.530   .     S
C352   H912    1.112   .     S
H354   C1468   1.112   1_554 S
C355   H357    1.112   .     S
C355   H356    1.111   .     S
C355   C234    1.526   1_655 S
C358   H360    1.110   .     S
C358   H359    1.111   .     S
C358   H361    1.109   .     S
O362   C363    1.422   .     S
C363   H364    1.109   .     S
C363   H365    1.117   .     S
C363   C366    1.535   .     S
C366   H1483   1.111   1_554 S
C366   H1484   1.109   1_554 S
H367   C924    1.111   .     S
H368   C924    1.109   .     S
C369   H370    1.111   .     S
C369   H372    1.111   .     S
C369   C552    1.529   .     S
C369   H1487   1.110   1_554 S
H371   C927    1.110   .     S
C373   O397    1.288   .     A
C373   C384    1.410   .     S
C373   O395    1.281   .     A
C374   O398    1.285   .     A
C374   C383    1.408   .     S
C374   O396    1.284   .     A
C375   O399    1.279   .     A
C375   O401    1.286   .     A
C375   C377    1.413   .     S
C376   O402    1.287   .     A
C376   O400    1.276   .     A
C376   C378    1.410   .     S
C377   C502    1.344   1_455 S
C377   O529    1.390   1_455 S
C378   C439    1.344   .     S
C378   O469    1.387   .     S
C379   C384    1.394   .     A
C379   H389    1.083   .     S
C380   C383    1.394   .     A
C380   H390    1.084   .     S
C380   C10     1.371   1_565 S
C381   C383    1.395   .     A
C381   H391    1.083   .     S
C381   C7      1.371   1_565 S
C382   C384    1.396   .     A
C382   H392    1.084   .     S
C385   O409    1.378   .     S
C385   N394    1.366   .     A
C385   C1503   1.439   1_554 S
C386   N393    1.359   .     A
C386   O411    1.375   .     S
C386   C946    1.432   .     S
C387   N393    1.373   .     A
C387   O413    1.383   .     S
C387   C943    1.439   .     S
C388   N394    1.381   .     A
C388   O424    1.385   .     S
C388   C1502   1.432   1_554 S
N393   Zn403   2.020   .     S
N394   Zn404   2.020   .     S
O395   Zn403   1.981   .     S
O396   Zn404   1.981   .     S
O397   Zn404   1.990   .     S
O398   Zn403   1.990   .     S
O399   Zn403   1.985   .     S
O400   Zn404   1.985   .     S
O401   Zn404   1.986   .     S
O402   Zn403   1.986   .     S
O405   C439    1.390   .     S
O405   H468    0.991   .     S
H406   O529    0.991   1_455 S
O407   C502    1.387   1_455 S
O407   H532    0.992   1_455 S
H408   O469    0.992   .     S
O409   H410    0.990   .     S
O411   H412    0.990   .     S
O413   C414    1.416   .     S
C414   H415    1.114   .     S
C414   C417    1.530   .     S
C414   H974    1.112   .     S
H416   C1530   1.112   1_554 S
C417   H419    1.112   .     S
C417   H418    1.111   .     S
C417   C482    1.526   .     S
C420   H422    1.110   .     S
C420   H421    1.111   .     S
C420   H423    1.109   .     S
C420   C541    1.526   1_455 S
O424   C425    1.422   .     S
C425   H426    1.109   .     S
C425   H427    1.117   .     S
C425   C428    1.535   .     S
C428   H1545   1.111   1_554 S
C428   H1546   1.109   1_554 S
H429   C986    1.111   .     S
H430   C986    1.109   .     S
C431   H432    1.111   .     S
C431   H434    1.111   .     S
C431   C56     1.529   1_565 S
C431   H1549   1.110   1_554 S
H433   C989    1.110   .     S
C435   O459    1.288   .     A
C435   C446    1.410   .     S
C435   O457    1.281   .     A
C436   O460    1.285   .     A
C436   C445    1.408   .     S
C436   O458    1.284   .     A
C437   O461    1.279   .     A
C437   O463    1.286   .     A
C437   C439    1.413   .     S
C438   O464    1.287   .     A
C438   O462    1.276   .     A
C438   C440    1.410   .     S
C440   C501    1.344   .     S
C440   O531    1.387   .     S
C441   C446    1.394   .     A
C441   H451    1.083   .     S
C442   C445    1.394   .     A
C442   H452    1.084   .     S
C442   C72     1.371   1_565 S
C443   C445    1.395   .     A
C443   H453    1.083   .     S
C443   C69     1.371   1_565 S
C444   C446    1.396   .     A
C444   H454    1.084   .     S
C447   O471    1.378   .     S
C447   N456    1.366   .     A
C447   C1565   1.439   1_554 S
C448   N455    1.359   .     A
C448   O473    1.375   .     S
C448   C1008   1.432   .     S
C449   N455    1.373   .     A
C449   O475    1.383   .     S
C449   C1005   1.439   .     S
C450   N456    1.381   .     A
C450   O486    1.385   .     S
C450   C1564   1.432   1_554 S
N455   Zn465   2.020   .     S
N456   Zn466   2.020   .     S
O457   Zn465   1.981   .     S
O458   Zn466   1.981   .     S
O459   Zn466   1.990   .     S
O460   Zn465   1.990   .     S
O461   Zn465   1.985   .     S
O462   Zn466   1.985   .     S
O463   Zn466   1.986   .     S
O464   Zn465   1.986   .     S
O467   C501    1.390   .     S
O467   H530    0.991   .     S
H470   O531    0.992   .     S
O471   H472    0.990   .     S
O473   H474    0.990   .     S
O475   C476    1.416   .     S
C476   H477    1.114   .     S
C476   C479    1.530   .     S
C476   H1036   1.112   .     S
H478   C1592   1.112   1_554 S
C479   H481    1.112   .     S
C479   H480    1.111   .     S
C479   C544    1.526   .     S
C482   H484    1.110   .     S
C482   H483    1.111   .     S
C482   H485    1.109   .     S
O486   C487    1.422   .     S
C487   H488    1.109   .     S
C487   H489    1.117   .     S
C487   C490    1.535   .     S
C490   H1607   1.111   1_554 S
C490   H1608   1.109   1_554 S
H491   C1048   1.111   .     S
H492   C1048   1.109   .     S
C493   H494    1.111   .     S
C493   H496    1.111   .     S
C493   C118    1.529   1_565 S
C493   H1611   1.110   1_554 S
H495   C1051   1.110   .     S
C497   O521    1.288   .     A
C497   C508    1.410   .     S
C497   O519    1.281   .     A
C498   O522    1.285   .     A
C498   C507    1.408   .     S
C498   O520    1.284   .     A
C499   O523    1.279   .     A
C499   O525    1.286   .     A
C499   C501    1.413   .     S
C500   O526    1.287   .     A
C500   O524    1.276   .     A
C500   C502    1.410   .     S
C502   C377    1.344   1_655 S
C502   O407    1.387   1_655 S
C503   C508    1.394   .     A
C503   H513    1.083   .     S
C504   C507    1.394   .     A
C504   H514    1.084   .     S
C504   C134    1.371   1_565 S
C505   C507    1.395   .     A
C505   H515    1.083   .     S
C505   C131    1.371   1_565 S
C506   C508    1.396   .     A
C506   H516    1.084   .     S
C509   O533    1.378   .     S
C509   N518    1.366   .     A
C509   C1627   1.439   1_554 S
C510   N517    1.359   .     A
C510   O535    1.375   .     S
C510   C1070   1.432   .     S
C511   N517    1.373   .     A
C511   O537    1.383   .     S
C511   C1067   1.439   .     S
C512   N518    1.381   .     A
C512   O548    1.385   .     S
C512   C1626   1.432   1_554 S
N517   Zn527   2.020   .     S
N518   Zn528   2.020   .     S
O519   Zn527   1.981   .     S
O520   Zn528   1.981   .     S
O521   Zn528   1.990   .     S
O522   Zn527   1.990   .     S
O523   Zn527   1.985   .     S
O524   Zn528   1.985   .     S
O525   Zn528   1.986   .     S
O526   Zn527   1.986   .     S
O529   C377    1.390   1_655 S
O529   H406    0.991   1_655 S
H532   O407    0.992   1_655 S
O533   H534    0.990   .     S
O535   H536    0.990   .     S
O537   C538    1.416   .     S
C538   H539    1.114   .     S
C538   C541    1.530   .     S
C538   H1098   1.112   .     S
H540   C1654   1.112   1_554 S
C541   H543    1.112   .     S
C541   H542    1.111   .     S
C541   C420    1.526   1_655 S
C544   H546    1.110   .     S
C544   H545    1.111   .     S
C544   H547    1.109   .     S
O548   C549    1.422   .     S
C549   H550    1.109   .     S
C549   H551    1.117   .     S
C549   C552    1.535   .     S
C552   H1669   1.111   1_554 S
C552   H1670   1.109   1_554 S
H553   C1110   1.111   .     S
H554   C1110   1.109   .     S
C555   H556    1.111   .     S
C555   H558    1.111   .     S
C555   C180    1.529   1_565 S
C555   H1673   1.110   1_554 S
H557   C1113   1.110   .     S
C559   O583    1.288   .     A
C559   C570    1.410   .     S
C559   O581    1.281   .     A
C560   O584    1.285   .     A
C560   C569    1.408   .     S
C560   O582    1.284   .     A
C561   O585    1.279   .     A
C561   O587    1.286   .     A
C561   C563    1.413   .     S
C562   O588    1.287   .     A
C562   O586    1.276   .     A
C562   C564    1.410   .     S
C563   C688    1.344   1_455 S
C563   O715    1.390   1_455 S
C564   C625    1.344   .     S
C564   O655    1.387   .     S
C565   C570    1.394   .     A
C565   H575    1.083   .     S
C565   C939    1.371   1_545 S
C566   C569    1.394   .     A
C566   H576    1.084   .     S
C566   C754    1.371   .     S
C567   C569    1.395   .     A
C567   H577    1.083   .     S
C567   C751    1.371   .     S
C568   C570    1.396   .     A
C568   H578    1.084   .     S
C568   C938    1.371   1_545 S
C571   O595    1.378   .     S
C571   N580    1.366   .     A
C572   N579    1.359   .     A
C572   O597    1.375   .     S
C572   C1132   1.432   .     S
C573   N579    1.373   .     A
C573   O599    1.383   .     S
C573   C1129   1.439   .     S
C574   N580    1.381   .     A
C574   O610    1.385   .     S
N579   Zn589   2.020   .     S
N580   Zn590   2.020   .     S
O581   Zn589   1.981   .     S
O582   Zn590   1.981   .     S
O583   Zn590   1.990   .     S
O584   Zn589   1.990   .     S
O585   Zn589   1.985   .     S
O586   Zn590   1.985   .     S
O587   Zn590   1.986   .     S
O588   Zn589   1.986   .     S
O591   C625    1.390   .     S
O591   H654    0.991   .     S
H592   O715    0.991   1_455 S
O593   C688    1.387   1_455 S
O593   H718    0.992   1_455 S
H594   O655    0.992   .     S
O595   H596    0.990   .     S
O597   H598    0.990   .     S
O599   C600    1.416   .     S
C600   H601    1.114   .     S
C600   C603    1.530   .     S
C600   H1160   1.112   .     S
C603   H605    1.112   .     S
C603   H604    1.111   .     S
C603   C668    1.526   .     S
C606   H608    1.110   .     S
C606   H607    1.111   .     S
C606   H609    1.109   .     S
C606   C727    1.526   1_455 S
O610   C611    1.422   .     S
C611   H612    1.109   .     S
C611   H613    1.117   .     S
C611   C614    1.535   .     S
C614   C989    1.529   1_545 S
H615   C1172   1.111   .     S
H616   C1172   1.109   .     S
C617   H618    1.111   .     S
C617   H620    1.111   .     S
C617   C800    1.529   .     S
H619   C1175   1.110   .     S
C621   O645    1.288   .     A
C621   C632    1.410   .     S
C621   O643    1.281   .     A
C622   O646    1.285   .     A
C622   C631    1.408   .     S
C622   O644    1.284   .     A
C623   O647    1.279   .     A
C623   O649    1.286   .     A
C623   C625    1.413   .     S
C624   O650    1.287   .     A
C624   O648    1.276   .     A
C624   C626    1.410   .     S
C626   C687    1.344   .     S
C626   O717    1.387   .     S
C627   C632    1.394   .     A
C627   H637    1.083   .     S
C627   C1001   1.371   1_545 S
C628   C631    1.394   .     A
C628   H638    1.084   .     S
C628   C816    1.371   .     S
C629   C631    1.395   .     A
C629   H639    1.083   .     S
C629   C813    1.371   .     S
C630   C632    1.396   .     A
C630   H640    1.084   .     S
C630   C1000   1.371   1_545 S
C633   O657    1.378   .     S
C633   N642    1.366   .     A
C634   N641    1.359   .     A
C634   O659    1.375   .     S
C634   C1194   1.432   .     S
C635   N641    1.373   .     A
C635   O661    1.383   .     S
C635   C1191   1.439   .     S
C636   N642    1.381   .     A
C636   O672    1.385   .     S
N641   Zn651   2.020   .     S
N642   Zn652   2.020   .     S
O643   Zn651   1.981   .     S
O644   Zn652   1.981   .     S
O645   Zn652   1.990   .     S
O646   Zn651   1.990   .     S
O647   Zn651   1.985   .     S
O648   Zn652   1.985   .     S
O649   Zn652   1.986   .     S
O650   Zn651   1.986   .     S
O653   C687    1.390   .     S
O653   H716    0.991   .     S
H656   O717    0.992   .     S
O657   H658    0.990   .     S
O659   H660    0.990   .     S
O661   C662    1.416   .     S
C662   H663    1.114   .     S
C662   C665    1.530   .     S
C662   H1222   1.112   .     S
C665   H667    1.112   .     S
C665   H666    1.111   .     S
C665   C730    1.526   .     S
C668   H670    1.110   .     S
C668   H669    1.111   .     S
C668   H671    1.109   .     S
O672   C673    1.422   .     S
C673   H674    1.109   .     S
C673   H675    1.117   .     S
C673   C676    1.535   .     S
C676   C1051   1.529   1_545 S
H677   C1234   1.111   .     S
H678   C1234   1.109   .     S
C679   H680    1.111   .     S
C679   H682    1.111   .     S
C679   C862    1.529   .     S
H681   C1237   1.110   .     S
C683   O707    1.288   .     A
C683   C694    1.410   .     S
C683   O705    1.281   .     A
C684   O708    1.285   .     A
C684   C693    1.408   .     S
C684   O706    1.284   .     A
C685   O709    1.279   .     A
C685   O711    1.286   .     A
C685   C687    1.413   .     S
C686   O712    1.287   .     A
C686   O710    1.276   .     A
C686   C688    1.410   .     S
C688   C563    1.344   1_655 S
C688   O593    1.387   1_655 S
C689   C694    1.394   .     A
C689   H699    1.083   .     S
C689   C1063   1.371   1_545 S
C690   C693    1.394   .     A
C690   H700    1.084   .     S
C690   C878    1.371   .     S
C691   C693    1.395   .     A
C691   H701    1.083   .     S
C691   C875    1.371   .     S
C692   C694    1.396   .     A
C692   H702    1.084   .     S
C692   C1062   1.371   1_545 S
C695   O719    1.378   .     S
C695   N704    1.366   .     A
C696   N703    1.359   .     A
C696   O721    1.375   .     S
C696   C1256   1.432   .     S
C697   N703    1.373   .     A
C697   O723    1.383   .     S
C697   C1253   1.439   .     S
C698   N704    1.381   .     A
C698   O734    1.385   .     S
N703   Zn713   2.020   .     S
N704   Zn714   2.020   .     S
O705   Zn713   1.981   .     S
O706   Zn714   1.981   .     S
O707   Zn714   1.990   .     S
O708   Zn713   1.990   .     S
O709   Zn713   1.985   .     S
O710   Zn714   1.985   .     S
O711   Zn714   1.986   .     S
O712   Zn713   1.986   .     S
O715   C563    1.390   1_655 S
O715   H592    0.991   1_655 S
H718   O593    0.992   1_655 S
O719   H720    0.990   .     S
O721   H722    0.990   .     S
O723   C724    1.416   .     S
C724   H725    1.114   .     S
C724   C727    1.530   .     S
C724   H1284   1.112   .     S
C727   H729    1.112   .     S
C727   H728    1.111   .     S
C727   C606    1.526   1_655 S
C730   H732    1.110   .     S
C730   H731    1.111   .     S
C730   H733    1.109   .     S
O734   C735    1.422   .     S
C735   H736    1.109   .     S
C735   H737    1.117   .     S
C735   C738    1.535   .     S
C738   C1113   1.529   1_545 S
H739   C1296   1.111   .     S
H740   C1296   1.109   .     S
C741   H742    1.111   .     S
C741   H744    1.111   .     S
C741   C924    1.529   .     S
H743   C1299   1.110   .     S
C745   O769    1.288   .     A
C745   C756    1.410   .     S
C745   O767    1.281   .     A
C746   O770    1.285   .     A
C746   C755    1.408   .     S
C746   O768    1.284   .     A
C747   O771    1.279   .     A
C747   O773    1.286   .     A
C747   C749    1.413   .     S
C748   O774    1.287   .     A
C748   O772    1.276   .     A
C748   C750    1.410   .     S
C749   C874    1.344   1_455 S
C749   O901    1.390   1_455 S
C750   C811    1.344   .     S
C750   O841    1.387   .     S
C751   C756    1.394   .     A
C751   H761    1.083   .     S
C752   C755    1.394   .     A
C752   H762    1.084   .     S
C752   C940    1.371   .     S
C753   C755    1.395   .     A
C753   H763    1.083   .     S
C753   C937    1.371   .     S
C754   C756    1.396   .     A
C754   H764    1.084   .     S
C757   O781    1.378   .     S
C757   N766    1.366   .     A
C758   N765    1.359   .     A
C758   O783    1.375   .     S
C758   C1318   1.432   .     S
C759   N765    1.373   .     A
C759   O785    1.383   .     S
C759   C1315   1.439   .     S
C760   N766    1.381   .     A
C760   O796    1.385   .     S
N765   Zn775   2.020   .     S
N766   Zn776   2.020   .     S
O767   Zn775   1.981   .     S
O768   Zn776   1.981   .     S
O769   Zn776   1.990   .     S
O770   Zn775   1.990   .     S
O771   Zn775   1.985   .     S
O772   Zn776   1.985   .     S
O773   Zn776   1.986   .     S
O774   Zn775   1.986   .     S
O777   C811    1.390   .     S
O777   H840    0.991   .     S
H778   O901    0.991   1_455 S
O779   C874    1.387   1_455 S
O779   H904    0.992   1_455 S
H780   O841    0.992   .     S
O781   H782    0.990   .     S
O783   H784    0.990   .     S
O785   C786    1.416   .     S
C786   H787    1.114   .     S
C786   C789    1.530   .     S
C786   H1346   1.112   .     S
C789   H791    1.112   .     S
C789   H790    1.111   .     S
C789   C854    1.526   .     S
C792   H794    1.110   .     S
C792   H793    1.111   .     S
C792   H795    1.109   .     S
C792   C913    1.526   1_455 S
O796   C797    1.422   .     S
C797   H798    1.109   .     S
C797   H799    1.117   .     S
C797   C800    1.535   .     S
H801   C1358   1.111   .     S
H802   C1358   1.109   .     S
C803   H804    1.111   .     S
C803   H806    1.111   .     S
C803   C986    1.529   .     S
H805   C1361   1.110   .     S
C807   O831    1.288   .     A
C807   C818    1.410   .     S
C807   O829    1.281   .     A
C808   O832    1.285   .     A
C808   C817    1.408   .     S
C808   O830    1.284   .     A
C809   O833    1.279   .     A
C809   O835    1.286   .     A
C809   C811    1.413   .     S
C810   O836    1.287   .     A
C810   O834    1.276   .     A
C810   C812    1.410   .     S
C812   C873    1.344   .     S
C812   O903    1.387   .     S
C813   C818    1.394   .     A
C813   H823    1.083   .     S
C814   C817    1.394   .     A
C814   H824    1.084   .     S
C814   C1002   1.371   .     S
C815   C817    1.395   .     A
C815   H825    1.083   .     S
C815   C999    1.371   .     S
C816   C818    1.396   .     A
C816   H826    1.084   .     S
C819   O843    1.378   .     S
C819   N828    1.366   .     A
C820   N827    1.359   .     A
C820   O845    1.375   .     S
C820   C1380   1.432   .     S
C821   N827    1.373   .     A
C821   O847    1.383   .     S
C821   C1377   1.439   .     S
C822   N828    1.381   .     A
C822   O858    1.385   .     S
N827   Zn837   2.020   .     S
N828   Zn838   2.020   .     S
O829   Zn837   1.981   .     S
O830   Zn838   1.981   .     S
O831   Zn838   1.990   .     S
O832   Zn837   1.990   .     S
O833   Zn837   1.985   .     S
O834   Zn838   1.985   .     S
O835   Zn838   1.986   .     S
O836   Zn837   1.986   .     S
O839   C873    1.390   .     S
O839   H902    0.991   .     S
H842   O903    0.992   .     S
O843   H844    0.990   .     S
O845   H846    0.990   .     S
O847   C848    1.416   .     S
C848   H849    1.114   .     S
C848   C851    1.530   .     S
C848   H1408   1.112   .     S
C851   H853    1.112   .     S
C851   H852    1.111   .     S
C851   C916    1.526   .     S
C854   H856    1.110   .     S
C854   H855    1.111   .     S
C854   H857    1.109   .     S
O858   C859    1.422   .     S
C859   H860    1.109   .     S
C859   H861    1.117   .     S
C859   C862    1.535   .     S
H863   C1420   1.111   .     S
H864   C1420   1.109   .     S
C865   H866    1.111   .     S
C865   H868    1.111   .     S
C865   C1048   1.529   .     S
H867   C1423   1.110   .     S
C869   O893    1.288   .     A
C869   C880    1.410   .     S
C869   O891    1.281   .     A
C870   O894    1.285   .     A
C870   C879    1.408   .     S
C870   O892    1.284   .     A
C871   O895    1.279   .     A
C871   O897    1.286   .     A
C871   C873    1.413   .     S
C872   O898    1.287   .     A
C872   O896    1.276   .     A
C872   C874    1.410   .     S
C874   C749    1.344   1_655 S
C874   O779    1.387   1_655 S
C875   C880    1.394   .     A
C875   H885    1.083   .     S
C876   C879    1.394   .     A
C876   H886    1.084   .     S
C876   C1064   1.371   .     S
C877   C879    1.395   .     A
C877   H887    1.083   .     S
C877   C1061   1.371   .     S
C878   C880    1.396   .     A
C878   H888    1.084   .     S
C881   O905    1.378   .     S
C881   N890    1.366   .     A
C882   N889    1.359   .     A
C882   O907    1.375   .     S
C882   C1442   1.432   .     S
C883   N889    1.373   .     A
C883   O909    1.383   .     S
C883   C1439   1.439   .     S
C884   N890    1.381   .     A
C884   O920    1.385   .     S
N889   Zn899   2.020   .     S
N890   Zn900   2.020   .     S
O891   Zn899   1.981   .     S
O892   Zn900   1.981   .     S
O893   Zn900   1.990   .     S
O894   Zn899   1.990   .     S
O895   Zn899   1.985   .     S
O896   Zn900   1.985   .     S
O897   Zn900   1.986   .     S
O898   Zn899   1.986   .     S
O901   C749    1.390   1_655 S
O901   H778    0.991   1_655 S
H904   O779    0.992   1_655 S
O905   H906    0.990   .     S
O907   H908    0.990   .     S
O909   C910    1.416   .     S
C910   H911    1.114   .     S
C910   C913    1.530   .     S
C910   H1470   1.112   .     S
C913   H915    1.112   .     S
C913   H914    1.111   .     S
C913   C792    1.526   1_655 S
C916   H918    1.110   .     S
C916   H917    1.111   .     S
C916   H919    1.109   .     S
O920   C921    1.422   .     S
C921   H922    1.109   .     S
C921   H923    1.117   .     S
C921   C924    1.535   .     S
H925   C1482   1.111   .     S
H926   C1482   1.109   .     S
C927   H928    1.111   .     S
C927   H930    1.111   .     S
C927   C1110   1.529   .     S
H929   C1485   1.110   .     S
C931   O955    1.288   .     A
C931   C942    1.410   .     S
C931   O953    1.281   .     A
C932   O956    1.285   .     A
C932   C941    1.408   .     S
C932   O954    1.284   .     A
C933   O957    1.279   .     A
C933   O959    1.286   .     A
C933   C935    1.413   .     S
C934   O960    1.287   .     A
C934   O958    1.276   .     A
C934   C936    1.410   .     S
C935   C1060   1.344   1_455 S
C935   O1087   1.390   1_455 S
C936   C997    1.344   .     S
C936   O1027   1.387   .     S
C937   C942    1.394   .     A
C937   H947    1.083   .     S
C938   C941    1.394   .     A
C938   H948    1.084   .     S
C938   C568    1.371   1_565 S
C939   C941    1.395   .     A
C939   H949    1.083   .     S
C939   C565    1.371   1_565 S
C940   C942    1.396   .     A
C940   H950    1.084   .     S
C943   O967    1.378   .     S
C943   N952    1.366   .     A
C944   N951    1.359   .     A
C944   O969    1.375   .     S
C944   C1504   1.432   .     S
C945   N951    1.373   .     A
C945   O971    1.383   .     S
C945   C1501   1.439   .     S
C946   N952    1.381   .     A
C946   O982    1.385   .     S
N951   Zn961   2.020   .     S
N952   Zn962   2.020   .     S
O953   Zn961   1.981   .     S
O954   Zn962   1.981   .     S
O955   Zn962   1.990   .     S
O956   Zn961   1.990   .     S
O957   Zn961   1.985   .     S
O958   Zn962   1.985   .     S
O959   Zn962   1.986   .     S
O960   Zn961   1.986   .     S
O963   C997    1.390   .     S
O963   H1026   0.991   .     S
H964   O1087   0.991   1_455 S
O965   C1060   1.387   1_455 S
O965   H1090   0.992   1_455 S
H966   O1027   0.992   .     S
O967   H968    0.990   .     S
O969   H970    0.990   .     S
O971   C972    1.416   .     S
C972   H973    1.114   .     S
C972   C975    1.530   .     S
C972   H1532   1.112   .     S
C975   H977    1.112   .     S
C975   H976    1.111   .     S
C975   C1040   1.526   .     S
C978   H980    1.110   .     S
C978   H979    1.111   .     S
C978   H981    1.109   .     S
C978   C1099   1.526   1_455 S
O982   C983    1.422   .     S
C983   H984    1.109   .     S
C983   H985    1.117   .     S
C983   C986    1.535   .     S
H987   C1544   1.111   .     S
H988   C1544   1.109   .     S
C989   H990    1.111   .     S
C989   H992    1.111   .     S
C989   C614    1.529   1_565 S
H991   C1547   1.110   .     S
C993   O1017   1.288   .     A
C993   C1004   1.410   .     S
C993   O1015   1.281   .     A
C994   O1018   1.285   .     A
C994   C1003   1.408   .     S
C994   O1016   1.284   .     A
C995   O1019   1.279   .     A
C995   O1021   1.286   .     A
C995   C997    1.413   .     S
C996   O1022   1.287   .     A
C996   O1020   1.276   .     A
C996   C998    1.410   .     S
C998   C1059   1.344   .     S
C998   O1089   1.387   .     S
C999   C1004   1.394   .     A
C999   H1009   1.083   .     S
C1000  C1003   1.394   .     A
C1000  H1010   1.084   .     S
C1000  C630    1.371   1_565 S
C1001  C1003   1.395   .     A
C1001  H1011   1.083   .     S
C1001  C627    1.371   1_565 S
C1002  C1004   1.396   .     A
C1002  H1012   1.084   .     S
C1005  O1029   1.378   .     S
C1005  N1014   1.366   .     A
C1006  N1013   1.359   .     A
C1006  O1031   1.375   .     S
C1006  C1566   1.432   .     S
C1007  N1013   1.373   .     A
C1007  O1033   1.383   .     S
C1007  C1563   1.439   .     S
C1008  N1014   1.381   .     A
C1008  O1044   1.385   .     S
N1013  Zn1023  2.020   .     S
N1014  Zn1024  2.020   .     S
O1015  Zn1023  1.981   .     S
O1016  Zn1024  1.981   .     S
O1017  Zn1024  1.990   .     S
O1018  Zn1023  1.990   .     S
O1019  Zn1023  1.985   .     S
O1020  Zn1024  1.985   .     S
O1021  Zn1024  1.986   .     S
O1022  Zn1023  1.986   .     S
O1025  C1059   1.390   .     S
O1025  H1088   0.991   .     S
H1028  O1089   0.992   .     S
O1029  H1030   0.990   .     S
O1031  H1032   0.990   .     S
O1033  C1034   1.416   .     S
C1034  H1035   1.114   .     S
C1034  C1037   1.530   .     S
C1034  H1594   1.112   .     S
C1037  H1039   1.112   .     S
C1037  H1038   1.111   .     S
C1037  C1102   1.526   .     S
C1040  H1042   1.110   .     S
C1040  H1041   1.111   .     S
C1040  H1043   1.109   .     S
O1044  C1045   1.422   .     S
C1045  H1046   1.109   .     S
C1045  H1047   1.117   .     S
C1045  C1048   1.535   .     S
H1049  C1606   1.111   .     S
H1050  C1606   1.109   .     S
C1051  H1052   1.111   .     S
C1051  H1054   1.111   .     S
C1051  C676    1.529   1_565 S
H1053  C1609   1.110   .     S
C1055  O1079   1.288   .     A
C1055  C1066   1.410   .     S
C1055  O1077   1.281   .     A
C1056  O1080   1.285   .     A
C1056  C1065   1.408   .     S
C1056  O1078   1.284   .     A
C1057  O1081   1.279   .     A
C1057  O1083   1.286   .     A
C1057  C1059   1.413   .     S
C1058  O1084   1.287   .     A
C1058  O1082   1.276   .     A
C1058  C1060   1.410   .     S
C1060  C935    1.344   1_655 S
C1060  O965    1.387   1_655 S
C1061  C1066   1.394   .     A
C1061  H1071   1.083   .     S
C1062  C1065   1.394   .     A
C1062  H1072   1.084   .     S
C1062  C692    1.371   1_565 S
C1063  C1065   1.395   .     A
C1063  H1073   1.083   .     S
C1063  C689    1.371   1_565 S
C1064  C1066   1.396   .     A
C1064  H1074   1.084   .     S
C1067  O1091   1.378   .     S
C1067  N1076   1.366   .     A
C1068  N1075   1.359   .     A
C1068  O1093   1.375   .     S
C1068  C1628   1.432   .     S
C1069  N1075   1.373   .     A
C1069  O1095   1.383   .     S
C1069  C1625   1.439   .     S
C1070  N1076   1.381   .     A
C1070  O1106   1.385   .     S
N1075  Zn1085  2.020   .     S
N1076  Zn1086  2.020   .     S
O1077  Zn1085  1.981   .     S
O1078  Zn1086  1.981   .     S
O1079  Zn1086  1.990   .     S
O1080  Zn1085  1.990   .     S
O1081  Zn1085  1.985   .     S
O1082  Zn1086  1.985   .     S
O1083  Zn1086  1.986   .     S
O1084  Zn1085  1.986   .     S
O1087  C935    1.390   1_655 S
O1087  H964    0.991   1_655 S
H1090  O965    0.992   1_655 S
O1091  H1092   0.990   .     S
O1093  H1094   0.990   .     S
O1095  C1096   1.416   .     S
C1096  H1097   1.114   .     S
C1096  C1099   1.530   .     S
C1096  H1656   1.112   .     S
C1099  H1101   1.112   .     S
C1099  H1100   1.111   .     S
C1099  C978    1.526   1_655 S
C1102  H1104   1.110   .     S
C1102  H1103   1.111   .     S
C1102  H1105   1.109   .     S
O1106  C1107   1.422   .     S
C1107  H1108   1.109   .     S
C1107  H1109   1.117   .     S
C1107  C1110   1.535   .     S
H1111  C1668   1.111   .     S
H1112  C1668   1.109   .     S
C1113  H1114   1.111   .     S
C1113  H1116   1.111   .     S
C1113  C738    1.529   1_565 S
H1115  C1671   1.110   .     S
C1117  O1141   1.288   .     A
C1117  C1128   1.410   .     S
C1117  O1139   1.281   .     A
C1118  O1142   1.285   .     A
C1118  C1127   1.408   .     S
C1118  O1140   1.284   .     A
C1119  O1143   1.279   .     A
C1119  O1145   1.286   .     A
C1119  C1121   1.413   .     S
C1120  O1146   1.287   .     A
C1120  O1144   1.276   .     A
C1120  C1122   1.410   .     S
C1121  C1246   1.344   1_455 S
C1121  O1273   1.390   1_455 S
C1122  C1183   1.344   .     S
C1122  O1213   1.387   .     S
C1123  C1128   1.394   .     A
C1123  H1133   1.083   .     S
C1123  C1497   1.371   1_545 S
C1124  C1127   1.394   .     A
C1124  H1134   1.084   .     S
C1124  C1312   1.371   .     S
C1125  C1127   1.395   .     A
C1125  H1135   1.083   .     S
C1125  C1309   1.371   .     S
C1126  C1128   1.396   .     A
C1126  H1136   1.084   .     S
C1126  C1496   1.371   1_545 S
C1129  O1153   1.378   .     S
C1129  N1138   1.366   .     A
C1130  N1137   1.359   .     A
C1130  O1155   1.375   .     S
C1130  C16     1.432   1_556 S
C1131  N1137   1.373   .     A
C1131  O1157   1.383   .     S
C1131  C13     1.439   1_556 S
C1132  N1138   1.381   .     A
C1132  O1168   1.385   .     S
N1137  Zn1147  2.020   .     S
N1138  Zn1148  2.020   .     S
O1139  Zn1147  1.981   .     S
O1140  Zn1148  1.981   .     S
O1141  Zn1148  1.990   .     S
O1142  Zn1147  1.990   .     S
O1143  Zn1147  1.985   .     S
O1144  Zn1148  1.985   .     S
O1145  Zn1148  1.986   .     S
O1146  Zn1147  1.986   .     S
O1149  C1183   1.390   .     S
O1149  H1212   0.991   .     S
H1150  O1273   0.991   1_455 S
O1151  C1246   1.387   1_455 S
O1151  H1276   0.992   1_455 S
H1152  O1213   0.992   .     S
O1153  H1154   0.990   .     S
O1155  H1156   0.990   .     S
O1157  C1158   1.416   .     S
C1158  H1159   1.114   .     S
C1158  C1161   1.530   .     S
C1158  H44     1.112   1_556 S
C1161  H1163   1.112   .     S
C1161  H1162   1.111   .     S
C1161  C1226   1.526   .     S
C1164  H1166   1.110   .     S
C1164  H1165   1.111   .     S
C1164  H1167   1.109   .     S
C1164  C1285   1.526   1_455 S
O1168  C1169   1.422   .     S
C1169  H1170   1.109   .     S
C1169  H1171   1.117   .     S
C1169  C1172   1.535   .     S
C1172  C1547   1.529   1_545 S
H1173  C56     1.111   1_556 S
H1174  C56     1.109   1_556 S
C1175  H1176   1.111   .     S
C1175  H1178   1.111   .     S
C1175  C1358   1.529   .     S
H1177  C59     1.110   1_556 S
C1179  O1203   1.288   .     A
C1179  C1190   1.410   .     S
C1179  O1201   1.281   .     A
C1180  O1204   1.285   .     A
C1180  C1189   1.408   .     S
C1180  O1202   1.284   .     A
C1181  O1205   1.279   .     A
C1181  O1207   1.286   .     A
C1181  C1183   1.413   .     S
C1182  O1208   1.287   .     A
C1182  O1206   1.276   .     A
C1182  C1184   1.410   .     S
C1184  C1245   1.344   .     S
C1184  O1275   1.387   .     S
C1185  C1190   1.394   .     A
C1185  H1195   1.083   .     S
C1185  C1559   1.371   1_545 S
C1186  C1189   1.394   .     A
C1186  H1196   1.084   .     S
C1186  C1374   1.371   .     S
C1187  C1189   1.395   .     A
C1187  H1197   1.083   .     S
C1187  C1371   1.371   .     S
C1188  C1190   1.396   .     A
C1188  H1198   1.084   .     S
C1188  C1558   1.371   1_545 S
C1191  O1215   1.378   .     S
C1191  N1200   1.366   .     A
C1192  N1199   1.359   .     A
C1192  O1217   1.375   .     S
C1192  C78     1.432   1_556 S
C1193  N1199   1.373   .     A
C1193  O1219   1.383   .     S
C1193  C75     1.439   1_556 S
C1194  N1200   1.381   .     A
C1194  O1230   1.385   .     S
N1199  Zn1209  2.020   .     S
N1200  Zn1210  2.020   .     S
O1201  Zn1209  1.981   .     S
O1202  Zn1210  1.981   .     S
O1203  Zn1210  1.990   .     S
O1204  Zn1209  1.990   .     S
O1205  Zn1209  1.985   .     S
O1206  Zn1210  1.985   .     S
O1207  Zn1210  1.986   .     S
O1208  Zn1209  1.986   .     S
O1211  C1245   1.390   .     S
O1211  H1274   0.991   .     S
H1214  O1275   0.992   .     S
O1215  H1216   0.990   .     S
O1217  H1218   0.990   .     S
O1219  C1220   1.416   .     S
C1220  H1221   1.114   .     S
C1220  C1223   1.530   .     S
C1220  H106    1.112   1_556 S
C1223  H1225   1.112   .     S
C1223  H1224   1.111   .     S
C1223  C1288   1.526   .     S
C1226  H1228   1.110   .     S
C1226  H1227   1.111   .     S
C1226  H1229   1.109   .     S
O1230  C1231   1.422   .     S
C1231  H1232   1.109   .     S
C1231  H1233   1.117   .     S
C1231  C1234   1.535   .     S
C1234  C1609   1.529   1_545 S
H1235  C118    1.111   1_556 S
H1236  C118    1.109   1_556 S
C1237  H1238   1.111   .     S
C1237  H1240   1.111   .     S
C1237  C1420   1.529   .     S
H1239  C121    1.110   1_556 S
C1241  O1265   1.288   .     A
C1241  C1252   1.410   .     S
C1241  O1263   1.281   .     A
C1242  O1266   1.285   .     A
C1242  C1251   1.408   .     S
C1242  O1264   1.284   .     A
C1243  O1267   1.279   .     A
C1243  O1269   1.286   .     A
C1243  C1245   1.413   .     S
C1244  O1270   1.287   .     A
C1244  O1268   1.276   .     A
C1244  C1246   1.410   .     S
C1246  C1121   1.344   1_655 S
C1246  O1151   1.387   1_655 S
C1247  C1252   1.394   .     A
C1247  H1257   1.083   .     S
C1247  C1621   1.371   1_545 S
C1248  C1251   1.394   .     A
C1248  H1258   1.084   .     S
C1248  C1436   1.371   .     S
C1249  C1251   1.395   .     A
C1249  H1259   1.083   .     S
C1249  C1433   1.371   .     S
C1250  C1252   1.396   .     A
C1250  H1260   1.084   .     S
C1250  C1620   1.371   1_545 S
C1253  O1277   1.378   .     S
C1253  N1262   1.366   .     A
C1254  N1261   1.359   .     A
C1254  O1279   1.375   .     S
C1254  C140    1.432   1_556 S
C1255  N1261   1.373   .     A
C1255  O1281   1.383   .     S
C1255  C137    1.439   1_556 S
C1256  N1262   1.381   .     A
C1256  O1292   1.385   .     S
N1261  Zn1271  2.020   .     S
N1262  Zn1272  2.020   .     S
O1263  Zn1271  1.981   .     S
O1264  Zn1272  1.981   .     S
O1265  Zn1272  1.990   .     S
O1266  Zn1271  1.990   .     S
O1267  Zn1271  1.985   .     S
O1268  Zn1272  1.985   .     S
O1269  Zn1272  1.986   .     S
O1270  Zn1271  1.986   .     S
O1273  C1121   1.390   1_655 S
O1273  H1150   0.991   1_655 S
H1276  O1151   0.992   1_655 S
O1277  H1278   0.990   .     S
O1279  H1280   0.990   .     S
O1281  C1282   1.416   .     S
C1282  H1283   1.114   .     S
C1282  C1285   1.530   .     S
C1282  H168    1.112   1_556 S
C1285  H1287   1.112   .     S
C1285  H1286   1.111   .     S
C1285  C1164   1.526   1_655 S
C1288  H1290   1.110   .     S
C1288  H1289   1.111   .     S
C1288  H1291   1.109   .     S
O1292  C1293   1.422   .     S
C1293  H1294   1.109   .     S
C1293  H1295   1.117   .     S
C1293  C1296   1.535   .     S
C1296  C1671   1.529   1_545 S
H1297  C180    1.111   1_556 S
H1298  C180    1.109   1_556 S
C1299  H1300   1.111   .     S
C1299  H1302   1.111   .     S
C1299  C1482   1.529   .     S
H1301  C183    1.110   1_556 S
C1303  O1327   1.288   .     A
C1303  C1314   1.410   .     S
C1303  O1325   1.281   .     A
C1304  O1328   1.285   .     A
C1304  C1313   1.408   .     S
C1304  O1326   1.284   .     A
C1305  O1329   1.279   .     A
C1305  O1331   1.286   .     A
C1305  C1307   1.413   .     S
C1306  O1332   1.287   .     A
C1306  O1330   1.276   .     A
C1306  C1308   1.410   .     S
C1307  C1432   1.344   1_455 S
C1307  O1459   1.390   1_455 S
C1308  C1369   1.344   .     S
C1308  O1399   1.387   .     S
C1309  C1314   1.394   .     A
C1309  H1319   1.083   .     S
C1310  C1313   1.394   .     A
C1310  H1320   1.084   .     S
C1310  C1498   1.371   .     S
C1311  C1313   1.395   .     A
C1311  H1321   1.083   .     S
C1311  C1495   1.371   .     S
C1312  C1314   1.396   .     A
C1312  H1322   1.084   .     S
C1315  O1339   1.378   .     S
C1315  N1324   1.366   .     A
C1316  N1323   1.359   .     A
C1316  O1341   1.375   .     S
C1316  C202    1.432   1_556 S
C1317  N1323   1.373   .     A
C1317  O1343   1.383   .     S
C1317  C199    1.439   1_556 S
C1318  N1324   1.381   .     A
C1318  O1354   1.385   .     S
N1323  Zn1333  2.020   .     S
N1324  Zn1334  2.020   .     S
O1325  Zn1333  1.981   .     S
O1326  Zn1334  1.981   .     S
O1327  Zn1334  1.990   .     S
O1328  Zn1333  1.990   .     S
O1329  Zn1333  1.985   .     S
O1330  Zn1334  1.985   .     S
O1331  Zn1334  1.986   .     S
O1332  Zn1333  1.986   .     S
O1335  C1369   1.390   .     S
O1335  H1398   0.991   .     S
H1336  O1459   0.991   1_455 S
O1337  C1432   1.387   1_455 S
O1337  H1462   0.992   1_455 S
H1338  O1399   0.992   .     S
O1339  H1340   0.990   .     S
O1341  H1342   0.990   .     S
O1343  C1344   1.416   .     S
C1344  H1345   1.114   .     S
C1344  C1347   1.530   .     S
C1344  H230    1.112   1_556 S
C1347  H1349   1.112   .     S
C1347  H1348   1.111   .     S
C1347  C1412   1.526   .     S
C1350  H1352   1.110   .     S
C1350  H1351   1.111   .     S
C1350  H1353   1.109   .     S
C1350  C1471   1.526   1_455 S
O1354  C1355   1.422   .     S
C1355  H1356   1.109   .     S
C1355  H1357   1.117   .     S
C1355  C1358   1.535   .     S
H1359  C242    1.111   1_556 S
H1360  C242    1.109   1_556 S
C1361  H1362   1.111   .     S
C1361  H1364   1.111   .     S
C1361  C1544   1.529   .     S
H1363  C245    1.110   1_556 S
C1365  O1389   1.288   .     A
C1365  C1376   1.410   .     S
C1365  O1387   1.281   .     A
C1366  O1390   1.285   .     A
C1366  C1375   1.408   .     S
C1366  O1388   1.284   .     A
C1367  O1391   1.279   .     A
C1367  O1393   1.286   .     A
C1367  C1369   1.413   .     S
C1368  O1394   1.287   .     A
C1368  O1392   1.276   .     A
C1368  C1370   1.410   .     S
C1370  C1431   1.344   .     S
C1370  O1461   1.387   .     S
C1371  C1376   1.394   .     A
C1371  H1381   1.083   .     S
C1372  C1375   1.394   .     A
C1372  H1382   1.084   .     S
C1372  C1560   1.371   .     S
C1373  C1375   1.395   .     A
C1373  H1383   1.083   .     S
C1373  C1557   1.371   .     S
C1374  C1376   1.396   .     A
C1374  H1384   1.084   .     S
C1377  O1401   1.378   .     S
C1377  N1386   1.366   .     A
C1378  N1385   1.359   .     A
C1378  O1403   1.375   .     S
C1378  C264    1.432   1_556 S
C1379  N1385   1.373   .     A
C1379  O1405   1.383   .     S
C1379  C261    1.439   1_556 S
C1380  N1386   1.381   .     A
C1380  O1416   1.385   .     S
N1385  Zn1395  2.020   .     S
N1386  Zn1396  2.020   .     S
O1387  Zn1395  1.981   .     S
O1388  Zn1396  1.981   .     S
O1389  Zn1396  1.990   .     S
O1390  Zn1395  1.990   .     S
O1391  Zn1395  1.985   .     S
O1392  Zn1396  1.985   .     S
O1393  Zn1396  1.986   .     S
O1394  Zn1395  1.986   .     S
O1397  C1431   1.390   .     S
O1397  H1460   0.991   .     S
H1400  O1461   0.992   .     S
O1401  H1402   0.990   .     S
O1403  H1404   0.990   .     S
O1405  C1406   1.416   .     S
C1406  H1407   1.114   .     S
C1406  C1409   1.530   .     S
C1406  H292    1.112   1_556 S
C1409  H1411   1.112   .     S
C1409  H1410   1.111   .     S
C1409  C1474   1.526   .     S
C1412  H1414   1.110   .     S
C1412  H1413   1.111   .     S
C1412  H1415   1.109   .     S
O1416  C1417   1.422   .     S
C1417  H1418   1.109   .     S
C1417  H1419   1.117   .     S
C1417  C1420   1.535   .     S
H1421  C304    1.111   1_556 S
H1422  C304    1.109   1_556 S
C1423  H1424   1.111   .     S
C1423  H1426   1.111   .     S
C1423  C1606   1.529   .     S
H1425  C307    1.110   1_556 S
C1427  O1451   1.288   .     A
C1427  C1438   1.410   .     S
C1427  O1449   1.281   .     A
C1428  O1452   1.285   .     A
C1428  C1437   1.408   .     S
C1428  O1450   1.284   .     A
C1429  O1453   1.279   .     A
C1429  O1455   1.286   .     A
C1429  C1431   1.413   .     S
C1430  O1456   1.287   .     A
C1430  O1454   1.276   .     A
C1430  C1432   1.410   .     S
C1432  C1307   1.344   1_655 S
C1432  O1337   1.387   1_655 S
C1433  C1438   1.394   .     A
C1433  H1443   1.083   .     S
C1434  C1437   1.394   .     A
C1434  H1444   1.084   .     S
C1434  C1622   1.371   .     S
C1435  C1437   1.395   .     A
C1435  H1445   1.083   .     S
C1435  C1619   1.371   .     S
C1436  C1438   1.396   .     A
C1436  H1446   1.084   .     S
C1439  O1463   1.378   .     S
C1439  N1448   1.366   .     A
C1440  N1447   1.359   .     A
C1440  O1465   1.375   .     S
C1440  C326    1.432   1_556 S
C1441  N1447   1.373   .     A
C1441  O1467   1.383   .     S
C1441  C323    1.439   1_556 S
C1442  N1448   1.381   .     A
C1442  O1478   1.385   .     S
N1447  Zn1457  2.020   .     S
N1448  Zn1458  2.020   .     S
O1449  Zn1457  1.981   .     S
O1450  Zn1458  1.981   .     S
O1451  Zn1458  1.990   .     S
O1452  Zn1457  1.990   .     S
O1453  Zn1457  1.985   .     S
O1454  Zn1458  1.985   .     S
O1455  Zn1458  1.986   .     S
O1456  Zn1457  1.986   .     S
O1459  C1307   1.390   1_655 S
O1459  H1336   0.991   1_655 S
H1462  O1337   0.992   1_655 S
O1463  H1464   0.990   .     S
O1465  H1466   0.990   .     S
O1467  C1468   1.416   .     S
C1468  H1469   1.114   .     S
C1468  C1471   1.530   .     S
C1468  H354    1.112   1_556 S
C1471  H1473   1.112   .     S
C1471  H1472   1.111   .     S
C1471  C1350   1.526   1_655 S
C1474  H1476   1.110   .     S
C1474  H1475   1.111   .     S
C1474  H1477   1.109   .     S
O1478  C1479   1.422   .     S
C1479  H1480   1.109   .     S
C1479  H1481   1.117   .     S
C1479  C1482   1.535   .     S
H1483  C366    1.111   1_556 S
H1484  C366    1.109   1_556 S
C1485  H1486   1.111   .     S
C1485  H1488   1.111   .     S
C1485  C1668   1.529   .     S
H1487  C369    1.110   1_556 S
C1489  O1513   1.288   .     A
C1489  C1500   1.410   .     S
C1489  O1511   1.281   .     A
C1490  O1514   1.285   .     A
C1490  C1499   1.408   .     S
C1490  O1512   1.284   .     A
C1491  O1515   1.279   .     A
C1491  O1517   1.286   .     A
C1491  C1493   1.413   .     S
C1492  O1518   1.287   .     A
C1492  O1516   1.276   .     A
C1492  C1494   1.410   .     S
C1493  C1618   1.344   1_455 S
C1493  O1645   1.390   1_455 S
C1494  C1555   1.344   .     S
C1494  O1585   1.387   .     S
C1495  C1500   1.394   .     A
C1495  H1505   1.083   .     S
C1496  C1499   1.394   .     A
C1496  H1506   1.084   .     S
C1496  C1126   1.371   1_565 S
C1497  C1499   1.395   .     A
C1497  H1507   1.083   .     S
C1497  C1123   1.371   1_565 S
C1498  C1500   1.396   .     A
C1498  H1508   1.084   .     S
C1501  O1525   1.378   .     S
C1501  N1510   1.366   .     A
C1502  N1509   1.359   .     A
C1502  O1527   1.375   .     S
C1502  C388    1.432   1_556 S
C1503  N1509   1.373   .     A
C1503  O1529   1.383   .     S
C1503  C385    1.439   1_556 S
C1504  N1510   1.381   .     A
C1504  O1540   1.385   .     S
N1509  Zn1519  2.020   .     S
N1510  Zn1520  2.020   .     S
O1511  Zn1519  1.981   .     S
O1512  Zn1520  1.981   .     S
O1513  Zn1520  1.990   .     S
O1514  Zn1519  1.990   .     S
O1515  Zn1519  1.985   .     S
O1516  Zn1520  1.985   .     S
O1517  Zn1520  1.986   .     S
O1518  Zn1519  1.986   .     S
O1521  C1555   1.390   .     S
O1521  H1584   0.991   .     S
H1522  O1645   0.991   1_455 S
O1523  C1618   1.387   1_455 S
O1523  H1648   0.992   1_455 S
H1524  O1585   0.992   .     S
O1525  H1526   0.990   .     S
O1527  H1528   0.990   .     S
O1529  C1530   1.416   .     S
C1530  H1531   1.114   .     S
C1530  C1533   1.530   .     S
C1530  H416    1.112   1_556 S
C1533  H1535   1.112   .     S
C1533  H1534   1.111   .     S
C1533  C1598   1.526   .     S
C1536  H1538   1.110   .     S
C1536  H1537   1.111   .     S
C1536  H1539   1.109   .     S
C1536  C1657   1.526   1_455 S
O1540  C1541   1.422   .     S
C1541  H1542   1.109   .     S
C1541  H1543   1.117   .     S
C1541  C1544   1.535   .     S
H1545  C428    1.111   1_556 S
H1546  C428    1.109   1_556 S
C1547  H1548   1.111   .     S
C1547  H1550   1.111   .     S
C1547  C1172   1.529   1_565 S
H1549  C431    1.110   1_556 S
C1551  O1575   1.288   .     A
C1551  C1562   1.410   .     S
C1551  O1573   1.281   .     A
C1552  O1576   1.285   .     A
C1552  C1561   1.408   .     S
C1552  O1574   1.284   .     A
C1553  O1577   1.279   .     A
C1553  O1579   1.286   .     A
C1553  C1555   1.413   .     S
C1554  O1580   1.287   .     A
C1554  O1578   1.276   .     A
C1554  C1556   1.410   .     S
C1556  C1617   1.344   .     S
C1556  O1647   1.387   .     S
C1557  C1562   1.394   .     A
C1557  H1567   1.083   .     S
C1558  C1561   1.394   .     A
C1558  H1568   1.084   .     S
C1558  C1188   1.371   1_565 S
C1559  C1561   1.395   .     A
C1559  H1569   1.083   .     S
C1559  C1185   1.371   1_565 S
C1560  C1562   1.396   .     A
C1560  H1570   1.084   .     S
C1563  O1587   1.378   .     S
C1563  N1572   1.366   .     A
C1564  N1571   1.359   .     A
C1564  O1589   1.375   .     S
C1564  C450    1.432   1_556 S
C1565  N1571   1.373   .     A
C1565  O1591   1.383   .     S
C1565  C447    1.439   1_556 S
C1566  N1572   1.381   .     A
C1566  O1602   1.385   .     S
N1571  Zn1581  2.020   .     S
N1572  Zn1582  2.020   .     S
O1573  Zn1581  1.981   .     S
O1574  Zn1582  1.981   .     S
O1575  Zn1582  1.990   .     S
O1576  Zn1581  1.990   .     S
O1577  Zn1581  1.985   .     S
O1578  Zn1582  1.985   .     S
O1579  Zn1582  1.986   .     S
O1580  Zn1581  1.986   .     S
O1583  C1617   1.390   .     S
O1583  H1646   0.991   .     S
H1586  O1647   0.992   .     S
O1587  H1588   0.990   .     S
O1589  H1590   0.990   .     S
O1591  C1592   1.416   .     S
C1592  H1593   1.114   .     S
C1592  C1595   1.530   .     S
C1592  H478    1.112   1_556 S
C1595  H1597   1.112   .     S
C1595  H1596   1.111   .     S
C1595  C1660   1.526   .     S
C1598  H1600   1.110   .     S
C1598  H1599   1.111   .     S
C1598  H1601   1.109   .     S
O1602  C1603   1.422   .     S
C1603  H1604   1.109   .     S
C1603  H1605   1.117   .     S
C1603  C1606   1.535   .     S
H1607  C490    1.111   1_556 S
H1608  C490    1.109   1_556 S
C1609  H1610   1.111   .     S
C1609  H1612   1.111   .     S
C1609  C1234   1.529   1_565 S
H1611  C493    1.110   1_556 S
C1613  O1637   1.288   .     A
C1613  C1624   1.410   .     S
C1613  O1635   1.281   .     A
C1614  O1638   1.285   .     A
C1614  C1623   1.408   .     S
C1614  O1636   1.284   .     A
C1615  O1639   1.279   .     A
C1615  O1641   1.286   .     A
C1615  C1617   1.413   .     S
C1616  O1642   1.287   .     A
C1616  O1640   1.276   .     A
C1616  C1618   1.410   .     S
C1618  C1493   1.344   1_655 S
C1618  O1523   1.387   1_655 S
C1619  C1624   1.394   .     A
C1619  H1629   1.083   .     S
C1620  C1623   1.394   .     A
C1620  H1630   1.084   .     S
C1620  C1250   1.371   1_565 S
C1621  C1623   1.395   .     A
C1621  H1631   1.083   .     S
C1621  C1247   1.371   1_565 S
C1622  C1624   1.396   .     A
C1622  H1632   1.084   .     S
C1625  O1649   1.378   .     S
C1625  N1634   1.366   .     A
C1626  N1633   1.359   .     A
C1626  O1651   1.375   .     S
C1626  C512    1.432   1_556 S
C1627  N1633   1.373   .     A
C1627  O1653   1.383   .     S
C1627  C509    1.439   1_556 S
C1628  N1634   1.381   .     A
C1628  O1664   1.385   .     S
N1633  Zn1643  2.020   .     S
N1634  Zn1644  2.020   .     S
O1635  Zn1643  1.981   .     S
O1636  Zn1644  1.981   .     S
O1637  Zn1644  1.990   .     S
O1638  Zn1643  1.990   .     S
O1639  Zn1643  1.985   .     S
O1640  Zn1644  1.985   .     S
O1641  Zn1644  1.986   .     S
O1642  Zn1643  1.986   .     S
O1645  C1493   1.390   1_655 S
O1645  H1522   0.991   1_655 S
H1648  O1523   0.992   1_655 S
O1649  H1650   0.990   .     S
O1651  H1652   0.990   .     S
O1653  C1654   1.416   .     S
C1654  H1655   1.114   .     S
C1654  C1657   1.530   .     S
C1654  H540    1.112   1_556 S
C1657  H1659   1.112   .     S
C1657  H1658   1.111   .     S
C1657  C1536   1.526   1_655 S
C1660  H1662   1.110   .     S
C1660  H1661   1.111   .     S
C1660  H1663   1.109   .     S
O1664  C1665   1.422   .     S
C1665  H1666   1.109   .     S
C1665  H1667   1.117   .     S
C1665  C1668   1.535   .     S
H1669  C552    1.111   1_556 S
H1670  C552    1.109   1_556 S
C1671  H1672   1.111   .     S
C1671  H1674   1.111   .     S
C1671  C1296   1.529   1_565 S
H1673  C555    1.110   1_556 S
