data_str_m3_o1_o17_pcu_sym.80
_audit_creation_date              2020-01-03
_audit_creation_method            'Materials Studio'
_symmetry_space_group_name_H-M    'P1'
_symmetry_Int_Tables_number       1
_symmetry_cell_setting            triclinic
loop_
_symmetry_equiv_pos_as_xyz
  x,y,z
_cell_length_a                    32.0142
_cell_length_b                    29.4241
_cell_length_c                    29.9297
_cell_angle_alpha                 89.9729
_cell_angle_beta                  90.1087
_cell_angle_gamma                 89.9516
loop_
_atom_site_label
_atom_site_type_symbol
_atom_site_fract_x
_atom_site_fract_y
_atom_site_fract_z
_atom_site_U_iso_or_equiv
_atom_site_adp_type
_atom_site_occupancy
C1     C     0.08672   0.16667   0.24466   0.00000  Uiso   1.00
C2     C     0.04283   0.16660   0.23268   0.00000  Uiso   1.00
C3     C     0.18467   0.02398   0.28428   0.00000  Uiso   1.00
C4     C     0.14907   0.30936   0.21550   0.00000  Uiso   1.00
C5     C     0.14908   0.02403   0.21549   0.00000  Uiso   1.00
C6     C     0.18468   0.30929   0.28428   0.00000  Uiso   1.00
C7     C     0.16670   0.16669   0.16356   0.00000  Uiso   1.00
C8     C     0.16658   0.16665   0.33636   0.00000  Uiso   1.00
C9     C     0.20411   0.16693   0.40630   0.00000  Uiso   1.00
C10    C     0.12885   0.16763   0.09356   0.00000  Uiso   1.00
C11    C     0.16604   0.16662   0.38389   0.00000  Uiso   1.00
C12    C     0.24656   0.16663   0.24466   0.00000  Uiso   1.00
C13    C     0.16698   0.16687   0.11593   0.00000  Uiso   1.00
C14    C     0.12758   0.16706   0.40591   0.00000  Uiso   1.00
C15    C     0.20529   0.16621   0.09363   0.00000  Uiso   1.00
C16    C     0.12692   0.16482   0.45297   0.00000  Uiso   1.00
C17    C     0.20578   0.16978   0.04671   0.00000  Uiso   1.00
C18    C     0.16591   0.16715   0.47634   0.00000  Uiso   1.00
C19    C     0.16681   0.16774   0.02339   0.00000  Uiso   1.00
C20    C     0.20419   0.16880   0.45274   0.00000  Uiso   1.00
C21    C     0.12862   0.16621   0.04707   0.00000  Uiso   1.00
C22    C     0.08945   0.16052   0.47793   0.00000  Uiso   1.00
C23    C     0.09082   0.16235   0.02404   0.00000  Uiso   1.00
C24    C     0.24317   0.17506   0.02191   0.00000  Uiso   1.00
C25    C     0.24191   0.17336   0.47580   0.00000  Uiso   1.00
C26    C     0.02157   0.12498   0.22631   0.00000  Uiso   1.00
C27    C     0.31150   0.20793   0.22535   0.00000  Uiso   1.00
C28    C     0.31168   0.12487   0.22650   0.00000  Uiso   1.00
C29    C     0.02141   0.20805   0.22573   0.00000  Uiso   1.00
C30    C     0.29033   0.16648   0.23259   0.00000  Uiso   1.00
Cl31   Cl    0.25142   0.16589   0.37508   0.00000  Uiso   1.00
Cl32   Cl    0.04715   0.26053   0.21533   0.00000  Uiso   1.00
Cl33   Cl    0.08163   0.16912   0.12474   0.00000  Uiso   1.00
Cl34   Cl    0.08217   0.17464   0.37237   0.00000  Uiso   1.00
Cl35   Cl    0.25072   0.15562   0.12611   0.00000  Uiso   1.00
Cl36   Cl    0.03944   0.14824   0.45598   0.00000  Uiso   1.00
Cl37   Cl    0.29260   0.18930   0.04426   0.00000  Uiso   1.00
Cl38   Cl    0.04747   0.07253   0.21595   0.00000  Uiso   1.00
Cl39   Cl    0.28532   0.25999   0.21352   0.00000  Uiso   1.00
Cl40   Cl    0.28585   0.07215   0.21700   0.00000  Uiso   1.00
H41    H     0.06154   0.15927   0.04175   0.00000  Uiso   1.00
H42    H     0.27116   0.17706   0.45814   0.00000  Uiso   1.00
H43    H     0.19913   0.04219   0.31161   0.00000  Uiso   1.00
H44    H     0.13502   0.29118   0.18791   0.00000  Uiso   1.00
H45    H     0.13505   0.04226   0.18790   0.00000  Uiso   1.00
H46    H     0.19914   0.29103   0.31161   0.00000  Uiso   1.00
N47    N     0.16667   0.28573   0.25000   0.00000  Uiso   1.00
N48    N     0.16667   0.04760   0.25000   0.00000  Uiso   1.00
O49    O     0.10559   0.20487   0.24999   0.00000  Uiso   1.00
O50    O     0.22774   0.12846   0.25000   0.00000  Uiso   1.00
O51    O     0.22774   0.20487   0.25000   0.00000  Uiso   1.00
O52    O     0.10559   0.12846   0.24999   0.00000  Uiso   1.00
O53    O     0.16666   0.20489   0.18392   0.00000  Uiso   1.00
O54    O     0.16667   0.12844   0.31607   0.00000  Uiso   1.00
O55    O     0.16667   0.20489   0.31607   0.00000  Uiso   1.00
O56    O     0.16666   0.12844   0.18392   0.00000  Uiso   1.00
Zn57   Zn    0.16667   0.21771   0.25000   0.00000  Uiso   1.00
Zn58   Zn    0.16667   0.11563   0.25000   0.00000  Uiso   1.00
C59    C     0.42006   0.16667   0.24466   0.00000  Uiso   1.00
C60    C     0.37616   0.16660   0.23268   0.00000  Uiso   1.00
C61    C     0.51801   0.02398   0.28428   0.00000  Uiso   1.00
C62    C     0.48240   0.30936   0.21550   0.00000  Uiso   1.00
C63    C     0.48241   0.02403   0.21549   0.00000  Uiso   1.00
C64    C     0.51801   0.30929   0.28428   0.00000  Uiso   1.00
C65    C     0.50004   0.16669   0.16356   0.00000  Uiso   1.00
C66    C     0.49992   0.16665   0.33636   0.00000  Uiso   1.00
C67    C     0.53744   0.16693   0.40630   0.00000  Uiso   1.00
C68    C     0.46218   0.16763   0.09356   0.00000  Uiso   1.00
C69    C     0.49938   0.16662   0.38389   0.00000  Uiso   1.00
C70    C     0.57989   0.16663   0.24466   0.00000  Uiso   1.00
C71    C     0.50031   0.16687   0.11593   0.00000  Uiso   1.00
C72    C     0.46091   0.16706   0.40591   0.00000  Uiso   1.00
C73    C     0.53862   0.16621   0.09363   0.00000  Uiso   1.00
C74    C     0.46025   0.16482   0.45297   0.00000  Uiso   1.00
C75    C     0.53911   0.16978   0.04671   0.00000  Uiso   1.00
C76    C     0.49924   0.16715   0.47634   0.00000  Uiso   1.00
C77    C     0.50015   0.16774   0.02339   0.00000  Uiso   1.00
C78    C     0.53752   0.16880   0.45274   0.00000  Uiso   1.00
C79    C     0.46195   0.16621   0.04707   0.00000  Uiso   1.00
C80    C     0.42278   0.16052   0.47793   0.00000  Uiso   1.00
C81    C     0.42416   0.16235   0.02404   0.00000  Uiso   1.00
C82    C     0.57650   0.17506   0.02191   0.00000  Uiso   1.00
C83    C     0.57524   0.17336   0.47580   0.00000  Uiso   1.00
C84    C     0.35490   0.12498   0.22631   0.00000  Uiso   1.00
C85    C     0.64484   0.20793   0.22535   0.00000  Uiso   1.00
C86    C     0.64502   0.12487   0.22650   0.00000  Uiso   1.00
C87    C     0.35474   0.20805   0.22573   0.00000  Uiso   1.00
C88    C     0.62366   0.16648   0.23259   0.00000  Uiso   1.00
Cl89   Cl    0.58475   0.16589   0.37508   0.00000  Uiso   1.00
Cl90   Cl    0.38049   0.26053   0.21533   0.00000  Uiso   1.00
Cl91   Cl    0.41496   0.16912   0.12474   0.00000  Uiso   1.00
Cl92   Cl    0.41551   0.17464   0.37237   0.00000  Uiso   1.00
Cl93   Cl    0.58406   0.15562   0.12611   0.00000  Uiso   1.00
Cl94   Cl    0.37277   0.14824   0.45598   0.00000  Uiso   1.00
Cl95   Cl    0.62593   0.18930   0.04426   0.00000  Uiso   1.00
Cl96   Cl    0.38081   0.07253   0.21595   0.00000  Uiso   1.00
Cl97   Cl    0.61866   0.25999   0.21352   0.00000  Uiso   1.00
Cl98   Cl    0.61918   0.07215   0.21700   0.00000  Uiso   1.00
H99    H     0.39488   0.15927   0.04175   0.00000  Uiso   1.00
H100   H     0.60449   0.17706   0.45814   0.00000  Uiso   1.00
H101   H     0.53247   0.04219   0.31161   0.00000  Uiso   1.00
H102   H     0.46835   0.29118   0.18791   0.00000  Uiso   1.00
H103   H     0.46838   0.04226   0.18790   0.00000  Uiso   1.00
H104   H     0.53247   0.29103   0.31161   0.00000  Uiso   1.00
N105   N     0.50000   0.28573   0.25000   0.00000  Uiso   1.00
N106   N     0.50000   0.04760   0.25000   0.00000  Uiso   1.00
O107   O     0.43892   0.20487   0.24999   0.00000  Uiso   1.00
O108   O     0.56108   0.12846   0.25000   0.00000  Uiso   1.00
O109   O     0.56108   0.20487   0.25000   0.00000  Uiso   1.00
O110   O     0.43892   0.12846   0.24999   0.00000  Uiso   1.00
O111   O     0.49999   0.20489   0.18392   0.00000  Uiso   1.00
O112   O     0.50001   0.12844   0.31607   0.00000  Uiso   1.00
O113   O     0.50001   0.20489   0.31607   0.00000  Uiso   1.00
O114   O     0.49999   0.12844   0.18392   0.00000  Uiso   1.00
Zn115  Zn    0.50000   0.21771   0.25000   0.00000  Uiso   1.00
Zn116  Zn    0.50000   0.11563   0.25000   0.00000  Uiso   1.00
C117   C     0.75339   0.16667   0.24466   0.00000  Uiso   1.00
C118   C     0.70949   0.16660   0.23268   0.00000  Uiso   1.00
C119   C     0.85134   0.02398   0.28428   0.00000  Uiso   1.00
C120   C     0.81574   0.30936   0.21550   0.00000  Uiso   1.00
C121   C     0.81574   0.02403   0.21549   0.00000  Uiso   1.00
C122   C     0.85134   0.30929   0.28428   0.00000  Uiso   1.00
C123   C     0.83337   0.16669   0.16356   0.00000  Uiso   1.00
C124   C     0.83325   0.16665   0.33636   0.00000  Uiso   1.00
C125   C     0.87077   0.16693   0.40630   0.00000  Uiso   1.00
C126   C     0.79552   0.16763   0.09356   0.00000  Uiso   1.00
C127   C     0.83271   0.16662   0.38389   0.00000  Uiso   1.00
C128   C     0.91322   0.16663   0.24466   0.00000  Uiso   1.00
C129   C     0.83364   0.16687   0.11593   0.00000  Uiso   1.00
C130   C     0.79424   0.16706   0.40591   0.00000  Uiso   1.00
C131   C     0.87195   0.16621   0.09363   0.00000  Uiso   1.00
C132   C     0.79359   0.16482   0.45297   0.00000  Uiso   1.00
C133   C     0.87245   0.16978   0.04671   0.00000  Uiso   1.00
C134   C     0.83257   0.16715   0.47634   0.00000  Uiso   1.00
C135   C     0.83348   0.16774   0.02339   0.00000  Uiso   1.00
C136   C     0.87085   0.16880   0.45274   0.00000  Uiso   1.00
C137   C     0.79528   0.16621   0.04707   0.00000  Uiso   1.00
C138   C     0.75612   0.16052   0.47793   0.00000  Uiso   1.00
C139   C     0.75749   0.16235   0.02404   0.00000  Uiso   1.00
C140   C     0.90984   0.17506   0.02191   0.00000  Uiso   1.00
C141   C     0.90857   0.17336   0.47580   0.00000  Uiso   1.00
C142   C     0.68824   0.12498   0.22631   0.00000  Uiso   1.00
C143   C     0.97817   0.20793   0.22535   0.00000  Uiso   1.00
C144   C     0.97835   0.12487   0.22650   0.00000  Uiso   1.00
C145   C     0.68807   0.20805   0.22573   0.00000  Uiso   1.00
C146   C     0.95700   0.16648   0.23259   0.00000  Uiso   1.00
Cl147  Cl    0.91809   0.16589   0.37508   0.00000  Uiso   1.00
Cl148  Cl    0.71382   0.26053   0.21533   0.00000  Uiso   1.00
Cl149  Cl    0.74830   0.16912   0.12474   0.00000  Uiso   1.00
Cl150  Cl    0.74884   0.17464   0.37237   0.00000  Uiso   1.00
Cl151  Cl    0.91739   0.15562   0.12611   0.00000  Uiso   1.00
Cl152  Cl    0.70611   0.14824   0.45598   0.00000  Uiso   1.00
Cl153  Cl    0.95926   0.18930   0.04426   0.00000  Uiso   1.00
Cl154  Cl    0.71414   0.07253   0.21595   0.00000  Uiso   1.00
Cl155  Cl    0.95199   0.25999   0.21352   0.00000  Uiso   1.00
Cl156  Cl    0.95251   0.07215   0.21700   0.00000  Uiso   1.00
H157   H     0.72821   0.15927   0.04175   0.00000  Uiso   1.00
H158   H     0.93782   0.17706   0.45814   0.00000  Uiso   1.00
H159   H     0.86580   0.04219   0.31161   0.00000  Uiso   1.00
H160   H     0.80169   0.29118   0.18791   0.00000  Uiso   1.00
H161   H     0.80171   0.04226   0.18790   0.00000  Uiso   1.00
H162   H     0.86580   0.29103   0.31161   0.00000  Uiso   1.00
N163   N     0.83333   0.28573   0.25000   0.00000  Uiso   1.00
N164   N     0.83333   0.04760   0.25000   0.00000  Uiso   1.00
O165   O     0.77226   0.20487   0.24999   0.00000  Uiso   1.00
O166   O     0.89441   0.12846   0.25000   0.00000  Uiso   1.00
O167   O     0.89441   0.20487   0.25000   0.00000  Uiso   1.00
O168   O     0.77226   0.12846   0.24999   0.00000  Uiso   1.00
O169   O     0.83333   0.20489   0.18392   0.00000  Uiso   1.00
O170   O     0.83334   0.12844   0.31607   0.00000  Uiso   1.00
O171   O     0.83334   0.20489   0.31607   0.00000  Uiso   1.00
O172   O     0.83333   0.12844   0.18392   0.00000  Uiso   1.00
Zn173  Zn    0.83333   0.21771   0.25000   0.00000  Uiso   1.00
Zn174  Zn    0.83333   0.11563   0.25000   0.00000  Uiso   1.00
C175   C     0.08672   0.50000   0.24466   0.00000  Uiso   1.00
C176   C     0.04283   0.49993   0.23268   0.00000  Uiso   1.00
C177   C     0.18467   0.35731   0.28428   0.00000  Uiso   1.00
C178   C     0.14907   0.64269   0.21550   0.00000  Uiso   1.00
C179   C     0.14908   0.35737   0.21549   0.00000  Uiso   1.00
C180   C     0.18468   0.64262   0.28428   0.00000  Uiso   1.00
C181   C     0.16670   0.50002   0.16356   0.00000  Uiso   1.00
C182   C     0.16658   0.49999   0.33636   0.00000  Uiso   1.00
C183   C     0.20411   0.50026   0.40630   0.00000  Uiso   1.00
C184   C     0.12885   0.50097   0.09356   0.00000  Uiso   1.00
C185   C     0.16604   0.49995   0.38389   0.00000  Uiso   1.00
C186   C     0.24656   0.49996   0.24466   0.00000  Uiso   1.00
C187   C     0.16698   0.50020   0.11593   0.00000  Uiso   1.00
C188   C     0.12758   0.50039   0.40591   0.00000  Uiso   1.00
C189   C     0.20529   0.49955   0.09363   0.00000  Uiso   1.00
C190   C     0.12692   0.49815   0.45297   0.00000  Uiso   1.00
C191   C     0.20578   0.50312   0.04671   0.00000  Uiso   1.00
C192   C     0.16591   0.50048   0.47634   0.00000  Uiso   1.00
C193   C     0.16681   0.50107   0.02339   0.00000  Uiso   1.00
C194   C     0.20419   0.50213   0.45274   0.00000  Uiso   1.00
C195   C     0.12862   0.49955   0.04707   0.00000  Uiso   1.00
C196   C     0.08945   0.49386   0.47793   0.00000  Uiso   1.00
C197   C     0.09082   0.49569   0.02404   0.00000  Uiso   1.00
C198   C     0.24317   0.50840   0.02191   0.00000  Uiso   1.00
C199   C     0.24191   0.50669   0.47580   0.00000  Uiso   1.00
C200   C     0.02157   0.45831   0.22631   0.00000  Uiso   1.00
C201   C     0.31150   0.54127   0.22535   0.00000  Uiso   1.00
C202   C     0.31168   0.45820   0.22650   0.00000  Uiso   1.00
C203   C     0.02141   0.54139   0.22573   0.00000  Uiso   1.00
C204   C     0.29033   0.49981   0.23259   0.00000  Uiso   1.00
Cl205  Cl    0.25142   0.49922   0.37508   0.00000  Uiso   1.00
Cl206  Cl    0.04715   0.59386   0.21533   0.00000  Uiso   1.00
Cl207  Cl    0.08163   0.50246   0.12474   0.00000  Uiso   1.00
Cl208  Cl    0.08217   0.50798   0.37237   0.00000  Uiso   1.00
Cl209  Cl    0.25072   0.48896   0.12611   0.00000  Uiso   1.00
Cl210  Cl    0.03944   0.48157   0.45598   0.00000  Uiso   1.00
Cl211  Cl    0.29260   0.52264   0.04426   0.00000  Uiso   1.00
Cl212  Cl    0.04747   0.40586   0.21595   0.00000  Uiso   1.00
Cl213  Cl    0.28532   0.59332   0.21352   0.00000  Uiso   1.00
Cl214  Cl    0.28585   0.40548   0.21700   0.00000  Uiso   1.00
H215   H     0.06154   0.49261   0.04175   0.00000  Uiso   1.00
H216   H     0.27116   0.51040   0.45814   0.00000  Uiso   1.00
H217   H     0.19913   0.37552   0.31161   0.00000  Uiso   1.00
H218   H     0.13502   0.62452   0.18791   0.00000  Uiso   1.00
H219   H     0.13505   0.37560   0.18790   0.00000  Uiso   1.00
H220   H     0.19914   0.62436   0.31161   0.00000  Uiso   1.00
N221   N     0.16667   0.61907   0.25000   0.00000  Uiso   1.00
N222   N     0.16667   0.38093   0.25000   0.00000  Uiso   1.00
O223   O     0.10559   0.53821   0.24999   0.00000  Uiso   1.00
O224   O     0.22774   0.46179   0.25000   0.00000  Uiso   1.00
O225   O     0.22774   0.53821   0.25000   0.00000  Uiso   1.00
O226   O     0.10559   0.46179   0.24999   0.00000  Uiso   1.00
O227   O     0.16666   0.53823   0.18392   0.00000  Uiso   1.00
O228   O     0.16667   0.46177   0.31607   0.00000  Uiso   1.00
O229   O     0.16667   0.53823   0.31607   0.00000  Uiso   1.00
O230   O     0.16666   0.46177   0.18392   0.00000  Uiso   1.00
Zn231  Zn    0.16667   0.55104   0.25000   0.00000  Uiso   1.00
Zn232  Zn    0.16667   0.44896   0.25000   0.00000  Uiso   1.00
C233   C     0.42006   0.50000   0.24466   0.00000  Uiso   1.00
C234   C     0.37616   0.49993   0.23268   0.00000  Uiso   1.00
C235   C     0.51801   0.35731   0.28428   0.00000  Uiso   1.00
C236   C     0.48240   0.64269   0.21550   0.00000  Uiso   1.00
C237   C     0.48241   0.35737   0.21549   0.00000  Uiso   1.00
C238   C     0.51801   0.64262   0.28428   0.00000  Uiso   1.00
C239   C     0.50004   0.50002   0.16356   0.00000  Uiso   1.00
C240   C     0.49992   0.49999   0.33636   0.00000  Uiso   1.00
C241   C     0.53744   0.50026   0.40630   0.00000  Uiso   1.00
C242   C     0.46218   0.50097   0.09356   0.00000  Uiso   1.00
C243   C     0.49938   0.49995   0.38389   0.00000  Uiso   1.00
C244   C     0.57989   0.49996   0.24466   0.00000  Uiso   1.00
C245   C     0.50031   0.50020   0.11593   0.00000  Uiso   1.00
C246   C     0.46091   0.50039   0.40591   0.00000  Uiso   1.00
C247   C     0.53862   0.49955   0.09363   0.00000  Uiso   1.00
C248   C     0.46025   0.49815   0.45297   0.00000  Uiso   1.00
C249   C     0.53911   0.50312   0.04671   0.00000  Uiso   1.00
C250   C     0.49924   0.50048   0.47634   0.00000  Uiso   1.00
C251   C     0.50015   0.50107   0.02339   0.00000  Uiso   1.00
C252   C     0.53752   0.50213   0.45274   0.00000  Uiso   1.00
C253   C     0.46195   0.49955   0.04707   0.00000  Uiso   1.00
C254   C     0.42278   0.49386   0.47793   0.00000  Uiso   1.00
C255   C     0.42416   0.49569   0.02404   0.00000  Uiso   1.00
C256   C     0.57650   0.50840   0.02191   0.00000  Uiso   1.00
C257   C     0.57524   0.50669   0.47580   0.00000  Uiso   1.00
C258   C     0.35490   0.45831   0.22631   0.00000  Uiso   1.00
C259   C     0.64484   0.54127   0.22535   0.00000  Uiso   1.00
C260   C     0.64502   0.45820   0.22650   0.00000  Uiso   1.00
C261   C     0.35474   0.54139   0.22573   0.00000  Uiso   1.00
C262   C     0.62366   0.49981   0.23259   0.00000  Uiso   1.00
Cl263  Cl    0.58475   0.49922   0.37508   0.00000  Uiso   1.00
Cl264  Cl    0.38049   0.59386   0.21533   0.00000  Uiso   1.00
Cl265  Cl    0.41496   0.50246   0.12474   0.00000  Uiso   1.00
Cl266  Cl    0.41551   0.50798   0.37237   0.00000  Uiso   1.00
Cl267  Cl    0.58406   0.48896   0.12611   0.00000  Uiso   1.00
Cl268  Cl    0.37277   0.48157   0.45598   0.00000  Uiso   1.00
Cl269  Cl    0.62593   0.52264   0.04426   0.00000  Uiso   1.00
Cl270  Cl    0.38081   0.40586   0.21595   0.00000  Uiso   1.00
Cl271  Cl    0.61866   0.59332   0.21352   0.00000  Uiso   1.00
Cl272  Cl    0.61918   0.40548   0.21700   0.00000  Uiso   1.00
H273   H     0.39488   0.49261   0.04175   0.00000  Uiso   1.00
H274   H     0.60449   0.51040   0.45814   0.00000  Uiso   1.00
H275   H     0.53247   0.37552   0.31161   0.00000  Uiso   1.00
H276   H     0.46835   0.62452   0.18791   0.00000  Uiso   1.00
H277   H     0.46838   0.37560   0.18790   0.00000  Uiso   1.00
H278   H     0.53247   0.62436   0.31161   0.00000  Uiso   1.00
N279   N     0.50000   0.61907   0.25000   0.00000  Uiso   1.00
N280   N     0.50000   0.38093   0.25000   0.00000  Uiso   1.00
O281   O     0.43892   0.53821   0.24999   0.00000  Uiso   1.00
O282   O     0.56108   0.46179   0.25000   0.00000  Uiso   1.00
O283   O     0.56108   0.53821   0.25000   0.00000  Uiso   1.00
O284   O     0.43892   0.46179   0.24999   0.00000  Uiso   1.00
O285   O     0.49999   0.53823   0.18392   0.00000  Uiso   1.00
O286   O     0.50001   0.46177   0.31607   0.00000  Uiso   1.00
O287   O     0.50001   0.53823   0.31607   0.00000  Uiso   1.00
O288   O     0.49999   0.46177   0.18392   0.00000  Uiso   1.00
Zn289  Zn    0.50000   0.55104   0.25000   0.00000  Uiso   1.00
Zn290  Zn    0.50000   0.44896   0.25000   0.00000  Uiso   1.00
C291   C     0.75339   0.50000   0.24466   0.00000  Uiso   1.00
C292   C     0.70949   0.49993   0.23268   0.00000  Uiso   1.00
C293   C     0.85134   0.35731   0.28428   0.00000  Uiso   1.00
C294   C     0.81574   0.64269   0.21550   0.00000  Uiso   1.00
C295   C     0.81574   0.35737   0.21549   0.00000  Uiso   1.00
C296   C     0.85134   0.64262   0.28428   0.00000  Uiso   1.00
C297   C     0.83337   0.50002   0.16356   0.00000  Uiso   1.00
C298   C     0.83325   0.49999   0.33636   0.00000  Uiso   1.00
C299   C     0.87077   0.50026   0.40630   0.00000  Uiso   1.00
C300   C     0.79552   0.50097   0.09356   0.00000  Uiso   1.00
C301   C     0.83271   0.49995   0.38389   0.00000  Uiso   1.00
C302   C     0.91322   0.49996   0.24466   0.00000  Uiso   1.00
C303   C     0.83364   0.50020   0.11593   0.00000  Uiso   1.00
C304   C     0.79424   0.50039   0.40591   0.00000  Uiso   1.00
C305   C     0.87195   0.49955   0.09363   0.00000  Uiso   1.00
C306   C     0.79359   0.49815   0.45297   0.00000  Uiso   1.00
C307   C     0.87245   0.50312   0.04671   0.00000  Uiso   1.00
C308   C     0.83257   0.50048   0.47634   0.00000  Uiso   1.00
C309   C     0.83348   0.50107   0.02339   0.00000  Uiso   1.00
C310   C     0.87085   0.50213   0.45274   0.00000  Uiso   1.00
C311   C     0.79528   0.49955   0.04707   0.00000  Uiso   1.00
C312   C     0.75612   0.49386   0.47793   0.00000  Uiso   1.00
C313   C     0.75749   0.49569   0.02404   0.00000  Uiso   1.00
C314   C     0.90984   0.50840   0.02191   0.00000  Uiso   1.00
C315   C     0.90857   0.50669   0.47580   0.00000  Uiso   1.00
C316   C     0.68824   0.45831   0.22631   0.00000  Uiso   1.00
C317   C     0.97817   0.54127   0.22535   0.00000  Uiso   1.00
C318   C     0.97835   0.45820   0.22650   0.00000  Uiso   1.00
C319   C     0.68807   0.54139   0.22573   0.00000  Uiso   1.00
C320   C     0.95700   0.49981   0.23259   0.00000  Uiso   1.00
Cl321  Cl    0.91809   0.49922   0.37508   0.00000  Uiso   1.00
Cl322  Cl    0.71382   0.59386   0.21533   0.00000  Uiso   1.00
Cl323  Cl    0.74830   0.50246   0.12474   0.00000  Uiso   1.00
Cl324  Cl    0.74884   0.50798   0.37237   0.00000  Uiso   1.00
Cl325  Cl    0.91739   0.48896   0.12611   0.00000  Uiso   1.00
Cl326  Cl    0.70611   0.48157   0.45598   0.00000  Uiso   1.00
Cl327  Cl    0.95926   0.52264   0.04426   0.00000  Uiso   1.00
Cl328  Cl    0.71414   0.40586   0.21595   0.00000  Uiso   1.00
Cl329  Cl    0.95199   0.59332   0.21352   0.00000  Uiso   1.00
Cl330  Cl    0.95251   0.40548   0.21700   0.00000  Uiso   1.00
H331   H     0.72821   0.49261   0.04175   0.00000  Uiso   1.00
H332   H     0.93782   0.51040   0.45814   0.00000  Uiso   1.00
H333   H     0.86580   0.37552   0.31161   0.00000  Uiso   1.00
H334   H     0.80169   0.62452   0.18791   0.00000  Uiso   1.00
H335   H     0.80171   0.37560   0.18790   0.00000  Uiso   1.00
H336   H     0.86580   0.62436   0.31161   0.00000  Uiso   1.00
N337   N     0.83333   0.61907   0.25000   0.00000  Uiso   1.00
N338   N     0.83333   0.38093   0.25000   0.00000  Uiso   1.00
O339   O     0.77226   0.53821   0.24999   0.00000  Uiso   1.00
O340   O     0.89441   0.46179   0.25000   0.00000  Uiso   1.00
O341   O     0.89441   0.53821   0.25000   0.00000  Uiso   1.00
O342   O     0.77226   0.46179   0.24999   0.00000  Uiso   1.00
O343   O     0.83333   0.53823   0.18392   0.00000  Uiso   1.00
O344   O     0.83334   0.46177   0.31607   0.00000  Uiso   1.00
O345   O     0.83334   0.53823   0.31607   0.00000  Uiso   1.00
O346   O     0.83333   0.46177   0.18392   0.00000  Uiso   1.00
Zn347  Zn    0.83333   0.55104   0.25000   0.00000  Uiso   1.00
Zn348  Zn    0.83333   0.44896   0.25000   0.00000  Uiso   1.00
C349   C     0.08672   0.83334   0.24466   0.00000  Uiso   1.00
C350   C     0.04283   0.83326   0.23268   0.00000  Uiso   1.00
C351   C     0.18467   0.69065   0.28428   0.00000  Uiso   1.00
C352   C     0.14907   0.97603   0.21550   0.00000  Uiso   1.00
C353   C     0.14908   0.69070   0.21549   0.00000  Uiso   1.00
C354   C     0.18468   0.97595   0.28428   0.00000  Uiso   1.00
C355   C     0.16670   0.83336   0.16356   0.00000  Uiso   1.00
C356   C     0.16658   0.83332   0.33636   0.00000  Uiso   1.00
C357   C     0.20411   0.83360   0.40630   0.00000  Uiso   1.00
C358   C     0.12885   0.83430   0.09356   0.00000  Uiso   1.00
C359   C     0.16604   0.83328   0.38389   0.00000  Uiso   1.00
C360   C     0.24656   0.83329   0.24466   0.00000  Uiso   1.00
C361   C     0.16698   0.83354   0.11593   0.00000  Uiso   1.00
C362   C     0.12758   0.83373   0.40591   0.00000  Uiso   1.00
C363   C     0.20529   0.83288   0.09363   0.00000  Uiso   1.00
C364   C     0.12692   0.83148   0.45297   0.00000  Uiso   1.00
C365   C     0.20578   0.83645   0.04671   0.00000  Uiso   1.00
C366   C     0.16591   0.83382   0.47634   0.00000  Uiso   1.00
C367   C     0.16681   0.83440   0.02339   0.00000  Uiso   1.00
C368   C     0.20419   0.83547   0.45274   0.00000  Uiso   1.00
C369   C     0.12862   0.83288   0.04707   0.00000  Uiso   1.00
C370   C     0.08945   0.82719   0.47793   0.00000  Uiso   1.00
C371   C     0.09082   0.82902   0.02404   0.00000  Uiso   1.00
C372   C     0.24317   0.84173   0.02191   0.00000  Uiso   1.00
C373   C     0.24191   0.84002   0.47580   0.00000  Uiso   1.00
C374   C     0.02157   0.79165   0.22631   0.00000  Uiso   1.00
C375   C     0.31150   0.87460   0.22535   0.00000  Uiso   1.00
C376   C     0.31168   0.79154   0.22650   0.00000  Uiso   1.00
C377   C     0.02141   0.87472   0.22573   0.00000  Uiso   1.00
C378   C     0.29033   0.83314   0.23259   0.00000  Uiso   1.00
Cl379  Cl    0.25142   0.83255   0.37508   0.00000  Uiso   1.00
Cl380  Cl    0.04715   0.92720   0.21533   0.00000  Uiso   1.00
Cl381  Cl    0.08163   0.83579   0.12474   0.00000  Uiso   1.00
Cl382  Cl    0.08217   0.84131   0.37237   0.00000  Uiso   1.00
Cl383  Cl    0.25072   0.82229   0.12611   0.00000  Uiso   1.00
Cl384  Cl    0.03944   0.81491   0.45598   0.00000  Uiso   1.00
Cl385  Cl    0.29260   0.85597   0.04426   0.00000  Uiso   1.00
Cl386  Cl    0.04747   0.73919   0.21595   0.00000  Uiso   1.00
Cl387  Cl    0.28532   0.92666   0.21352   0.00000  Uiso   1.00
Cl388  Cl    0.28585   0.73881   0.21700   0.00000  Uiso   1.00
H389   H     0.06154   0.82594   0.04175   0.00000  Uiso   1.00
H390   H     0.27116   0.84373   0.45814   0.00000  Uiso   1.00
H391   H     0.19913   0.70885   0.31161   0.00000  Uiso   1.00
H392   H     0.13502   0.95785   0.18791   0.00000  Uiso   1.00
H393   H     0.13505   0.70893   0.18790   0.00000  Uiso   1.00
H394   H     0.19914   0.95770   0.31161   0.00000  Uiso   1.00
N395   N     0.16667   0.95240   0.25000   0.00000  Uiso   1.00
N396   N     0.16667   0.71427   0.25000   0.00000  Uiso   1.00
O397   O     0.10559   0.87154   0.24999   0.00000  Uiso   1.00
O398   O     0.22774   0.79513   0.25000   0.00000  Uiso   1.00
O399   O     0.22774   0.87154   0.25000   0.00000  Uiso   1.00
O400   O     0.10559   0.79513   0.24999   0.00000  Uiso   1.00
O401   O     0.16666   0.87156   0.18392   0.00000  Uiso   1.00
O402   O     0.16667   0.79511   0.31607   0.00000  Uiso   1.00
O403   O     0.16667   0.87156   0.31607   0.00000  Uiso   1.00
O404   O     0.16666   0.79511   0.18392   0.00000  Uiso   1.00
Zn405  Zn    0.16667   0.88437   0.25000   0.00000  Uiso   1.00
Zn406  Zn    0.16667   0.78229   0.25000   0.00000  Uiso   1.00
C407   C     0.42006   0.83334   0.24466   0.00000  Uiso   1.00
C408   C     0.37616   0.83326   0.23268   0.00000  Uiso   1.00
C409   C     0.51801   0.69065   0.28428   0.00000  Uiso   1.00
C410   C     0.48240   0.97603   0.21550   0.00000  Uiso   1.00
C411   C     0.48241   0.69070   0.21549   0.00000  Uiso   1.00
C412   C     0.51801   0.97595   0.28428   0.00000  Uiso   1.00
C413   C     0.50004   0.83336   0.16356   0.00000  Uiso   1.00
C414   C     0.49992   0.83332   0.33636   0.00000  Uiso   1.00
C415   C     0.53744   0.83360   0.40630   0.00000  Uiso   1.00
C416   C     0.46218   0.83430   0.09356   0.00000  Uiso   1.00
C417   C     0.49938   0.83328   0.38389   0.00000  Uiso   1.00
C418   C     0.57989   0.83329   0.24466   0.00000  Uiso   1.00
C419   C     0.50031   0.83354   0.11593   0.00000  Uiso   1.00
C420   C     0.46091   0.83373   0.40591   0.00000  Uiso   1.00
C421   C     0.53862   0.83288   0.09363   0.00000  Uiso   1.00
C422   C     0.46025   0.83148   0.45297   0.00000  Uiso   1.00
C423   C     0.53911   0.83645   0.04671   0.00000  Uiso   1.00
C424   C     0.49924   0.83382   0.47634   0.00000  Uiso   1.00
C425   C     0.50015   0.83440   0.02339   0.00000  Uiso   1.00
C426   C     0.53752   0.83547   0.45274   0.00000  Uiso   1.00
C427   C     0.46195   0.83288   0.04707   0.00000  Uiso   1.00
C428   C     0.42278   0.82719   0.47793   0.00000  Uiso   1.00
C429   C     0.42416   0.82902   0.02404   0.00000  Uiso   1.00
C430   C     0.57650   0.84173   0.02191   0.00000  Uiso   1.00
C431   C     0.57524   0.84002   0.47580   0.00000  Uiso   1.00
C432   C     0.35490   0.79165   0.22631   0.00000  Uiso   1.00
C433   C     0.64484   0.87460   0.22535   0.00000  Uiso   1.00
C434   C     0.64502   0.79154   0.22650   0.00000  Uiso   1.00
C435   C     0.35474   0.87472   0.22573   0.00000  Uiso   1.00
C436   C     0.62366   0.83314   0.23259   0.00000  Uiso   1.00
Cl437  Cl    0.58475   0.83255   0.37508   0.00000  Uiso   1.00
Cl438  Cl    0.38049   0.92720   0.21533   0.00000  Uiso   1.00
Cl439  Cl    0.41496   0.83579   0.12474   0.00000  Uiso   1.00
Cl440  Cl    0.41551   0.84131   0.37237   0.00000  Uiso   1.00
Cl441  Cl    0.58406   0.82229   0.12611   0.00000  Uiso   1.00
Cl442  Cl    0.37277   0.81491   0.45598   0.00000  Uiso   1.00
Cl443  Cl    0.62593   0.85597   0.04426   0.00000  Uiso   1.00
Cl444  Cl    0.38081   0.73919   0.21595   0.00000  Uiso   1.00
Cl445  Cl    0.61866   0.92666   0.21352   0.00000  Uiso   1.00
Cl446  Cl    0.61918   0.73881   0.21700   0.00000  Uiso   1.00
H447   H     0.39488   0.82594   0.04175   0.00000  Uiso   1.00
H448   H     0.60449   0.84373   0.45814   0.00000  Uiso   1.00
H449   H     0.53247   0.70885   0.31161   0.00000  Uiso   1.00
H450   H     0.46835   0.95785   0.18791   0.00000  Uiso   1.00
H451   H     0.46838   0.70893   0.18790   0.00000  Uiso   1.00
H452   H     0.53247   0.95770   0.31161   0.00000  Uiso   1.00
N453   N     0.50000   0.95240   0.25000   0.00000  Uiso   1.00
N454   N     0.50000   0.71427   0.25000   0.00000  Uiso   1.00
O455   O     0.43892   0.87154   0.24999   0.00000  Uiso   1.00
O456   O     0.56108   0.79513   0.25000   0.00000  Uiso   1.00
O457   O     0.56108   0.87154   0.25000   0.00000  Uiso   1.00
O458   O     0.43892   0.79513   0.24999   0.00000  Uiso   1.00
O459   O     0.49999   0.87156   0.18392   0.00000  Uiso   1.00
O460   O     0.50001   0.79511   0.31607   0.00000  Uiso   1.00
O461   O     0.50001   0.87156   0.31607   0.00000  Uiso   1.00
O462   O     0.49999   0.79511   0.18392   0.00000  Uiso   1.00
Zn463  Zn    0.50000   0.88437   0.25000   0.00000  Uiso   1.00
Zn464  Zn    0.50000   0.78229   0.25000   0.00000  Uiso   1.00
C465   C     0.75339   0.83334   0.24466   0.00000  Uiso   1.00
C466   C     0.70949   0.83326   0.23268   0.00000  Uiso   1.00
C467   C     0.85134   0.69065   0.28428   0.00000  Uiso   1.00
C468   C     0.81574   0.97603   0.21550   0.00000  Uiso   1.00
C469   C     0.81574   0.69070   0.21549   0.00000  Uiso   1.00
C470   C     0.85134   0.97595   0.28428   0.00000  Uiso   1.00
C471   C     0.83337   0.83336   0.16356   0.00000  Uiso   1.00
C472   C     0.83325   0.83332   0.33636   0.00000  Uiso   1.00
C473   C     0.87077   0.83360   0.40630   0.00000  Uiso   1.00
C474   C     0.79552   0.83430   0.09356   0.00000  Uiso   1.00
C475   C     0.83271   0.83328   0.38389   0.00000  Uiso   1.00
C476   C     0.91322   0.83329   0.24466   0.00000  Uiso   1.00
C477   C     0.83364   0.83354   0.11593   0.00000  Uiso   1.00
C478   C     0.79424   0.83373   0.40591   0.00000  Uiso   1.00
C479   C     0.87195   0.83288   0.09363   0.00000  Uiso   1.00
C480   C     0.79359   0.83148   0.45297   0.00000  Uiso   1.00
C481   C     0.87245   0.83645   0.04671   0.00000  Uiso   1.00
C482   C     0.83257   0.83382   0.47634   0.00000  Uiso   1.00
C483   C     0.83348   0.83440   0.02339   0.00000  Uiso   1.00
C484   C     0.87085   0.83547   0.45274   0.00000  Uiso   1.00
C485   C     0.79528   0.83288   0.04707   0.00000  Uiso   1.00
C486   C     0.75612   0.82719   0.47793   0.00000  Uiso   1.00
C487   C     0.75749   0.82902   0.02404   0.00000  Uiso   1.00
C488   C     0.90984   0.84173   0.02191   0.00000  Uiso   1.00
C489   C     0.90857   0.84002   0.47580   0.00000  Uiso   1.00
C490   C     0.68824   0.79165   0.22631   0.00000  Uiso   1.00
C491   C     0.97817   0.87460   0.22535   0.00000  Uiso   1.00
C492   C     0.97835   0.79154   0.22650   0.00000  Uiso   1.00
C493   C     0.68807   0.87472   0.22573   0.00000  Uiso   1.00
C494   C     0.95700   0.83314   0.23259   0.00000  Uiso   1.00
Cl495  Cl    0.91809   0.83255   0.37508   0.00000  Uiso   1.00
Cl496  Cl    0.71382   0.92720   0.21533   0.00000  Uiso   1.00
Cl497  Cl    0.74830   0.83579   0.12474   0.00000  Uiso   1.00
Cl498  Cl    0.74884   0.84131   0.37237   0.00000  Uiso   1.00
Cl499  Cl    0.91739   0.82229   0.12611   0.00000  Uiso   1.00
Cl500  Cl    0.70611   0.81491   0.45598   0.00000  Uiso   1.00
Cl501  Cl    0.95926   0.85597   0.04426   0.00000  Uiso   1.00
Cl502  Cl    0.71414   0.73919   0.21595   0.00000  Uiso   1.00
Cl503  Cl    0.95199   0.92666   0.21352   0.00000  Uiso   1.00
Cl504  Cl    0.95251   0.73881   0.21700   0.00000  Uiso   1.00
H505   H     0.72821   0.82594   0.04175   0.00000  Uiso   1.00
H506   H     0.93782   0.84373   0.45814   0.00000  Uiso   1.00
H507   H     0.86580   0.70885   0.31161   0.00000  Uiso   1.00
H508   H     0.80169   0.95785   0.18791   0.00000  Uiso   1.00
H509   H     0.80171   0.70893   0.18790   0.00000  Uiso   1.00
H510   H     0.86580   0.95770   0.31161   0.00000  Uiso   1.00
N511   N     0.83333   0.95240   0.25000   0.00000  Uiso   1.00
N512   N     0.83333   0.71427   0.25000   0.00000  Uiso   1.00
O513   O     0.77226   0.87154   0.24999   0.00000  Uiso   1.00
O514   O     0.89441   0.79513   0.25000   0.00000  Uiso   1.00
O515   O     0.89441   0.87154   0.25000   0.00000  Uiso   1.00
O516   O     0.77226   0.79513   0.24999   0.00000  Uiso   1.00
O517   O     0.83333   0.87156   0.18392   0.00000  Uiso   1.00
O518   O     0.83334   0.79511   0.31607   0.00000  Uiso   1.00
O519   O     0.83334   0.87156   0.31607   0.00000  Uiso   1.00
O520   O     0.83333   0.79511   0.18392   0.00000  Uiso   1.00
Zn521  Zn    0.83333   0.88437   0.25000   0.00000  Uiso   1.00
Zn522  Zn    0.83333   0.78229   0.25000   0.00000  Uiso   1.00
C523   C     0.08672   0.16667   0.74466   0.00000  Uiso   1.00
C524   C     0.04283   0.16660   0.73268   0.00000  Uiso   1.00
C525   C     0.18467   0.02398   0.78428   0.00000  Uiso   1.00
C526   C     0.14907   0.30936   0.71550   0.00000  Uiso   1.00
C527   C     0.14908   0.02403   0.71549   0.00000  Uiso   1.00
C528   C     0.18468   0.30929   0.78428   0.00000  Uiso   1.00
C529   C     0.16670   0.16669   0.66356   0.00000  Uiso   1.00
C530   C     0.16658   0.16665   0.83636   0.00000  Uiso   1.00
C531   C     0.20411   0.16693   0.90630   0.00000  Uiso   1.00
C532   C     0.12885   0.16763   0.59356   0.00000  Uiso   1.00
C533   C     0.16604   0.16662   0.88389   0.00000  Uiso   1.00
C534   C     0.24656   0.16663   0.74466   0.00000  Uiso   1.00
C535   C     0.16698   0.16687   0.61593   0.00000  Uiso   1.00
C536   C     0.12758   0.16706   0.90591   0.00000  Uiso   1.00
C537   C     0.20529   0.16621   0.59363   0.00000  Uiso   1.00
C538   C     0.12692   0.16482   0.95297   0.00000  Uiso   1.00
C539   C     0.20578   0.16978   0.54671   0.00000  Uiso   1.00
C540   C     0.16591   0.16715   0.97634   0.00000  Uiso   1.00
C541   C     0.16681   0.16774   0.52339   0.00000  Uiso   1.00
C542   C     0.20419   0.16880   0.95274   0.00000  Uiso   1.00
C543   C     0.12862   0.16621   0.54707   0.00000  Uiso   1.00
C544   C     0.08945   0.16052   0.97793   0.00000  Uiso   1.00
C545   C     0.09082   0.16235   0.52404   0.00000  Uiso   1.00
C546   C     0.24317   0.17506   0.52191   0.00000  Uiso   1.00
C547   C     0.24191   0.17336   0.97580   0.00000  Uiso   1.00
C548   C     0.02157   0.12498   0.72631   0.00000  Uiso   1.00
C549   C     0.31150   0.20793   0.72535   0.00000  Uiso   1.00
C550   C     0.31168   0.12487   0.72650   0.00000  Uiso   1.00
C551   C     0.02141   0.20805   0.72573   0.00000  Uiso   1.00
C552   C     0.29033   0.16648   0.73259   0.00000  Uiso   1.00
Cl553  Cl    0.25142   0.16589   0.87508   0.00000  Uiso   1.00
Cl554  Cl    0.04715   0.26053   0.71533   0.00000  Uiso   1.00
Cl555  Cl    0.08163   0.16912   0.62474   0.00000  Uiso   1.00
Cl556  Cl    0.08217   0.17464   0.87237   0.00000  Uiso   1.00
Cl557  Cl    0.25072   0.15562   0.62611   0.00000  Uiso   1.00
Cl558  Cl    0.03944   0.14824   0.95598   0.00000  Uiso   1.00
Cl559  Cl    0.29260   0.18930   0.54426   0.00000  Uiso   1.00
Cl560  Cl    0.04747   0.07253   0.71595   0.00000  Uiso   1.00
Cl561  Cl    0.28532   0.25999   0.71352   0.00000  Uiso   1.00
Cl562  Cl    0.28585   0.07215   0.71700   0.00000  Uiso   1.00
H563   H     0.06154   0.15927   0.54175   0.00000  Uiso   1.00
H564   H     0.27116   0.17706   0.95814   0.00000  Uiso   1.00
H565   H     0.19913   0.04219   0.81161   0.00000  Uiso   1.00
H566   H     0.13502   0.29118   0.68791   0.00000  Uiso   1.00
H567   H     0.13505   0.04226   0.68790   0.00000  Uiso   1.00
H568   H     0.19914   0.29103   0.81161   0.00000  Uiso   1.00
N569   N     0.16667   0.28573   0.75000   0.00000  Uiso   1.00
N570   N     0.16667   0.04760   0.75000   0.00000  Uiso   1.00
O571   O     0.10559   0.20487   0.74999   0.00000  Uiso   1.00
O572   O     0.22774   0.12846   0.75000   0.00000  Uiso   1.00
O573   O     0.22774   0.20487   0.75000   0.00000  Uiso   1.00
O574   O     0.10559   0.12846   0.74999   0.00000  Uiso   1.00
O575   O     0.16666   0.20489   0.68392   0.00000  Uiso   1.00
O576   O     0.16667   0.12844   0.81607   0.00000  Uiso   1.00
O577   O     0.16667   0.20489   0.81607   0.00000  Uiso   1.00
O578   O     0.16666   0.12844   0.68392   0.00000  Uiso   1.00
Zn579  Zn    0.16667   0.21771   0.75000   0.00000  Uiso   1.00
Zn580  Zn    0.16667   0.11563   0.75000   0.00000  Uiso   1.00
C581   C     0.42006   0.16667   0.74466   0.00000  Uiso   1.00
C582   C     0.37616   0.16660   0.73268   0.00000  Uiso   1.00
C583   C     0.51801   0.02398   0.78428   0.00000  Uiso   1.00
C584   C     0.48240   0.30936   0.71550   0.00000  Uiso   1.00
C585   C     0.48241   0.02403   0.71549   0.00000  Uiso   1.00
C586   C     0.51801   0.30929   0.78428   0.00000  Uiso   1.00
C587   C     0.50004   0.16669   0.66356   0.00000  Uiso   1.00
C588   C     0.49992   0.16665   0.83636   0.00000  Uiso   1.00
C589   C     0.53744   0.16693   0.90630   0.00000  Uiso   1.00
C590   C     0.46218   0.16763   0.59356   0.00000  Uiso   1.00
C591   C     0.49938   0.16662   0.88389   0.00000  Uiso   1.00
C592   C     0.57989   0.16663   0.74466   0.00000  Uiso   1.00
C593   C     0.50031   0.16687   0.61593   0.00000  Uiso   1.00
C594   C     0.46091   0.16706   0.90591   0.00000  Uiso   1.00
C595   C     0.53862   0.16621   0.59363   0.00000  Uiso   1.00
C596   C     0.46025   0.16482   0.95297   0.00000  Uiso   1.00
C597   C     0.53911   0.16978   0.54671   0.00000  Uiso   1.00
C598   C     0.49924   0.16715   0.97634   0.00000  Uiso   1.00
C599   C     0.50015   0.16774   0.52339   0.00000  Uiso   1.00
C600   C     0.53752   0.16880   0.95274   0.00000  Uiso   1.00
C601   C     0.46195   0.16621   0.54707   0.00000  Uiso   1.00
C602   C     0.42278   0.16052   0.97793   0.00000  Uiso   1.00
C603   C     0.42416   0.16235   0.52404   0.00000  Uiso   1.00
C604   C     0.57650   0.17506   0.52191   0.00000  Uiso   1.00
C605   C     0.57524   0.17336   0.97580   0.00000  Uiso   1.00
C606   C     0.35490   0.12498   0.72631   0.00000  Uiso   1.00
C607   C     0.64484   0.20793   0.72535   0.00000  Uiso   1.00
C608   C     0.64502   0.12487   0.72650   0.00000  Uiso   1.00
C609   C     0.35474   0.20805   0.72573   0.00000  Uiso   1.00
C610   C     0.62366   0.16648   0.73259   0.00000  Uiso   1.00
Cl611  Cl    0.58475   0.16589   0.87508   0.00000  Uiso   1.00
Cl612  Cl    0.38049   0.26053   0.71533   0.00000  Uiso   1.00
Cl613  Cl    0.41496   0.16912   0.62474   0.00000  Uiso   1.00
Cl614  Cl    0.41551   0.17464   0.87237   0.00000  Uiso   1.00
Cl615  Cl    0.58406   0.15562   0.62611   0.00000  Uiso   1.00
Cl616  Cl    0.37277   0.14824   0.95598   0.00000  Uiso   1.00
Cl617  Cl    0.62593   0.18930   0.54426   0.00000  Uiso   1.00
Cl618  Cl    0.38081   0.07253   0.71595   0.00000  Uiso   1.00
Cl619  Cl    0.61866   0.25999   0.71352   0.00000  Uiso   1.00
Cl620  Cl    0.61918   0.07215   0.71700   0.00000  Uiso   1.00
H621   H     0.39488   0.15927   0.54175   0.00000  Uiso   1.00
H622   H     0.60449   0.17706   0.95814   0.00000  Uiso   1.00
H623   H     0.53247   0.04219   0.81161   0.00000  Uiso   1.00
H624   H     0.46835   0.29118   0.68791   0.00000  Uiso   1.00
H625   H     0.46838   0.04226   0.68790   0.00000  Uiso   1.00
H626   H     0.53247   0.29103   0.81161   0.00000  Uiso   1.00
N627   N     0.50000   0.28573   0.75000   0.00000  Uiso   1.00
N628   N     0.50000   0.04760   0.75000   0.00000  Uiso   1.00
O629   O     0.43892   0.20487   0.74999   0.00000  Uiso   1.00
O630   O     0.56108   0.12846   0.75000   0.00000  Uiso   1.00
O631   O     0.56108   0.20487   0.75000   0.00000  Uiso   1.00
O632   O     0.43892   0.12846   0.74999   0.00000  Uiso   1.00
O633   O     0.49999   0.20489   0.68392   0.00000  Uiso   1.00
O634   O     0.50001   0.12844   0.81607   0.00000  Uiso   1.00
O635   O     0.50001   0.20489   0.81607   0.00000  Uiso   1.00
O636   O     0.49999   0.12844   0.68392   0.00000  Uiso   1.00
Zn637  Zn    0.50000   0.21771   0.75000   0.00000  Uiso   1.00
Zn638  Zn    0.50000   0.11563   0.75000   0.00000  Uiso   1.00
C639   C     0.75339   0.16667   0.74466   0.00000  Uiso   1.00
C640   C     0.70949   0.16660   0.73268   0.00000  Uiso   1.00
C641   C     0.85134   0.02398   0.78428   0.00000  Uiso   1.00
C642   C     0.81574   0.30936   0.71550   0.00000  Uiso   1.00
C643   C     0.81574   0.02403   0.71549   0.00000  Uiso   1.00
C644   C     0.85134   0.30929   0.78428   0.00000  Uiso   1.00
C645   C     0.83337   0.16669   0.66356   0.00000  Uiso   1.00
C646   C     0.83325   0.16665   0.83636   0.00000  Uiso   1.00
C647   C     0.87077   0.16693   0.90630   0.00000  Uiso   1.00
C648   C     0.79552   0.16763   0.59356   0.00000  Uiso   1.00
C649   C     0.83271   0.16662   0.88389   0.00000  Uiso   1.00
C650   C     0.91322   0.16663   0.74466   0.00000  Uiso   1.00
C651   C     0.83364   0.16687   0.61593   0.00000  Uiso   1.00
C652   C     0.79424   0.16706   0.90591   0.00000  Uiso   1.00
C653   C     0.87195   0.16621   0.59363   0.00000  Uiso   1.00
C654   C     0.79359   0.16482   0.95297   0.00000  Uiso   1.00
C655   C     0.87245   0.16978   0.54671   0.00000  Uiso   1.00
C656   C     0.83257   0.16715   0.97634   0.00000  Uiso   1.00
C657   C     0.83348   0.16774   0.52339   0.00000  Uiso   1.00
C658   C     0.87085   0.16880   0.95274   0.00000  Uiso   1.00
C659   C     0.79528   0.16621   0.54707   0.00000  Uiso   1.00
C660   C     0.75612   0.16052   0.97793   0.00000  Uiso   1.00
C661   C     0.75749   0.16235   0.52404   0.00000  Uiso   1.00
C662   C     0.90984   0.17506   0.52191   0.00000  Uiso   1.00
C663   C     0.90857   0.17336   0.97580   0.00000  Uiso   1.00
C664   C     0.68824   0.12498   0.72631   0.00000  Uiso   1.00
C665   C     0.97817   0.20793   0.72535   0.00000  Uiso   1.00
C666   C     0.97835   0.12487   0.72650   0.00000  Uiso   1.00
C667   C     0.68807   0.20805   0.72573   0.00000  Uiso   1.00
C668   C     0.95700   0.16648   0.73259   0.00000  Uiso   1.00
Cl669  Cl    0.91809   0.16589   0.87508   0.00000  Uiso   1.00
Cl670  Cl    0.71382   0.26053   0.71533   0.00000  Uiso   1.00
Cl671  Cl    0.74830   0.16912   0.62474   0.00000  Uiso   1.00
Cl672  Cl    0.74884   0.17464   0.87237   0.00000  Uiso   1.00
Cl673  Cl    0.91739   0.15562   0.62611   0.00000  Uiso   1.00
Cl674  Cl    0.70611   0.14824   0.95598   0.00000  Uiso   1.00
Cl675  Cl    0.95926   0.18930   0.54426   0.00000  Uiso   1.00
Cl676  Cl    0.71414   0.07253   0.71595   0.00000  Uiso   1.00
Cl677  Cl    0.95199   0.25999   0.71352   0.00000  Uiso   1.00
Cl678  Cl    0.95251   0.07215   0.71700   0.00000  Uiso   1.00
H679   H     0.72821   0.15927   0.54175   0.00000  Uiso   1.00
H680   H     0.93782   0.17706   0.95814   0.00000  Uiso   1.00
H681   H     0.86580   0.04219   0.81161   0.00000  Uiso   1.00
H682   H     0.80169   0.29118   0.68791   0.00000  Uiso   1.00
H683   H     0.80171   0.04226   0.68790   0.00000  Uiso   1.00
H684   H     0.86580   0.29103   0.81161   0.00000  Uiso   1.00
N685   N     0.83333   0.28573   0.75000   0.00000  Uiso   1.00
N686   N     0.83333   0.04760   0.75000   0.00000  Uiso   1.00
O687   O     0.77226   0.20487   0.74999   0.00000  Uiso   1.00
O688   O     0.89441   0.12846   0.75000   0.00000  Uiso   1.00
O689   O     0.89441   0.20487   0.75000   0.00000  Uiso   1.00
O690   O     0.77226   0.12846   0.74999   0.00000  Uiso   1.00
O691   O     0.83333   0.20489   0.68392   0.00000  Uiso   1.00
O692   O     0.83334   0.12844   0.81607   0.00000  Uiso   1.00
O693   O     0.83334   0.20489   0.81607   0.00000  Uiso   1.00
O694   O     0.83333   0.12844   0.68392   0.00000  Uiso   1.00
Zn695  Zn    0.83333   0.21771   0.75000   0.00000  Uiso   1.00
Zn696  Zn    0.83333   0.11563   0.75000   0.00000  Uiso   1.00
C697   C     0.08672   0.50000   0.74466   0.00000  Uiso   1.00
C698   C     0.04283   0.49993   0.73268   0.00000  Uiso   1.00
C699   C     0.18467   0.35731   0.78428   0.00000  Uiso   1.00
C700   C     0.14907   0.64269   0.71550   0.00000  Uiso   1.00
C701   C     0.14908   0.35737   0.71549   0.00000  Uiso   1.00
C702   C     0.18468   0.64262   0.78428   0.00000  Uiso   1.00
C703   C     0.16670   0.50002   0.66356   0.00000  Uiso   1.00
C704   C     0.16658   0.49999   0.83636   0.00000  Uiso   1.00
C705   C     0.20411   0.50026   0.90630   0.00000  Uiso   1.00
C706   C     0.12885   0.50097   0.59356   0.00000  Uiso   1.00
C707   C     0.16604   0.49995   0.88389   0.00000  Uiso   1.00
C708   C     0.24656   0.49996   0.74466   0.00000  Uiso   1.00
C709   C     0.16698   0.50020   0.61593   0.00000  Uiso   1.00
C710   C     0.12758   0.50039   0.90591   0.00000  Uiso   1.00
C711   C     0.20529   0.49955   0.59363   0.00000  Uiso   1.00
C712   C     0.12692   0.49815   0.95297   0.00000  Uiso   1.00
C713   C     0.20578   0.50312   0.54671   0.00000  Uiso   1.00
C714   C     0.16591   0.50048   0.97634   0.00000  Uiso   1.00
C715   C     0.16681   0.50107   0.52339   0.00000  Uiso   1.00
C716   C     0.20419   0.50213   0.95274   0.00000  Uiso   1.00
C717   C     0.12862   0.49955   0.54707   0.00000  Uiso   1.00
C718   C     0.08945   0.49386   0.97793   0.00000  Uiso   1.00
C719   C     0.09082   0.49569   0.52404   0.00000  Uiso   1.00
C720   C     0.24317   0.50840   0.52191   0.00000  Uiso   1.00
C721   C     0.24191   0.50669   0.97580   0.00000  Uiso   1.00
C722   C     0.02157   0.45831   0.72631   0.00000  Uiso   1.00
C723   C     0.31150   0.54127   0.72535   0.00000  Uiso   1.00
C724   C     0.31168   0.45820   0.72650   0.00000  Uiso   1.00
C725   C     0.02141   0.54139   0.72573   0.00000  Uiso   1.00
C726   C     0.29033   0.49981   0.73259   0.00000  Uiso   1.00
Cl727  Cl    0.25142   0.49922   0.87508   0.00000  Uiso   1.00
Cl728  Cl    0.04715   0.59386   0.71533   0.00000  Uiso   1.00
Cl729  Cl    0.08163   0.50246   0.62474   0.00000  Uiso   1.00
Cl730  Cl    0.08217   0.50798   0.87237   0.00000  Uiso   1.00
Cl731  Cl    0.25072   0.48896   0.62611   0.00000  Uiso   1.00
Cl732  Cl    0.03944   0.48157   0.95598   0.00000  Uiso   1.00
Cl733  Cl    0.29260   0.52264   0.54426   0.00000  Uiso   1.00
Cl734  Cl    0.04747   0.40586   0.71595   0.00000  Uiso   1.00
Cl735  Cl    0.28532   0.59332   0.71352   0.00000  Uiso   1.00
Cl736  Cl    0.28585   0.40548   0.71700   0.00000  Uiso   1.00
H737   H     0.06154   0.49261   0.54175   0.00000  Uiso   1.00
H738   H     0.27116   0.51040   0.95814   0.00000  Uiso   1.00
H739   H     0.19913   0.37552   0.81161   0.00000  Uiso   1.00
H740   H     0.13502   0.62452   0.68791   0.00000  Uiso   1.00
H741   H     0.13505   0.37560   0.68790   0.00000  Uiso   1.00
H742   H     0.19914   0.62436   0.81161   0.00000  Uiso   1.00
N743   N     0.16667   0.61907   0.75000   0.00000  Uiso   1.00
N744   N     0.16667   0.38093   0.75000   0.00000  Uiso   1.00
O745   O     0.10559   0.53821   0.74999   0.00000  Uiso   1.00
O746   O     0.22774   0.46179   0.75000   0.00000  Uiso   1.00
O747   O     0.22774   0.53821   0.75000   0.00000  Uiso   1.00
O748   O     0.10559   0.46179   0.74999   0.00000  Uiso   1.00
O749   O     0.16666   0.53823   0.68392   0.00000  Uiso   1.00
O750   O     0.16667   0.46177   0.81607   0.00000  Uiso   1.00
O751   O     0.16667   0.53823   0.81607   0.00000  Uiso   1.00
O752   O     0.16666   0.46177   0.68392   0.00000  Uiso   1.00
Zn753  Zn    0.16667   0.55104   0.75000   0.00000  Uiso   1.00
Zn754  Zn    0.16667   0.44896   0.75000   0.00000  Uiso   1.00
C755   C     0.42006   0.50000   0.74466   0.00000  Uiso   1.00
C756   C     0.37616   0.49993   0.73268   0.00000  Uiso   1.00
C757   C     0.51801   0.35731   0.78428   0.00000  Uiso   1.00
C758   C     0.48240   0.64269   0.71550   0.00000  Uiso   1.00
C759   C     0.48241   0.35737   0.71549   0.00000  Uiso   1.00
C760   C     0.51801   0.64262   0.78428   0.00000  Uiso   1.00
C761   C     0.50004   0.50002   0.66356   0.00000  Uiso   1.00
C762   C     0.49992   0.49999   0.83636   0.00000  Uiso   1.00
C763   C     0.53744   0.50026   0.90630   0.00000  Uiso   1.00
C764   C     0.46218   0.50097   0.59356   0.00000  Uiso   1.00
C765   C     0.49938   0.49995   0.88389   0.00000  Uiso   1.00
C766   C     0.57989   0.49996   0.74466   0.00000  Uiso   1.00
C767   C     0.50031   0.50020   0.61593   0.00000  Uiso   1.00
C768   C     0.46091   0.50039   0.90591   0.00000  Uiso   1.00
C769   C     0.53862   0.49955   0.59363   0.00000  Uiso   1.00
C770   C     0.46025   0.49815   0.95297   0.00000  Uiso   1.00
C771   C     0.53911   0.50312   0.54671   0.00000  Uiso   1.00
C772   C     0.49924   0.50048   0.97634   0.00000  Uiso   1.00
C773   C     0.50015   0.50107   0.52339   0.00000  Uiso   1.00
C774   C     0.53752   0.50213   0.95274   0.00000  Uiso   1.00
C775   C     0.46195   0.49955   0.54707   0.00000  Uiso   1.00
C776   C     0.42278   0.49386   0.97793   0.00000  Uiso   1.00
C777   C     0.42416   0.49569   0.52404   0.00000  Uiso   1.00
C778   C     0.57650   0.50840   0.52191   0.00000  Uiso   1.00
C779   C     0.57524   0.50669   0.97580   0.00000  Uiso   1.00
C780   C     0.35490   0.45831   0.72631   0.00000  Uiso   1.00
C781   C     0.64484   0.54127   0.72535   0.00000  Uiso   1.00
C782   C     0.64502   0.45820   0.72650   0.00000  Uiso   1.00
C783   C     0.35474   0.54139   0.72573   0.00000  Uiso   1.00
C784   C     0.62366   0.49981   0.73259   0.00000  Uiso   1.00
Cl785  Cl    0.58475   0.49922   0.87508   0.00000  Uiso   1.00
Cl786  Cl    0.38049   0.59386   0.71533   0.00000  Uiso   1.00
Cl787  Cl    0.41496   0.50246   0.62474   0.00000  Uiso   1.00
Cl788  Cl    0.41551   0.50798   0.87237   0.00000  Uiso   1.00
Cl789  Cl    0.58406   0.48896   0.62611   0.00000  Uiso   1.00
Cl790  Cl    0.37277   0.48157   0.95598   0.00000  Uiso   1.00
Cl791  Cl    0.62593   0.52264   0.54426   0.00000  Uiso   1.00
Cl792  Cl    0.38081   0.40586   0.71595   0.00000  Uiso   1.00
Cl793  Cl    0.61866   0.59332   0.71352   0.00000  Uiso   1.00
Cl794  Cl    0.61918   0.40548   0.71700   0.00000  Uiso   1.00
H795   H     0.39488   0.49261   0.54175   0.00000  Uiso   1.00
H796   H     0.60449   0.51040   0.95814   0.00000  Uiso   1.00
H797   H     0.53247   0.37552   0.81161   0.00000  Uiso   1.00
H798   H     0.46835   0.62452   0.68791   0.00000  Uiso   1.00
H799   H     0.46838   0.37560   0.68790   0.00000  Uiso   1.00
H800   H     0.53247   0.62436   0.81161   0.00000  Uiso   1.00
N801   N     0.50000   0.61907   0.75000   0.00000  Uiso   1.00
N802   N     0.50000   0.38093   0.75000   0.00000  Uiso   1.00
O803   O     0.43892   0.53821   0.74999   0.00000  Uiso   1.00
O804   O     0.56108   0.46179   0.75000   0.00000  Uiso   1.00
O805   O     0.56108   0.53821   0.75000   0.00000  Uiso   1.00
O806   O     0.43892   0.46179   0.74999   0.00000  Uiso   1.00
O807   O     0.49999   0.53823   0.68392   0.00000  Uiso   1.00
O808   O     0.50001   0.46177   0.81607   0.00000  Uiso   1.00
O809   O     0.50001   0.53823   0.81607   0.00000  Uiso   1.00
O810   O     0.49999   0.46177   0.68392   0.00000  Uiso   1.00
Zn811  Zn    0.50000   0.55104   0.75000   0.00000  Uiso   1.00
Zn812  Zn    0.50000   0.44896   0.75000   0.00000  Uiso   1.00
C813   C     0.75339   0.50000   0.74466   0.00000  Uiso   1.00
C814   C     0.70949   0.49993   0.73268   0.00000  Uiso   1.00
C815   C     0.85134   0.35731   0.78428   0.00000  Uiso   1.00
C816   C     0.81574   0.64269   0.71550   0.00000  Uiso   1.00
C817   C     0.81574   0.35737   0.71549   0.00000  Uiso   1.00
C818   C     0.85134   0.64262   0.78428   0.00000  Uiso   1.00
C819   C     0.83337   0.50002   0.66356   0.00000  Uiso   1.00
C820   C     0.83325   0.49999   0.83636   0.00000  Uiso   1.00
C821   C     0.87077   0.50026   0.90630   0.00000  Uiso   1.00
C822   C     0.79552   0.50097   0.59356   0.00000  Uiso   1.00
C823   C     0.83271   0.49995   0.88389   0.00000  Uiso   1.00
C824   C     0.91322   0.49996   0.74466   0.00000  Uiso   1.00
C825   C     0.83364   0.50020   0.61593   0.00000  Uiso   1.00
C826   C     0.79424   0.50039   0.90591   0.00000  Uiso   1.00
C827   C     0.87195   0.49955   0.59363   0.00000  Uiso   1.00
C828   C     0.79359   0.49815   0.95297   0.00000  Uiso   1.00
C829   C     0.87245   0.50312   0.54671   0.00000  Uiso   1.00
C830   C     0.83257   0.50048   0.97634   0.00000  Uiso   1.00
C831   C     0.83348   0.50107   0.52339   0.00000  Uiso   1.00
C832   C     0.87085   0.50213   0.95274   0.00000  Uiso   1.00
C833   C     0.79528   0.49955   0.54707   0.00000  Uiso   1.00
C834   C     0.75612   0.49386   0.97793   0.00000  Uiso   1.00
C835   C     0.75749   0.49569   0.52404   0.00000  Uiso   1.00
C836   C     0.90984   0.50840   0.52191   0.00000  Uiso   1.00
C837   C     0.90857   0.50669   0.97580   0.00000  Uiso   1.00
C838   C     0.68824   0.45831   0.72631   0.00000  Uiso   1.00
C839   C     0.97817   0.54127   0.72535   0.00000  Uiso   1.00
C840   C     0.97835   0.45820   0.72650   0.00000  Uiso   1.00
C841   C     0.68807   0.54139   0.72573   0.00000  Uiso   1.00
C842   C     0.95700   0.49981   0.73259   0.00000  Uiso   1.00
Cl843  Cl    0.91809   0.49922   0.87508   0.00000  Uiso   1.00
Cl844  Cl    0.71382   0.59386   0.71533   0.00000  Uiso   1.00
Cl845  Cl    0.74830   0.50246   0.62474   0.00000  Uiso   1.00
Cl846  Cl    0.74884   0.50798   0.87237   0.00000  Uiso   1.00
Cl847  Cl    0.91739   0.48896   0.62611   0.00000  Uiso   1.00
Cl848  Cl    0.70611   0.48157   0.95598   0.00000  Uiso   1.00
Cl849  Cl    0.95926   0.52264   0.54426   0.00000  Uiso   1.00
Cl850  Cl    0.71414   0.40586   0.71595   0.00000  Uiso   1.00
Cl851  Cl    0.95199   0.59332   0.71352   0.00000  Uiso   1.00
Cl852  Cl    0.95251   0.40548   0.71700   0.00000  Uiso   1.00
H853   H     0.72821   0.49261   0.54175   0.00000  Uiso   1.00
H854   H     0.93782   0.51040   0.95814   0.00000  Uiso   1.00
H855   H     0.86580   0.37552   0.81161   0.00000  Uiso   1.00
H856   H     0.80169   0.62452   0.68791   0.00000  Uiso   1.00
H857   H     0.80171   0.37560   0.68790   0.00000  Uiso   1.00
H858   H     0.86580   0.62436   0.81161   0.00000  Uiso   1.00
N859   N     0.83333   0.61907   0.75000   0.00000  Uiso   1.00
N860   N     0.83333   0.38093   0.75000   0.00000  Uiso   1.00
O861   O     0.77226   0.53821   0.74999   0.00000  Uiso   1.00
O862   O     0.89441   0.46179   0.75000   0.00000  Uiso   1.00
O863   O     0.89441   0.53821   0.75000   0.00000  Uiso   1.00
O864   O     0.77226   0.46179   0.74999   0.00000  Uiso   1.00
O865   O     0.83333   0.53823   0.68392   0.00000  Uiso   1.00
O866   O     0.83334   0.46177   0.81607   0.00000  Uiso   1.00
O867   O     0.83334   0.53823   0.81607   0.00000  Uiso   1.00
O868   O     0.83333   0.46177   0.68392   0.00000  Uiso   1.00
Zn869  Zn    0.83333   0.55104   0.75000   0.00000  Uiso   1.00
Zn870  Zn    0.83333   0.44896   0.75000   0.00000  Uiso   1.00
C871   C     0.08672   0.83334   0.74466   0.00000  Uiso   1.00
C872   C     0.04283   0.83326   0.73268   0.00000  Uiso   1.00
C873   C     0.18467   0.69065   0.78428   0.00000  Uiso   1.00
C874   C     0.14907   0.97603   0.71550   0.00000  Uiso   1.00
C875   C     0.14908   0.69070   0.71549   0.00000  Uiso   1.00
C876   C     0.18468   0.97595   0.78428   0.00000  Uiso   1.00
C877   C     0.16670   0.83336   0.66356   0.00000  Uiso   1.00
C878   C     0.16658   0.83332   0.83636   0.00000  Uiso   1.00
C879   C     0.20411   0.83360   0.90630   0.00000  Uiso   1.00
C880   C     0.12885   0.83430   0.59356   0.00000  Uiso   1.00
C881   C     0.16604   0.83328   0.88389   0.00000  Uiso   1.00
C882   C     0.24656   0.83329   0.74466   0.00000  Uiso   1.00
C883   C     0.16698   0.83354   0.61593   0.00000  Uiso   1.00
C884   C     0.12758   0.83373   0.90591   0.00000  Uiso   1.00
C885   C     0.20529   0.83288   0.59363   0.00000  Uiso   1.00
C886   C     0.12692   0.83148   0.95297   0.00000  Uiso   1.00
C887   C     0.20578   0.83645   0.54671   0.00000  Uiso   1.00
C888   C     0.16591   0.83382   0.97634   0.00000  Uiso   1.00
C889   C     0.16681   0.83440   0.52339   0.00000  Uiso   1.00
C890   C     0.20419   0.83547   0.95274   0.00000  Uiso   1.00
C891   C     0.12862   0.83288   0.54707   0.00000  Uiso   1.00
C892   C     0.08945   0.82719   0.97793   0.00000  Uiso   1.00
C893   C     0.09082   0.82902   0.52404   0.00000  Uiso   1.00
C894   C     0.24317   0.84173   0.52191   0.00000  Uiso   1.00
C895   C     0.24191   0.84002   0.97580   0.00000  Uiso   1.00
C896   C     0.02157   0.79165   0.72631   0.00000  Uiso   1.00
C897   C     0.31150   0.87460   0.72535   0.00000  Uiso   1.00
C898   C     0.31168   0.79154   0.72650   0.00000  Uiso   1.00
C899   C     0.02141   0.87472   0.72573   0.00000  Uiso   1.00
C900   C     0.29033   0.83314   0.73259   0.00000  Uiso   1.00
Cl901  Cl    0.25142   0.83255   0.87508   0.00000  Uiso   1.00
Cl902  Cl    0.04715   0.92720   0.71533   0.00000  Uiso   1.00
Cl903  Cl    0.08163   0.83579   0.62474   0.00000  Uiso   1.00
Cl904  Cl    0.08217   0.84131   0.87237   0.00000  Uiso   1.00
Cl905  Cl    0.25072   0.82229   0.62611   0.00000  Uiso   1.00
Cl906  Cl    0.03944   0.81491   0.95598   0.00000  Uiso   1.00
Cl907  Cl    0.29260   0.85597   0.54426   0.00000  Uiso   1.00
Cl908  Cl    0.04747   0.73919   0.71595   0.00000  Uiso   1.00
Cl909  Cl    0.28532   0.92666   0.71352   0.00000  Uiso   1.00
Cl910  Cl    0.28585   0.73881   0.71700   0.00000  Uiso   1.00
H911   H     0.06154   0.82594   0.54175   0.00000  Uiso   1.00
H912   H     0.27116   0.84373   0.95814   0.00000  Uiso   1.00
H913   H     0.19913   0.70885   0.81161   0.00000  Uiso   1.00
H914   H     0.13502   0.95785   0.68791   0.00000  Uiso   1.00
H915   H     0.13505   0.70893   0.68790   0.00000  Uiso   1.00
H916   H     0.19914   0.95770   0.81161   0.00000  Uiso   1.00
N917   N     0.16667   0.95240   0.75000   0.00000  Uiso   1.00
N918   N     0.16667   0.71427   0.75000   0.00000  Uiso   1.00
O919   O     0.10559   0.87154   0.74999   0.00000  Uiso   1.00
O920   O     0.22774   0.79513   0.75000   0.00000  Uiso   1.00
O921   O     0.22774   0.87154   0.75000   0.00000  Uiso   1.00
O922   O     0.10559   0.79513   0.74999   0.00000  Uiso   1.00
O923   O     0.16666   0.87156   0.68392   0.00000  Uiso   1.00
O924   O     0.16667   0.79511   0.81607   0.00000  Uiso   1.00
O925   O     0.16667   0.87156   0.81607   0.00000  Uiso   1.00
O926   O     0.16666   0.79511   0.68392   0.00000  Uiso   1.00
Zn927  Zn    0.16667   0.88437   0.75000   0.00000  Uiso   1.00
Zn928  Zn    0.16667   0.78229   0.75000   0.00000  Uiso   1.00
C929   C     0.42006   0.83334   0.74466   0.00000  Uiso   1.00
C930   C     0.37616   0.83326   0.73268   0.00000  Uiso   1.00
C931   C     0.51801   0.69065   0.78428   0.00000  Uiso   1.00
C932   C     0.48240   0.97603   0.71550   0.00000  Uiso   1.00
C933   C     0.48241   0.69070   0.71549   0.00000  Uiso   1.00
C934   C     0.51801   0.97595   0.78428   0.00000  Uiso   1.00
C935   C     0.50004   0.83336   0.66356   0.00000  Uiso   1.00
C936   C     0.49992   0.83332   0.83636   0.00000  Uiso   1.00
C937   C     0.53744   0.83360   0.90630   0.00000  Uiso   1.00
C938   C     0.46218   0.83430   0.59356   0.00000  Uiso   1.00
C939   C     0.49938   0.83328   0.88389   0.00000  Uiso   1.00
C940   C     0.57989   0.83329   0.74466   0.00000  Uiso   1.00
C941   C     0.50031   0.83354   0.61593   0.00000  Uiso   1.00
C942   C     0.46091   0.83373   0.90591   0.00000  Uiso   1.00
C943   C     0.53862   0.83288   0.59363   0.00000  Uiso   1.00
C944   C     0.46025   0.83148   0.95297   0.00000  Uiso   1.00
C945   C     0.53911   0.83645   0.54671   0.00000  Uiso   1.00
C946   C     0.49924   0.83382   0.97634   0.00000  Uiso   1.00
C947   C     0.50015   0.83440   0.52339   0.00000  Uiso   1.00
C948   C     0.53752   0.83547   0.95274   0.00000  Uiso   1.00
C949   C     0.46195   0.83288   0.54707   0.00000  Uiso   1.00
C950   C     0.42278   0.82719   0.97793   0.00000  Uiso   1.00
C951   C     0.42416   0.82902   0.52404   0.00000  Uiso   1.00
C952   C     0.57650   0.84173   0.52191   0.00000  Uiso   1.00
C953   C     0.57524   0.84002   0.97580   0.00000  Uiso   1.00
C954   C     0.35490   0.79165   0.72631   0.00000  Uiso   1.00
C955   C     0.64484   0.87460   0.72535   0.00000  Uiso   1.00
C956   C     0.64502   0.79154   0.72650   0.00000  Uiso   1.00
C957   C     0.35474   0.87472   0.72573   0.00000  Uiso   1.00
C958   C     0.62366   0.83314   0.73259   0.00000  Uiso   1.00
Cl959  Cl    0.58475   0.83255   0.87508   0.00000  Uiso   1.00
Cl960  Cl    0.38049   0.92720   0.71533   0.00000  Uiso   1.00
Cl961  Cl    0.41496   0.83579   0.62474   0.00000  Uiso   1.00
Cl962  Cl    0.41551   0.84131   0.87237   0.00000  Uiso   1.00
Cl963  Cl    0.58406   0.82229   0.62611   0.00000  Uiso   1.00
Cl964  Cl    0.37277   0.81491   0.95598   0.00000  Uiso   1.00
Cl965  Cl    0.62593   0.85597   0.54426   0.00000  Uiso   1.00
Cl966  Cl    0.38081   0.73919   0.71595   0.00000  Uiso   1.00
Cl967  Cl    0.61866   0.92666   0.71352   0.00000  Uiso   1.00
Cl968  Cl    0.61918   0.73881   0.71700   0.00000  Uiso   1.00
H969   H     0.39488   0.82594   0.54175   0.00000  Uiso   1.00
H970   H     0.60449   0.84373   0.95814   0.00000  Uiso   1.00
H971   H     0.53247   0.70885   0.81161   0.00000  Uiso   1.00
H972   H     0.46835   0.95785   0.68791   0.00000  Uiso   1.00
H973   H     0.46838   0.70893   0.68790   0.00000  Uiso   1.00
H974   H     0.53247   0.95770   0.81161   0.00000  Uiso   1.00
N975   N     0.50000   0.95240   0.75000   0.00000  Uiso   1.00
N976   N     0.50000   0.71427   0.75000   0.00000  Uiso   1.00
O977   O     0.43892   0.87154   0.74999   0.00000  Uiso   1.00
O978   O     0.56108   0.79513   0.75000   0.00000  Uiso   1.00
O979   O     0.56108   0.87154   0.75000   0.00000  Uiso   1.00
O980   O     0.43892   0.79513   0.74999   0.00000  Uiso   1.00
O981   O     0.49999   0.87156   0.68392   0.00000  Uiso   1.00
O982   O     0.50001   0.79511   0.81607   0.00000  Uiso   1.00
O983   O     0.50001   0.87156   0.81607   0.00000  Uiso   1.00
O984   O     0.49999   0.79511   0.68392   0.00000  Uiso   1.00
Zn985  Zn    0.50000   0.88437   0.75000   0.00000  Uiso   1.00
Zn986  Zn    0.50000   0.78229   0.75000   0.00000  Uiso   1.00
C987   C     0.75339   0.83334   0.74466   0.00000  Uiso   1.00
C988   C     0.70949   0.83326   0.73268   0.00000  Uiso   1.00
C989   C     0.85134   0.69065   0.78428   0.00000  Uiso   1.00
C990   C     0.81574   0.97603   0.71550   0.00000  Uiso   1.00
C991   C     0.81574   0.69070   0.71549   0.00000  Uiso   1.00
C992   C     0.85134   0.97595   0.78428   0.00000  Uiso   1.00
C993   C     0.83337   0.83336   0.66356   0.00000  Uiso   1.00
C994   C     0.83325   0.83332   0.83636   0.00000  Uiso   1.00
C995   C     0.87077   0.83360   0.90630   0.00000  Uiso   1.00
C996   C     0.79552   0.83430   0.59356   0.00000  Uiso   1.00
C997   C     0.83271   0.83328   0.88389   0.00000  Uiso   1.00
C998   C     0.91322   0.83329   0.74466   0.00000  Uiso   1.00
C999   C     0.83364   0.83354   0.61593   0.00000  Uiso   1.00
C1000  C     0.79424   0.83373   0.90591   0.00000  Uiso   1.00
C1001  C     0.87195   0.83288   0.59363   0.00000  Uiso   1.00
C1002  C     0.79359   0.83148   0.95297   0.00000  Uiso   1.00
C1003  C     0.87245   0.83645   0.54671   0.00000  Uiso   1.00
C1004  C     0.83257   0.83382   0.97634   0.00000  Uiso   1.00
C1005  C     0.83348   0.83440   0.52339   0.00000  Uiso   1.00
C1006  C     0.87085   0.83547   0.95274   0.00000  Uiso   1.00
C1007  C     0.79528   0.83288   0.54707   0.00000  Uiso   1.00
C1008  C     0.75612   0.82719   0.97793   0.00000  Uiso   1.00
C1009  C     0.75749   0.82902   0.52404   0.00000  Uiso   1.00
C1010  C     0.90984   0.84173   0.52191   0.00000  Uiso   1.00
C1011  C     0.90857   0.84002   0.97580   0.00000  Uiso   1.00
C1012  C     0.68824   0.79165   0.72631   0.00000  Uiso   1.00
C1013  C     0.97817   0.87460   0.72535   0.00000  Uiso   1.00
C1014  C     0.97835   0.79154   0.72650   0.00000  Uiso   1.00
C1015  C     0.68807   0.87472   0.72573   0.00000  Uiso   1.00
C1016  C     0.95700   0.83314   0.73259   0.00000  Uiso   1.00
Cl1017 Cl    0.91809   0.83255   0.87508   0.00000  Uiso   1.00
Cl1018 Cl    0.71382   0.92720   0.71533   0.00000  Uiso   1.00
Cl1019 Cl    0.74830   0.83579   0.62474   0.00000  Uiso   1.00
Cl1020 Cl    0.74884   0.84131   0.87237   0.00000  Uiso   1.00
Cl1021 Cl    0.91739   0.82229   0.62611   0.00000  Uiso   1.00
Cl1022 Cl    0.70611   0.81491   0.95598   0.00000  Uiso   1.00
Cl1023 Cl    0.95926   0.85597   0.54426   0.00000  Uiso   1.00
Cl1024 Cl    0.71414   0.73919   0.71595   0.00000  Uiso   1.00
Cl1025 Cl    0.95199   0.92666   0.71352   0.00000  Uiso   1.00
Cl1026 Cl    0.95251   0.73881   0.71700   0.00000  Uiso   1.00
H1027  H     0.72821   0.82594   0.54175   0.00000  Uiso   1.00
H1028  H     0.93782   0.84373   0.95814   0.00000  Uiso   1.00
H1029  H     0.86580   0.70885   0.81161   0.00000  Uiso   1.00
H1030  H     0.80169   0.95785   0.68791   0.00000  Uiso   1.00
H1031  H     0.80171   0.70893   0.68790   0.00000  Uiso   1.00
H1032  H     0.86580   0.95770   0.81161   0.00000  Uiso   1.00
N1033  N     0.83333   0.95240   0.75000   0.00000  Uiso   1.00
N1034  N     0.83333   0.71427   0.75000   0.00000  Uiso   1.00
O1035  O     0.77226   0.87154   0.74999   0.00000  Uiso   1.00
O1036  O     0.89441   0.79513   0.75000   0.00000  Uiso   1.00
O1037  O     0.89441   0.87154   0.75000   0.00000  Uiso   1.00
O1038  O     0.77226   0.79513   0.74999   0.00000  Uiso   1.00
O1039  O     0.83333   0.87156   0.68392   0.00000  Uiso   1.00
O1040  O     0.83334   0.79511   0.81607   0.00000  Uiso   1.00
O1041  O     0.83334   0.87156   0.81607   0.00000  Uiso   1.00
O1042  O     0.83333   0.79511   0.68392   0.00000  Uiso   1.00
Zn1043 Zn    0.83333   0.88437   0.75000   0.00000  Uiso   1.00
Zn1044 Zn    0.83333   0.78229   0.75000   0.00000  Uiso   1.00
loop_
_geom_bond_atom_site_label_1
_geom_bond_atom_site_label_2
_geom_bond_distance
_geom_bond_site_symmetry_2
_ccdc_geom_bond_type
C1     O49     1.286   .     A
C1     C2      1.450   .     S
C1     O52     1.286   .     A
C2     C26     1.414   .     A
C2     C29     1.414   .     A
C3     H43     1.082   .     S
C3     N48     1.365   .     A
C3     C354    1.413   1_545 S
C4     H44     1.081   .     S
C4     N47     1.365   .     A
C4     C179    1.413   .     S
C5     H45     1.081   .     S
C5     N48     1.365   .     A
C5     C352    1.413   1_545 S
C6     H46     1.082   .     S
C6     N47     1.365   .     A
C6     C177    1.413   .     S
C7     O56     1.280   .     A
C7     O53     1.279   .     A
C7     C13     1.426   .     S
C8     C11     1.423   .     S
C8     O55     1.278   .     A
C8     O54     1.278   .     A
C9     C20     1.391   .     A
C9     Cl31    1.781   .     S
C9     C11     1.390   .     A
C10    Cl33    1.779   .     S
C10    C21     1.392   .     A
C10    C13     1.391   .     A
C11    C14     1.398   .     A
C12    O50     1.285   .     A
C12    C30     1.448   .     S
C12    O51     1.286   .     A
C13    C15     1.398   .     A
C14    Cl34    1.779   .     S
C14    C16     1.410   .     A
C15    Cl35    1.775   .     S
C15    C17     1.408   .     A
C16    C18     1.431   .     A
C16    C22     1.420   .     A
C17    C24     1.418   .     A
C17    C19     1.430   .     A
C18    C20     1.416   .     A
C18    C541    1.409   .     S
C19    C21     1.415   .     A
C19    C540    1.409   1_554 S
C20    C25     1.396   .     A
C21    C23     1.396   .     A
C22    Cl36    1.767   .     S
C22    C545    1.382   .     S
C23    H41     1.082   .     S
C23    C544    1.382   1_554 S
C24    Cl37    1.768   .     S
C24    C547    1.381   1_554 S
C25    H42     1.082   .     S
C25    C546    1.381   .     S
C26    Cl38    1.779   .     S
C26    C144    1.384   1_455 S
C27    C30     1.413   .     A
C27    Cl39    1.781   .     S
C27    C87     1.384   .     S
C28    C30     1.414   .     A
C28    Cl40    1.781   .     S
C28    C84     1.384   .     S
C29    Cl32    1.778   .     S
C29    C143    1.384   1_455 S
N47    Zn57    2.002   .     S
N48    Zn58    2.002   .     S
O49    Zn57    1.992   .     S
O50    Zn58    1.992   .     S
O51    Zn57    1.991   .     S
O52    Zn58    1.991   .     S
O53    Zn57    2.013   .     S
O54    Zn58    2.013   .     S
O55    Zn57    2.013   .     S
O56    Zn58    2.013   .     S
C59    O107    1.286   .     A
C59    C60     1.450   .     S
C59    O110    1.286   .     A
C60    C84     1.414   .     A
C60    C87     1.414   .     A
C61    H101    1.082   .     S
C61    N106    1.365   .     A
C61    C412    1.413   1_545 S
C62    H102    1.081   .     S
C62    N105    1.365   .     A
C62    C237    1.413   .     S
C63    H103    1.081   .     S
C63    N106    1.365   .     A
C63    C410    1.413   1_545 S
C64    H104    1.082   .     S
C64    N105    1.365   .     A
C64    C235    1.413   .     S
C65    O114    1.280   .     A
C65    O111    1.279   .     A
C65    C71     1.426   .     S
C66    C69     1.423   .     S
C66    O113    1.278   .     A
C66    O112    1.278   .     A
C67    C78     1.391   .     A
C67    Cl89    1.781   .     S
C67    C69     1.390   .     A
C68    Cl91    1.779   .     S
C68    C79     1.392   .     A
C68    C71     1.391   .     A
C69    C72     1.398   .     A
C70    O108    1.285   .     A
C70    C88     1.448   .     S
C70    O109    1.286   .     A
C71    C73     1.398   .     A
C72    Cl92    1.779   .     S
C72    C74     1.410   .     A
C73    Cl93    1.775   .     S
C73    C75     1.408   .     A
C74    C76     1.431   .     A
C74    C80     1.420   .     A
C75    C82     1.418   .     A
C75    C77     1.430   .     A
C76    C78     1.416   .     A
C76    C599    1.409   .     S
C77    C79     1.415   .     A
C77    C598    1.409   1_554 S
C78    C83     1.396   .     A
C79    C81     1.396   .     A
C80    Cl94    1.767   .     S
C80    C603    1.382   .     S
C81    H99     1.082   .     S
C81    C602    1.382   1_554 S
C82    Cl95    1.768   .     S
C82    C605    1.381   1_554 S
C83    H100    1.082   .     S
C83    C604    1.381   .     S
C84    Cl96    1.779   .     S
C85    C88     1.413   .     A
C85    Cl97    1.781   .     S
C85    C145    1.384   .     S
C86    C88     1.414   .     A
C86    Cl98    1.781   .     S
C86    C142    1.384   .     S
C87    Cl90    1.778   .     S
N105   Zn115   2.002   .     S
N106   Zn116   2.002   .     S
O107   Zn115   1.992   .     S
O108   Zn116   1.992   .     S
O109   Zn115   1.991   .     S
O110   Zn116   1.991   .     S
O111   Zn115   2.013   .     S
O112   Zn116   2.013   .     S
O113   Zn115   2.013   .     S
O114   Zn116   2.013   .     S
C117   O165    1.286   .     A
C117   C118    1.450   .     S
C117   O168    1.286   .     A
C118   C142    1.414   .     A
C118   C145    1.414   .     A
C119   H159    1.082   .     S
C119   N164    1.365   .     A
C119   C470    1.413   1_545 S
C120   H160    1.081   .     S
C120   N163    1.365   .     A
C120   C295    1.413   .     S
C121   H161    1.081   .     S
C121   N164    1.365   .     A
C121   C468    1.413   1_545 S
C122   H162    1.082   .     S
C122   N163    1.365   .     A
C122   C293    1.413   .     S
C123   O172    1.280   .     A
C123   O169    1.279   .     A
C123   C129    1.426   .     S
C124   C127    1.423   .     S
C124   O171    1.278   .     A
C124   O170    1.278   .     A
C125   C136    1.391   .     A
C125   Cl147   1.781   .     S
C125   C127    1.390   .     A
C126   Cl149   1.779   .     S
C126   C137    1.392   .     A
C126   C129    1.391   .     A
C127   C130    1.398   .     A
C128   O166    1.285   .     A
C128   C146    1.448   .     S
C128   O167    1.286   .     A
C129   C131    1.398   .     A
C130   Cl150   1.779   .     S
C130   C132    1.410   .     A
C131   Cl151   1.775   .     S
C131   C133    1.408   .     A
C132   C134    1.431   .     A
C132   C138    1.420   .     A
C133   C140    1.418   .     A
C133   C135    1.430   .     A
C134   C136    1.416   .     A
C134   C657    1.409   .     S
C135   C137    1.415   .     A
C135   C656    1.409   1_554 S
C136   C141    1.396   .     A
C137   C139    1.396   .     A
C138   Cl152   1.767   .     S
C138   C661    1.382   .     S
C139   H157    1.082   .     S
C139   C660    1.382   1_554 S
C140   Cl153   1.768   .     S
C140   C663    1.381   1_554 S
C141   H158    1.082   .     S
C141   C662    1.381   .     S
C142   Cl154   1.779   .     S
C143   C146    1.413   .     A
C143   Cl155   1.781   .     S
C143   C29     1.384   1_655 S
C144   C146    1.414   .     A
C144   Cl156   1.781   .     S
C144   C26     1.384   1_655 S
C145   Cl148   1.778   .     S
N163   Zn173   2.002   .     S
N164   Zn174   2.002   .     S
O165   Zn173   1.992   .     S
O166   Zn174   1.992   .     S
O167   Zn173   1.991   .     S
O168   Zn174   1.991   .     S
O169   Zn173   2.013   .     S
O170   Zn174   2.013   .     S
O171   Zn173   2.013   .     S
O172   Zn174   2.013   .     S
C175   O223    1.286   .     A
C175   C176    1.450   .     S
C175   O226    1.286   .     A
C176   C200    1.414   .     A
C176   C203    1.414   .     A
C177   H217    1.082   .     S
C177   N222    1.365   .     A
C178   H218    1.081   .     S
C178   N221    1.365   .     A
C178   C353    1.413   .     S
C179   H219    1.081   .     S
C179   N222    1.365   .     A
C180   H220    1.082   .     S
C180   N221    1.365   .     A
C180   C351    1.413   .     S
C181   O230    1.280   .     A
C181   O227    1.279   .     A
C181   C187    1.426   .     S
C182   C185    1.423   .     S
C182   O229    1.278   .     A
C182   O228    1.278   .     A
C183   C194    1.391   .     A
C183   Cl205   1.781   .     S
C183   C185    1.390   .     A
C184   Cl207   1.779   .     S
C184   C195    1.392   .     A
C184   C187    1.391   .     A
C185   C188    1.398   .     A
C186   O224    1.285   .     A
C186   C204    1.448   .     S
C186   O225    1.286   .     A
C187   C189    1.398   .     A
C188   Cl208   1.779   .     S
C188   C190    1.410   .     A
C189   Cl209   1.775   .     S
C189   C191    1.408   .     A
C190   C192    1.431   .     A
C190   C196    1.420   .     A
C191   C198    1.418   .     A
C191   C193    1.430   .     A
C192   C194    1.416   .     A
C192   C715    1.409   .     S
C193   C195    1.415   .     A
C193   C714    1.409   1_554 S
C194   C199    1.396   .     A
C195   C197    1.396   .     A
C196   Cl210   1.767   .     S
C196   C719    1.382   .     S
C197   H215    1.082   .     S
C197   C718    1.382   1_554 S
C198   Cl211   1.768   .     S
C198   C721    1.381   1_554 S
C199   H216    1.082   .     S
C199   C720    1.381   .     S
C200   Cl212   1.779   .     S
C200   C318    1.384   1_455 S
C201   C204    1.413   .     A
C201   Cl213   1.781   .     S
C201   C261    1.384   .     S
C202   C204    1.414   .     A
C202   Cl214   1.781   .     S
C202   C258    1.384   .     S
C203   Cl206   1.778   .     S
C203   C317    1.384   1_455 S
N221   Zn231   2.002   .     S
N222   Zn232   2.002   .     S
O223   Zn231   1.992   .     S
O224   Zn232   1.992   .     S
O225   Zn231   1.991   .     S
O226   Zn232   1.991   .     S
O227   Zn231   2.013   .     S
O228   Zn232   2.013   .     S
O229   Zn231   2.013   .     S
O230   Zn232   2.013   .     S
C233   O281    1.286   .     A
C233   C234    1.450   .     S
C233   O284    1.286   .     A
C234   C258    1.414   .     A
C234   C261    1.414   .     A
C235   H275    1.082   .     S
C235   N280    1.365   .     A
C236   H276    1.081   .     S
C236   N279    1.365   .     A
C236   C411    1.413   .     S
C237   H277    1.081   .     S
C237   N280    1.365   .     A
C238   H278    1.082   .     S
C238   N279    1.365   .     A
C238   C409    1.413   .     S
C239   O288    1.280   .     A
C239   O285    1.279   .     A
C239   C245    1.426   .     S
C240   C243    1.423   .     S
C240   O287    1.278   .     A
C240   O286    1.278   .     A
C241   C252    1.391   .     A
C241   Cl263   1.781   .     S
C241   C243    1.390   .     A
C242   Cl265   1.779   .     S
C242   C253    1.392   .     A
C242   C245    1.391   .     A
C243   C246    1.398   .     A
C244   O282    1.285   .     A
C244   C262    1.448   .     S
C244   O283    1.286   .     A
C245   C247    1.398   .     A
C246   Cl266   1.779   .     S
C246   C248    1.410   .     A
C247   Cl267   1.775   .     S
C247   C249    1.408   .     A
C248   C250    1.431   .     A
C248   C254    1.420   .     A
C249   C256    1.418   .     A
C249   C251    1.430   .     A
C250   C252    1.416   .     A
C250   C773    1.409   .     S
C251   C253    1.415   .     A
C251   C772    1.409   1_554 S
C252   C257    1.396   .     A
C253   C255    1.396   .     A
C254   Cl268   1.767   .     S
C254   C777    1.382   .     S
C255   H273    1.082   .     S
C255   C776    1.382   1_554 S
C256   Cl269   1.768   .     S
C256   C779    1.381   1_554 S
C257   H274    1.082   .     S
C257   C778    1.381   .     S
C258   Cl270   1.779   .     S
C259   C262    1.413   .     A
C259   Cl271   1.781   .     S
C259   C319    1.384   .     S
C260   C262    1.414   .     A
C260   Cl272   1.781   .     S
C260   C316    1.384   .     S
C261   Cl264   1.778   .     S
N279   Zn289   2.002   .     S
N280   Zn290   2.002   .     S
O281   Zn289   1.992   .     S
O282   Zn290   1.992   .     S
O283   Zn289   1.991   .     S
O284   Zn290   1.991   .     S
O285   Zn289   2.013   .     S
O286   Zn290   2.013   .     S
O287   Zn289   2.013   .     S
O288   Zn290   2.013   .     S
C291   O339    1.286   .     A
C291   C292    1.450   .     S
C291   O342    1.286   .     A
C292   C316    1.414   .     A
C292   C319    1.414   .     A
C293   H333    1.082   .     S
C293   N338    1.365   .     A
C294   H334    1.081   .     S
C294   N337    1.365   .     A
C294   C469    1.413   .     S
C295   H335    1.081   .     S
C295   N338    1.365   .     A
C296   H336    1.082   .     S
C296   N337    1.365   .     A
C296   C467    1.413   .     S
C297   O346    1.280   .     A
C297   O343    1.279   .     A
C297   C303    1.426   .     S
C298   C301    1.423   .     S
C298   O345    1.278   .     A
C298   O344    1.278   .     A
C299   C310    1.391   .     A
C299   Cl321   1.781   .     S
C299   C301    1.390   .     A
C300   Cl323   1.779   .     S
C300   C311    1.392   .     A
C300   C303    1.391   .     A
C301   C304    1.398   .     A
C302   O340    1.285   .     A
C302   C320    1.448   .     S
C302   O341    1.286   .     A
C303   C305    1.398   .     A
C304   Cl324   1.779   .     S
C304   C306    1.410   .     A
C305   Cl325   1.775   .     S
C305   C307    1.408   .     A
C306   C308    1.431   .     A
C306   C312    1.420   .     A
C307   C314    1.418   .     A
C307   C309    1.430   .     A
C308   C310    1.416   .     A
C308   C831    1.409   .     S
C309   C311    1.415   .     A
C309   C830    1.409   1_554 S
C310   C315    1.396   .     A
C311   C313    1.396   .     A
C312   Cl326   1.767   .     S
C312   C835    1.382   .     S
C313   H331    1.082   .     S
C313   C834    1.382   1_554 S
C314   Cl327   1.768   .     S
C314   C837    1.381   1_554 S
C315   H332    1.082   .     S
C315   C836    1.381   .     S
C316   Cl328   1.779   .     S
C317   C320    1.413   .     A
C317   Cl329   1.781   .     S
C317   C203    1.384   1_655 S
C318   C320    1.414   .     A
C318   Cl330   1.781   .     S
C318   C200    1.384   1_655 S
C319   Cl322   1.778   .     S
N337   Zn347   2.002   .     S
N338   Zn348   2.002   .     S
O339   Zn347   1.992   .     S
O340   Zn348   1.992   .     S
O341   Zn347   1.991   .     S
O342   Zn348   1.991   .     S
O343   Zn347   2.013   .     S
O344   Zn348   2.013   .     S
O345   Zn347   2.013   .     S
O346   Zn348   2.013   .     S
C349   O397    1.286   .     A
C349   C350    1.450   .     S
C349   O400    1.286   .     A
C350   C374    1.414   .     A
C350   C377    1.414   .     A
C351   H391    1.082   .     S
C351   N396    1.365   .     A
C352   H392    1.081   .     S
C352   N395    1.365   .     A
C352   C5      1.413   1_565 S
C353   H393    1.081   .     S
C353   N396    1.365   .     A
C354   H394    1.082   .     S
C354   N395    1.365   .     A
C354   C3      1.413   1_565 S
C355   O404    1.280   .     A
C355   O401    1.279   .     A
C355   C361    1.426   .     S
C356   C359    1.423   .     S
C356   O403    1.278   .     A
C356   O402    1.278   .     A
C357   C368    1.391   .     A
C357   Cl379   1.781   .     S
C357   C359    1.390   .     A
C358   Cl381   1.779   .     S
C358   C369    1.392   .     A
C358   C361    1.391   .     A
C359   C362    1.398   .     A
C360   O398    1.285   .     A
C360   C378    1.448   .     S
C360   O399    1.286   .     A
C361   C363    1.398   .     A
C362   Cl382   1.779   .     S
C362   C364    1.410   .     A
C363   Cl383   1.775   .     S
C363   C365    1.408   .     A
C364   C366    1.431   .     A
C364   C370    1.420   .     A
C365   C372    1.418   .     A
C365   C367    1.430   .     A
C366   C368    1.416   .     A
C366   C889    1.409   .     S
C367   C369    1.415   .     A
C367   C888    1.409   1_554 S
C368   C373    1.396   .     A
C369   C371    1.396   .     A
C370   Cl384   1.767   .     S
C370   C893    1.382   .     S
C371   H389    1.082   .     S
C371   C892    1.382   1_554 S
C372   Cl385   1.768   .     S
C372   C895    1.381   1_554 S
C373   H390    1.082   .     S
C373   C894    1.381   .     S
C374   Cl386   1.779   .     S
C374   C492    1.384   1_455 S
C375   C378    1.413   .     A
C375   Cl387   1.781   .     S
C375   C435    1.384   .     S
C376   C378    1.414   .     A
C376   Cl388   1.781   .     S
C376   C432    1.384   .     S
C377   Cl380   1.778   .     S
C377   C491    1.384   1_455 S
N395   Zn405   2.002   .     S
N396   Zn406   2.002   .     S
O397   Zn405   1.992   .     S
O398   Zn406   1.992   .     S
O399   Zn405   1.991   .     S
O400   Zn406   1.991   .     S
O401   Zn405   2.013   .     S
O402   Zn406   2.013   .     S
O403   Zn405   2.013   .     S
O404   Zn406   2.013   .     S
C407   O455    1.286   .     A
C407   C408    1.450   .     S
C407   O458    1.286   .     A
C408   C432    1.414   .     A
C408   C435    1.414   .     A
C409   H449    1.082   .     S
C409   N454    1.365   .     A
C410   H450    1.081   .     S
C410   N453    1.365   .     A
C410   C63     1.413   1_565 S
C411   H451    1.081   .     S
C411   N454    1.365   .     A
C412   H452    1.082   .     S
C412   N453    1.365   .     A
C412   C61     1.413   1_565 S
C413   O462    1.280   .     A
C413   O459    1.279   .     A
C413   C419    1.426   .     S
C414   C417    1.423   .     S
C414   O461    1.278   .     A
C414   O460    1.278   .     A
C415   C426    1.391   .     A
C415   Cl437   1.781   .     S
C415   C417    1.390   .     A
C416   Cl439   1.779   .     S
C416   C427    1.392   .     A
C416   C419    1.391   .     A
C417   C420    1.398   .     A
C418   O456    1.285   .     A
C418   C436    1.448   .     S
C418   O457    1.286   .     A
C419   C421    1.398   .     A
C420   Cl440   1.779   .     S
C420   C422    1.410   .     A
C421   Cl441   1.775   .     S
C421   C423    1.408   .     A
C422   C424    1.431   .     A
C422   C428    1.420   .     A
C423   C430    1.418   .     A
C423   C425    1.430   .     A
C424   C426    1.416   .     A
C424   C947    1.409   .     S
C425   C427    1.415   .     A
C425   C946    1.409   1_554 S
C426   C431    1.396   .     A
C427   C429    1.396   .     A
C428   Cl442   1.767   .     S
C428   C951    1.382   .     S
C429   H447    1.082   .     S
C429   C950    1.382   1_554 S
C430   Cl443   1.768   .     S
C430   C953    1.381   1_554 S
C431   H448    1.082   .     S
C431   C952    1.381   .     S
C432   Cl444   1.779   .     S
C433   C436    1.413   .     A
C433   Cl445   1.781   .     S
C433   C493    1.384   .     S
C434   C436    1.414   .     A
C434   Cl446   1.781   .     S
C434   C490    1.384   .     S
C435   Cl438   1.778   .     S
N453   Zn463   2.002   .     S
N454   Zn464   2.002   .     S
O455   Zn463   1.992   .     S
O456   Zn464   1.992   .     S
O457   Zn463   1.991   .     S
O458   Zn464   1.991   .     S
O459   Zn463   2.013   .     S
O460   Zn464   2.013   .     S
O461   Zn463   2.013   .     S
O462   Zn464   2.013   .     S
C465   O513    1.286   .     A
C465   C466    1.450   .     S
C465   O516    1.286   .     A
C466   C490    1.414   .     A
C466   C493    1.414   .     A
C467   H507    1.082   .     S
C467   N512    1.365   .     A
C468   H508    1.081   .     S
C468   N511    1.365   .     A
C468   C121    1.413   1_565 S
C469   H509    1.081   .     S
C469   N512    1.365   .     A
C470   H510    1.082   .     S
C470   N511    1.365   .     A
C470   C119    1.413   1_565 S
C471   O520    1.280   .     A
C471   O517    1.279   .     A
C471   C477    1.426   .     S
C472   C475    1.423   .     S
C472   O519    1.278   .     A
C472   O518    1.278   .     A
C473   C484    1.391   .     A
C473   Cl495   1.781   .     S
C473   C475    1.390   .     A
C474   Cl497   1.779   .     S
C474   C485    1.392   .     A
C474   C477    1.391   .     A
C475   C478    1.398   .     A
C476   O514    1.285   .     A
C476   C494    1.448   .     S
C476   O515    1.286   .     A
C477   C479    1.398   .     A
C478   Cl498   1.779   .     S
C478   C480    1.410   .     A
C479   Cl499   1.775   .     S
C479   C481    1.408   .     A
C480   C482    1.431   .     A
C480   C486    1.420   .     A
C481   C488    1.418   .     A
C481   C483    1.430   .     A
C482   C484    1.416   .     A
C482   C1005   1.409   .     S
C483   C485    1.415   .     A
C483   C1004   1.409   1_554 S
C484   C489    1.396   .     A
C485   C487    1.396   .     A
C486   Cl500   1.767   .     S
C486   C1009   1.382   .     S
C487   H505    1.082   .     S
C487   C1008   1.382   1_554 S
C488   Cl501   1.768   .     S
C488   C1011   1.381   1_554 S
C489   H506    1.082   .     S
C489   C1010   1.381   .     S
C490   Cl502   1.779   .     S
C491   C494    1.413   .     A
C491   Cl503   1.781   .     S
C491   C377    1.384   1_655 S
C492   C494    1.414   .     A
C492   Cl504   1.781   .     S
C492   C374    1.384   1_655 S
C493   Cl496   1.778   .     S
N511   Zn521   2.002   .     S
N512   Zn522   2.002   .     S
O513   Zn521   1.992   .     S
O514   Zn522   1.992   .     S
O515   Zn521   1.991   .     S
O516   Zn522   1.991   .     S
O517   Zn521   2.013   .     S
O518   Zn522   2.013   .     S
O519   Zn521   2.013   .     S
O520   Zn522   2.013   .     S
C523   O571    1.286   .     A
C523   C524    1.450   .     S
C523   O574    1.286   .     A
C524   C548    1.414   .     A
C524   C551    1.414   .     A
C525   H565    1.082   .     S
C525   N570    1.365   .     A
C525   C876    1.413   1_545 S
C526   H566    1.081   .     S
C526   N569    1.365   .     A
C526   C701    1.413   .     S
C527   H567    1.081   .     S
C527   N570    1.365   .     A
C527   C874    1.413   1_545 S
C528   H568    1.082   .     S
C528   N569    1.365   .     A
C528   C699    1.413   .     S
C529   O578    1.280   .     A
C529   O575    1.279   .     A
C529   C535    1.426   .     S
C530   C533    1.423   .     S
C530   O577    1.278   .     A
C530   O576    1.278   .     A
C531   C542    1.391   .     A
C531   Cl553   1.781   .     S
C531   C533    1.390   .     A
C532   Cl555   1.779   .     S
C532   C543    1.392   .     A
C532   C535    1.391   .     A
C533   C536    1.398   .     A
C534   O572    1.285   .     A
C534   C552    1.448   .     S
C534   O573    1.286   .     A
C535   C537    1.398   .     A
C536   Cl556   1.779   .     S
C536   C538    1.410   .     A
C537   Cl557   1.775   .     S
C537   C539    1.408   .     A
C538   C540    1.431   .     A
C538   C544    1.420   .     A
C539   C546    1.418   .     A
C539   C541    1.430   .     A
C540   C542    1.416   .     A
C540   C19     1.409   1_556 S
C541   C543    1.415   .     A
C542   C547    1.396   .     A
C543   C545    1.396   .     A
C544   Cl558   1.767   .     S
C544   C23     1.382   1_556 S
C545   H563    1.082   .     S
C546   Cl559   1.768   .     S
C547   H564    1.082   .     S
C547   C24     1.381   1_556 S
C548   Cl560   1.779   .     S
C548   C666    1.384   1_455 S
C549   C552    1.413   .     A
C549   Cl561   1.781   .     S
C549   C609    1.384   .     S
C550   C552    1.414   .     A
C550   Cl562   1.781   .     S
C550   C606    1.384   .     S
C551   Cl554   1.778   .     S
C551   C665    1.384   1_455 S
N569   Zn579   2.002   .     S
N570   Zn580   2.002   .     S
O571   Zn579   1.992   .     S
O572   Zn580   1.992   .     S
O573   Zn579   1.991   .     S
O574   Zn580   1.991   .     S
O575   Zn579   2.013   .     S
O576   Zn580   2.013   .     S
O577   Zn579   2.013   .     S
O578   Zn580   2.013   .     S
C581   O629    1.286   .     A
C581   C582    1.450   .     S
C581   O632    1.286   .     A
C582   C606    1.414   .     A
C582   C609    1.414   .     A
C583   H623    1.082   .     S
C583   N628    1.365   .     A
C583   C934    1.413   1_545 S
C584   H624    1.081   .     S
C584   N627    1.365   .     A
C584   C759    1.413   .     S
C585   H625    1.081   .     S
C585   N628    1.365   .     A
C585   C932    1.413   1_545 S
C586   H626    1.082   .     S
C586   N627    1.365   .     A
C586   C757    1.413   .     S
C587   O636    1.280   .     A
C587   O633    1.279   .     A
C587   C593    1.426   .     S
C588   C591    1.423   .     S
C588   O635    1.278   .     A
C588   O634    1.278   .     A
C589   C600    1.391   .     A
C589   Cl611   1.781   .     S
C589   C591    1.390   .     A
C590   Cl613   1.779   .     S
C590   C601    1.392   .     A
C590   C593    1.391   .     A
C591   C594    1.398   .     A
C592   O630    1.285   .     A
C592   C610    1.448   .     S
C592   O631    1.286   .     A
C593   C595    1.398   .     A
C594   Cl614   1.779   .     S
C594   C596    1.410   .     A
C595   Cl615   1.775   .     S
C595   C597    1.408   .     A
C596   C598    1.431   .     A
C596   C602    1.420   .     A
C597   C604    1.418   .     A
C597   C599    1.430   .     A
C598   C600    1.416   .     A
C598   C77     1.409   1_556 S
C599   C601    1.415   .     A
C600   C605    1.396   .     A
C601   C603    1.396   .     A
C602   Cl616   1.767   .     S
C602   C81     1.382   1_556 S
C603   H621    1.082   .     S
C604   Cl617   1.768   .     S
C605   H622    1.082   .     S
C605   C82     1.381   1_556 S
C606   Cl618   1.779   .     S
C607   C610    1.413   .     A
C607   Cl619   1.781   .     S
C607   C667    1.384   .     S
C608   C610    1.414   .     A
C608   Cl620   1.781   .     S
C608   C664    1.384   .     S
C609   Cl612   1.778   .     S
N627   Zn637   2.002   .     S
N628   Zn638   2.002   .     S
O629   Zn637   1.992   .     S
O630   Zn638   1.992   .     S
O631   Zn637   1.991   .     S
O632   Zn638   1.991   .     S
O633   Zn637   2.013   .     S
O634   Zn638   2.013   .     S
O635   Zn637   2.013   .     S
O636   Zn638   2.013   .     S
C639   O687    1.286   .     A
C639   C640    1.450   .     S
C639   O690    1.286   .     A
C640   C664    1.414   .     A
C640   C667    1.414   .     A
C641   H681    1.082   .     S
C641   N686    1.365   .     A
C641   C992    1.413   1_545 S
C642   H682    1.081   .     S
C642   N685    1.365   .     A
C642   C817    1.413   .     S
C643   H683    1.081   .     S
C643   N686    1.365   .     A
C643   C990    1.413   1_545 S
C644   H684    1.082   .     S
C644   N685    1.365   .     A
C644   C815    1.413   .     S
C645   O694    1.280   .     A
C645   O691    1.279   .     A
C645   C651    1.426   .     S
C646   C649    1.423   .     S
C646   O693    1.278   .     A
C646   O692    1.278   .     A
C647   C658    1.391   .     A
C647   Cl669   1.781   .     S
C647   C649    1.390   .     A
C648   Cl671   1.779   .     S
C648   C659    1.392   .     A
C648   C651    1.391   .     A
C649   C652    1.398   .     A
C650   O688    1.285   .     A
C650   C668    1.448   .     S
C650   O689    1.286   .     A
C651   C653    1.398   .     A
C652   Cl672   1.779   .     S
C652   C654    1.410   .     A
C653   Cl673   1.775   .     S
C653   C655    1.408   .     A
C654   C656    1.431   .     A
C654   C660    1.420   .     A
C655   C662    1.418   .     A
C655   C657    1.430   .     A
C656   C658    1.416   .     A
C656   C135    1.409   1_556 S
C657   C659    1.415   .     A
C658   C663    1.396   .     A
C659   C661    1.396   .     A
C660   Cl674   1.767   .     S
C660   C139    1.382   1_556 S
C661   H679    1.082   .     S
C662   Cl675   1.768   .     S
C663   H680    1.082   .     S
C663   C140    1.381   1_556 S
C664   Cl676   1.779   .     S
C665   C668    1.413   .     A
C665   Cl677   1.781   .     S
C665   C551    1.384   1_655 S
C666   C668    1.414   .     A
C666   Cl678   1.781   .     S
C666   C548    1.384   1_655 S
C667   Cl670   1.778   .     S
N685   Zn695   2.002   .     S
N686   Zn696   2.002   .     S
O687   Zn695   1.992   .     S
O688   Zn696   1.992   .     S
O689   Zn695   1.991   .     S
O690   Zn696   1.991   .     S
O691   Zn695   2.013   .     S
O692   Zn696   2.013   .     S
O693   Zn695   2.013   .     S
O694   Zn696   2.013   .     S
C697   O745    1.286   .     A
C697   C698    1.450   .     S
C697   O748    1.286   .     A
C698   C722    1.414   .     A
C698   C725    1.414   .     A
C699   H739    1.082   .     S
C699   N744    1.365   .     A
C700   H740    1.081   .     S
C700   N743    1.365   .     A
C700   C875    1.413   .     S
C701   H741    1.081   .     S
C701   N744    1.365   .     A
C702   H742    1.082   .     S
C702   N743    1.365   .     A
C702   C873    1.413   .     S
C703   O752    1.280   .     A
C703   O749    1.279   .     A
C703   C709    1.426   .     S
C704   C707    1.423   .     S
C704   O751    1.278   .     A
C704   O750    1.278   .     A
C705   C716    1.391   .     A
C705   Cl727   1.781   .     S
C705   C707    1.390   .     A
C706   Cl729   1.779   .     S
C706   C717    1.392   .     A
C706   C709    1.391   .     A
C707   C710    1.398   .     A
C708   O746    1.285   .     A
C708   C726    1.448   .     S
C708   O747    1.286   .     A
C709   C711    1.398   .     A
C710   Cl730   1.779   .     S
C710   C712    1.410   .     A
C711   Cl731   1.775   .     S
C711   C713    1.408   .     A
C712   C714    1.431   .     A
C712   C718    1.420   .     A
C713   C720    1.418   .     A
C713   C715    1.430   .     A
C714   C716    1.416   .     A
C714   C193    1.409   1_556 S
C715   C717    1.415   .     A
C716   C721    1.396   .     A
C717   C719    1.396   .     A
C718   Cl732   1.767   .     S
C718   C197    1.382   1_556 S
C719   H737    1.082   .     S
C720   Cl733   1.768   .     S
C721   H738    1.082   .     S
C721   C198    1.381   1_556 S
C722   Cl734   1.779   .     S
C722   C840    1.384   1_455 S
C723   C726    1.413   .     A
C723   Cl735   1.781   .     S
C723   C783    1.384   .     S
C724   C726    1.414   .     A
C724   Cl736   1.781   .     S
C724   C780    1.384   .     S
C725   Cl728   1.778   .     S
C725   C839    1.384   1_455 S
N743   Zn753   2.002   .     S
N744   Zn754   2.002   .     S
O745   Zn753   1.992   .     S
O746   Zn754   1.992   .     S
O747   Zn753   1.991   .     S
O748   Zn754   1.991   .     S
O749   Zn753   2.013   .     S
O750   Zn754   2.013   .     S
O751   Zn753   2.013   .     S
O752   Zn754   2.013   .     S
C755   O803    1.286   .     A
C755   C756    1.450   .     S
C755   O806    1.286   .     A
C756   C780    1.414   .     A
C756   C783    1.414   .     A
C757   H797    1.082   .     S
C757   N802    1.365   .     A
C758   H798    1.081   .     S
C758   N801    1.365   .     A
C758   C933    1.413   .     S
C759   H799    1.081   .     S
C759   N802    1.365   .     A
C760   H800    1.082   .     S
C760   N801    1.365   .     A
C760   C931    1.413   .     S
C761   O810    1.280   .     A
C761   O807    1.279   .     A
C761   C767    1.426   .     S
C762   C765    1.423   .     S
C762   O809    1.278   .     A
C762   O808    1.278   .     A
C763   C774    1.391   .     A
C763   Cl785   1.781   .     S
C763   C765    1.390   .     A
C764   Cl787   1.779   .     S
C764   C775    1.392   .     A
C764   C767    1.391   .     A
C765   C768    1.398   .     A
C766   O804    1.285   .     A
C766   C784    1.448   .     S
C766   O805    1.286   .     A
C767   C769    1.398   .     A
C768   Cl788   1.779   .     S
C768   C770    1.410   .     A
C769   Cl789   1.775   .     S
C769   C771    1.408   .     A
C770   C772    1.431   .     A
C770   C776    1.420   .     A
C771   C778    1.418   .     A
C771   C773    1.430   .     A
C772   C774    1.416   .     A
C772   C251    1.409   1_556 S
C773   C775    1.415   .     A
C774   C779    1.396   .     A
C775   C777    1.396   .     A
C776   Cl790   1.767   .     S
C776   C255    1.382   1_556 S
C777   H795    1.082   .     S
C778   Cl791   1.768   .     S
C779   H796    1.082   .     S
C779   C256    1.381   1_556 S
C780   Cl792   1.779   .     S
C781   C784    1.413   .     A
C781   Cl793   1.781   .     S
C781   C841    1.384   .     S
C782   C784    1.414   .     A
C782   Cl794   1.781   .     S
C782   C838    1.384   .     S
C783   Cl786   1.778   .     S
N801   Zn811   2.002   .     S
N802   Zn812   2.002   .     S
O803   Zn811   1.992   .     S
O804   Zn812   1.992   .     S
O805   Zn811   1.991   .     S
O806   Zn812   1.991   .     S
O807   Zn811   2.013   .     S
O808   Zn812   2.013   .     S
O809   Zn811   2.013   .     S
O810   Zn812   2.013   .     S
C813   O861    1.286   .     A
C813   C814    1.450   .     S
C813   O864    1.286   .     A
C814   C838    1.414   .     A
C814   C841    1.414   .     A
C815   H855    1.082   .     S
C815   N860    1.365   .     A
C816   H856    1.081   .     S
C816   N859    1.365   .     A
C816   C991    1.413   .     S
C817   H857    1.081   .     S
C817   N860    1.365   .     A
C818   H858    1.082   .     S
C818   N859    1.365   .     A
C818   C989    1.413   .     S
C819   O868    1.280   .     A
C819   O865    1.279   .     A
C819   C825    1.426   .     S
C820   C823    1.423   .     S
C820   O867    1.278   .     A
C820   O866    1.278   .     A
C821   C832    1.391   .     A
C821   Cl843   1.781   .     S
C821   C823    1.390   .     A
C822   Cl845   1.779   .     S
C822   C833    1.392   .     A
C822   C825    1.391   .     A
C823   C826    1.398   .     A
C824   O862    1.285   .     A
C824   C842    1.448   .     S
C824   O863    1.286   .     A
C825   C827    1.398   .     A
C826   Cl846   1.779   .     S
C826   C828    1.410   .     A
C827   Cl847   1.775   .     S
C827   C829    1.408   .     A
C828   C830    1.431   .     A
C828   C834    1.420   .     A
C829   C836    1.418   .     A
C829   C831    1.430   .     A
C830   C832    1.416   .     A
C830   C309    1.409   1_556 S
C831   C833    1.415   .     A
C832   C837    1.396   .     A
C833   C835    1.396   .     A
C834   Cl848   1.767   .     S
C834   C313    1.382   1_556 S
C835   H853    1.082   .     S
C836   Cl849   1.768   .     S
C837   H854    1.082   .     S
C837   C314    1.381   1_556 S
C838   Cl850   1.779   .     S
C839   C842    1.413   .     A
C839   Cl851   1.781   .     S
C839   C725    1.384   1_655 S
C840   C842    1.414   .     A
C840   Cl852   1.781   .     S
C840   C722    1.384   1_655 S
C841   Cl844   1.778   .     S
N859   Zn869   2.002   .     S
N860   Zn870   2.002   .     S
O861   Zn869   1.992   .     S
O862   Zn870   1.992   .     S
O863   Zn869   1.991   .     S
O864   Zn870   1.991   .     S
O865   Zn869   2.013   .     S
O866   Zn870   2.013   .     S
O867   Zn869   2.013   .     S
O868   Zn870   2.013   .     S
C871   O919    1.286   .     A
C871   C872    1.450   .     S
C871   O922    1.286   .     A
C872   C896    1.414   .     A
C872   C899    1.414   .     A
C873   H913    1.082   .     S
C873   N918    1.365   .     A
C874   H914    1.081   .     S
C874   N917    1.365   .     A
C874   C527    1.413   1_565 S
C875   H915    1.081   .     S
C875   N918    1.365   .     A
C876   H916    1.082   .     S
C876   N917    1.365   .     A
C876   C525    1.413   1_565 S
C877   O926    1.280   .     A
C877   O923    1.279   .     A
C877   C883    1.426   .     S
C878   C881    1.423   .     S
C878   O925    1.278   .     A
C878   O924    1.278   .     A
C879   C890    1.391   .     A
C879   Cl901   1.781   .     S
C879   C881    1.390   .     A
C880   Cl903   1.779   .     S
C880   C891    1.392   .     A
C880   C883    1.391   .     A
C881   C884    1.398   .     A
C882   O920    1.285   .     A
C882   C900    1.448   .     S
C882   O921    1.286   .     A
C883   C885    1.398   .     A
C884   Cl904   1.779   .     S
C884   C886    1.410   .     A
C885   Cl905   1.775   .     S
C885   C887    1.408   .     A
C886   C888    1.431   .     A
C886   C892    1.420   .     A
C887   C894    1.418   .     A
C887   C889    1.430   .     A
C888   C890    1.416   .     A
C888   C367    1.409   1_556 S
C889   C891    1.415   .     A
C890   C895    1.396   .     A
C891   C893    1.396   .     A
C892   Cl906   1.767   .     S
C892   C371    1.382   1_556 S
C893   H911    1.082   .     S
C894   Cl907   1.768   .     S
C895   H912    1.082   .     S
C895   C372    1.381   1_556 S
C896   Cl908   1.779   .     S
C896   C1014   1.384   1_455 S
C897   C900    1.413   .     A
C897   Cl909   1.781   .     S
C897   C957    1.384   .     S
C898   C900    1.414   .     A
C898   Cl910   1.781   .     S
C898   C954    1.384   .     S
C899   Cl902   1.778   .     S
C899   C1013   1.384   1_455 S
N917   Zn927   2.002   .     S
N918   Zn928   2.002   .     S
O919   Zn927   1.992   .     S
O920   Zn928   1.992   .     S
O921   Zn927   1.991   .     S
O922   Zn928   1.991   .     S
O923   Zn927   2.013   .     S
O924   Zn928   2.013   .     S
O925   Zn927   2.013   .     S
O926   Zn928   2.013   .     S
C929   O977    1.286   .     A
C929   C930    1.450   .     S
C929   O980    1.286   .     A
C930   C954    1.414   .     A
C930   C957    1.414   .     A
C931   H971    1.082   .     S
C931   N976    1.365   .     A
C932   H972    1.081   .     S
C932   N975    1.365   .     A
C932   C585    1.413   1_565 S
C933   H973    1.081   .     S
C933   N976    1.365   .     A
C934   H974    1.082   .     S
C934   N975    1.365   .     A
C934   C583    1.413   1_565 S
C935   O984    1.280   .     A
C935   O981    1.279   .     A
C935   C941    1.426   .     S
C936   C939    1.423   .     S
C936   O983    1.278   .     A
C936   O982    1.278   .     A
C937   C948    1.391   .     A
C937   Cl959   1.781   .     S
C937   C939    1.390   .     A
C938   Cl961   1.779   .     S
C938   C949    1.392   .     A
C938   C941    1.391   .     A
C939   C942    1.398   .     A
C940   O978    1.285   .     A
C940   C958    1.448   .     S
C940   O979    1.286   .     A
C941   C943    1.398   .     A
C942   Cl962   1.779   .     S
C942   C944    1.410   .     A
C943   Cl963   1.775   .     S
C943   C945    1.408   .     A
C944   C946    1.431   .     A
C944   C950    1.420   .     A
C945   C952    1.418   .     A
C945   C947    1.430   .     A
C946   C948    1.416   .     A
C946   C425    1.409   1_556 S
C947   C949    1.415   .     A
C948   C953    1.396   .     A
C949   C951    1.396   .     A
C950   Cl964   1.767   .     S
C950   C429    1.382   1_556 S
C951   H969    1.082   .     S
C952   Cl965   1.768   .     S
C953   H970    1.082   .     S
C953   C430    1.381   1_556 S
C954   Cl966   1.779   .     S
C955   C958    1.413   .     A
C955   Cl967   1.781   .     S
C955   C1015   1.384   .     S
C956   C958    1.414   .     A
C956   Cl968   1.781   .     S
C956   C1012   1.384   .     S
C957   Cl960   1.778   .     S
N975   Zn985   2.002   .     S
N976   Zn986   2.002   .     S
O977   Zn985   1.992   .     S
O978   Zn986   1.992   .     S
O979   Zn985   1.991   .     S
O980   Zn986   1.991   .     S
O981   Zn985   2.013   .     S
O982   Zn986   2.013   .     S
O983   Zn985   2.013   .     S
O984   Zn986   2.013   .     S
C987   O1035   1.286   .     A
C987   C988    1.450   .     S
C987   O1038   1.286   .     A
C988   C1012   1.414   .     A
C988   C1015   1.414   .     A
C989   H1029   1.082   .     S
C989   N1034   1.365   .     A
C990   H1030   1.081   .     S
C990   N1033   1.365   .     A
C990   C643    1.413   1_565 S
C991   H1031   1.081   .     S
C991   N1034   1.365   .     A
C992   H1032   1.082   .     S
C992   N1033   1.365   .     A
C992   C641    1.413   1_565 S
C993   O1042   1.280   .     A
C993   O1039   1.279   .     A
C993   C999    1.426   .     S
C994   C997    1.423   .     S
C994   O1041   1.278   .     A
C994   O1040   1.278   .     A
C995   C1006   1.391   .     A
C995   Cl1017  1.781   .     S
C995   C997    1.390   .     A
C996   Cl1019  1.779   .     S
C996   C1007   1.392   .     A
C996   C999    1.391   .     A
C997   C1000   1.398   .     A
C998   O1036   1.285   .     A
C998   C1016   1.448   .     S
C998   O1037   1.286   .     A
C999   C1001   1.398   .     A
C1000  Cl1020  1.779   .     S
C1000  C1002   1.410   .     A
C1001  Cl1021  1.775   .     S
C1001  C1003   1.408   .     A
C1002  C1004   1.431   .     A
C1002  C1008   1.420   .     A
C1003  C1010   1.418   .     A
C1003  C1005   1.430   .     A
C1004  C1006   1.416   .     A
C1004  C483    1.409   1_556 S
C1005  C1007   1.415   .     A
C1006  C1011   1.396   .     A
C1007  C1009   1.396   .     A
C1008  Cl1022  1.767   .     S
C1008  C487    1.382   1_556 S
C1009  H1027   1.082   .     S
C1010  Cl1023  1.768   .     S
C1011  H1028   1.082   .     S
C1011  C488    1.381   1_556 S
C1012  Cl1024  1.779   .     S
C1013  C1016   1.413   .     A
C1013  Cl1025  1.781   .     S
C1013  C899    1.384   1_655 S
C1014  C1016   1.414   .     A
C1014  Cl1026  1.781   .     S
C1014  C896    1.384   1_655 S
C1015  Cl1018  1.778   .     S
N1033  Zn1043  2.002   .     S
N1034  Zn1044  2.002   .     S
O1035  Zn1043  1.992   .     S
O1036  Zn1044  1.992   .     S
O1037  Zn1043  1.991   .     S
O1038  Zn1044  1.991   .     S
O1039  Zn1043  2.013   .     S
O1040  Zn1044  2.013   .     S
O1041  Zn1043  2.013   .     S
O1042  Zn1044  2.013   .     S
