data_str_m2_o1_o10_pcu_sym.136
_audit_creation_date              2020-01-03
_audit_creation_method            'Materials Studio'
_symmetry_space_group_name_H-M    'P1'
_symmetry_Int_Tables_number       1
_symmetry_cell_setting            triclinic
loop_
_symmetry_equiv_pos_as_xyz
  x,y,z
_cell_length_a                    26.1805
_cell_length_b                    32.4679
_cell_length_c                    28.5882
_cell_angle_alpha                 89.7823
_cell_angle_beta                  97.7769
_cell_angle_gamma                 90.5389
loop_
_atom_site_label
_atom_site_type_symbol
_atom_site_fract_x
_atom_site_fract_y
_atom_site_fract_z
_atom_site_U_iso_or_equiv
_atom_site_adp_type
_atom_site_occupancy
C1     C     0.16634   0.08737   0.16668   0.00000  Uiso   1.00
C2     C     0.16642   0.24596   0.16661   0.00000  Uiso   1.00
C3     C     0.06793   0.16678   0.15460   0.00000  Uiso   1.00
C4     C     0.26539   0.16711   0.17871   0.00000  Uiso   1.00
C5     C     0.01267   0.16672   0.14791   0.00000  Uiso   1.00
C6     C     0.32063   0.16813   0.18530   0.00000  Uiso   1.00
C7     C     0.15664   0.02139   0.12384   0.00000  Uiso   1.00
C8     C     0.17439   0.31194   0.20949   0.00000  Uiso   1.00
C9     C     0.15643   0.31212   0.12381   0.00000  Uiso   1.00
C10    C     0.17422   0.02122   0.20955   0.00000  Uiso   1.00
C11    C     0.16579   0.29058   0.16660   0.00000  Uiso   1.00
C12    C     0.16573   0.04275   0.16671   0.00000  Uiso   1.00
C13    C     0.13495   0.14071   0.02116   0.00000  Uiso   1.00
C14    C     0.19906   0.19206   0.31229   0.00000  Uiso   1.00
C15    C     0.13399   0.14083   0.30424   0.00000  Uiso   1.00
C16    C     0.19875   0.19287   0.02894   0.00000  Uiso   1.00
Cu17   Cu    0.16667   0.16667   0.21355   0.00000  Uiso   1.00
Cu18   Cu    0.16667   0.16666   0.11978   0.00000  Uiso   1.00
H19    H     0.32612   0.16519   0.11200   0.00000  Uiso   1.00
H20    H     0.00717   0.17013   0.22114   0.00000  Uiso   1.00
H21    H     0.14942   0.03753   0.09039   0.00000  Uiso   1.00
H22    H     0.18163   0.29582   0.24296   0.00000  Uiso   1.00
H23    H     0.14874   0.29612   0.09039   0.00000  Uiso   1.00
H24    H     0.18124   0.03721   0.24303   0.00000  Uiso   1.00
H25    H     0.11119   0.11958   0.03812   0.00000  Uiso   1.00
H26    H     0.22556   0.21127   0.29596   0.00000  Uiso   1.00
N27    N     0.16668   0.16668   0.28403   0.00000  Uiso   1.00
N28    N     0.16665   0.16666   0.04931   0.00000  Uiso   1.00
O29    O     0.16666   0.10655   0.20625   0.00000  Uiso   1.00
O30    O     0.16667   0.22678   0.12709   0.00000  Uiso   1.00
O31    O     0.16666   0.10654   0.12706   0.00000  Uiso   1.00
O32    O     0.16667   0.22679   0.20628   0.00000  Uiso   1.00
O33    O     0.09161   0.16667   0.19712   0.00000  Uiso   1.00
O34    O     0.24172   0.16666   0.13621   0.00000  Uiso   1.00
O35    O     0.09161   0.16666   0.11793   0.00000  Uiso   1.00
O36    O     0.24172   0.16667   0.21540   0.00000  Uiso   1.00
O37    O     0.10499   0.11262   0.27488   0.00000  Uiso   1.00
C38    C     0.05633   0.10287   0.28863   0.00000  Uiso   1.00
H39    H     0.02750   0.10317   0.25637   0.00000  Uiso   1.00
H40    H     0.04234   0.12557   0.31301   0.00000  Uiso   1.00
C41    C     0.05662   0.05931   0.30887   0.00000  Uiso   1.00
H42    H     0.01821   0.05178   0.31917   0.00000  Uiso   1.00
H43    H     0.06527   0.03687   0.28184   0.00000  Uiso   1.00
H44    H     0.08618   0.05632   0.00699   0.00000  Uiso   1.00
O45    O     0.23407   0.21631   0.05857   0.00000  Uiso   1.00
C46    C     0.23971   0.25708   0.04208   0.00000  Uiso   1.00
H47    H     0.23571   0.27832   0.07165   0.00000  Uiso   1.00
H48    H     0.20990   0.26657   0.01249   0.00000  Uiso   1.00
C49    C     0.29369   0.26340   0.02875   0.00000  Uiso   1.00
H50    H     0.30049   0.24221   0.33326   0.00000  Uiso   1.00
H51    H     0.29829   0.29563   0.01676   0.00000  Uiso   1.00
H52    H     0.32297   0.25742   0.05988   0.00000  Uiso   1.00
C53    C     0.49967   0.08737   0.16668   0.00000  Uiso   1.00
C54    C     0.49975   0.24596   0.16661   0.00000  Uiso   1.00
C55    C     0.40127   0.16678   0.15460   0.00000  Uiso   1.00
C56    C     0.59872   0.16711   0.17871   0.00000  Uiso   1.00
C57    C     0.34601   0.16672   0.14791   0.00000  Uiso   1.00
C58    C     0.65396   0.16813   0.18530   0.00000  Uiso   1.00
C59    C     0.48997   0.02139   0.12384   0.00000  Uiso   1.00
C60    C     0.50772   0.31194   0.20949   0.00000  Uiso   1.00
C61    C     0.48976   0.31212   0.12381   0.00000  Uiso   1.00
C62    C     0.50755   0.02122   0.20955   0.00000  Uiso   1.00
C63    C     0.49913   0.29058   0.16660   0.00000  Uiso   1.00
C64    C     0.49906   0.04275   0.16671   0.00000  Uiso   1.00
C65    C     0.46828   0.14071   0.02116   0.00000  Uiso   1.00
C66    C     0.53240   0.19206   0.31229   0.00000  Uiso   1.00
C67    C     0.46732   0.14083   0.30424   0.00000  Uiso   1.00
C68    C     0.53208   0.19287   0.02894   0.00000  Uiso   1.00
Cu69   Cu    0.50000   0.16667   0.21355   0.00000  Uiso   1.00
Cu70   Cu    0.50000   0.16666   0.11978   0.00000  Uiso   1.00
H71    H     0.65946   0.16519   0.11200   0.00000  Uiso   1.00
H72    H     0.34051   0.17013   0.22114   0.00000  Uiso   1.00
H73    H     0.48276   0.03753   0.09039   0.00000  Uiso   1.00
H74    H     0.51496   0.29582   0.24296   0.00000  Uiso   1.00
H75    H     0.48207   0.29612   0.09039   0.00000  Uiso   1.00
H76    H     0.51457   0.03721   0.24303   0.00000  Uiso   1.00
H77    H     0.44452   0.11958   0.03812   0.00000  Uiso   1.00
H78    H     0.55889   0.21127   0.29596   0.00000  Uiso   1.00
N79    N     0.50001   0.16668   0.28403   0.00000  Uiso   1.00
N80    N     0.49999   0.16666   0.04931   0.00000  Uiso   1.00
O81    O     0.50000   0.10655   0.20625   0.00000  Uiso   1.00
O82    O     0.50000   0.22678   0.12709   0.00000  Uiso   1.00
O83    O     0.50000   0.10654   0.12706   0.00000  Uiso   1.00
O84    O     0.50000   0.22679   0.20628   0.00000  Uiso   1.00
O85    O     0.42495   0.16667   0.19712   0.00000  Uiso   1.00
O86    O     0.57505   0.16666   0.13621   0.00000  Uiso   1.00
O87    O     0.42494   0.16666   0.11793   0.00000  Uiso   1.00
O88    O     0.57506   0.16667   0.21540   0.00000  Uiso   1.00
O89    O     0.43833   0.11262   0.27488   0.00000  Uiso   1.00
C90    C     0.38966   0.10287   0.28863   0.00000  Uiso   1.00
H91    H     0.36084   0.10317   0.25637   0.00000  Uiso   1.00
H92    H     0.37567   0.12557   0.31301   0.00000  Uiso   1.00
C93    C     0.38996   0.05931   0.30887   0.00000  Uiso   1.00
H94    H     0.35154   0.05178   0.31917   0.00000  Uiso   1.00
H95    H     0.39860   0.03687   0.28184   0.00000  Uiso   1.00
H96    H     0.41952   0.05632   0.00699   0.00000  Uiso   1.00
O97    O     0.56740   0.21631   0.05857   0.00000  Uiso   1.00
C98    C     0.57305   0.25708   0.04208   0.00000  Uiso   1.00
H99    H     0.56905   0.27832   0.07165   0.00000  Uiso   1.00
H100   H     0.54323   0.26657   0.01249   0.00000  Uiso   1.00
C101   C     0.62703   0.26340   0.02875   0.00000  Uiso   1.00
H102   H     0.63383   0.24221   0.33326   0.00000  Uiso   1.00
H103   H     0.63162   0.29563   0.01676   0.00000  Uiso   1.00
H104   H     0.65631   0.25742   0.05988   0.00000  Uiso   1.00
C105   C     0.83300   0.08737   0.16668   0.00000  Uiso   1.00
C106   C     0.83308   0.24596   0.16661   0.00000  Uiso   1.00
C107   C     0.73460   0.16678   0.15460   0.00000  Uiso   1.00
C108   C     0.93206   0.16711   0.17871   0.00000  Uiso   1.00
C109   C     0.67934   0.16672   0.14791   0.00000  Uiso   1.00
C110   C     0.98730   0.16813   0.18530   0.00000  Uiso   1.00
C111   C     0.82331   0.02139   0.12384   0.00000  Uiso   1.00
C112   C     0.84105   0.31194   0.20949   0.00000  Uiso   1.00
C113   C     0.82309   0.31212   0.12381   0.00000  Uiso   1.00
C114   C     0.84088   0.02122   0.20955   0.00000  Uiso   1.00
C115   C     0.83246   0.29058   0.16660   0.00000  Uiso   1.00
C116   C     0.83239   0.04275   0.16671   0.00000  Uiso   1.00
C117   C     0.80162   0.14071   0.02116   0.00000  Uiso   1.00
C118   C     0.86573   0.19206   0.31229   0.00000  Uiso   1.00
C119   C     0.80066   0.14083   0.30424   0.00000  Uiso   1.00
C120   C     0.86541   0.19287   0.02894   0.00000  Uiso   1.00
Cu121  Cu    0.83333   0.16667   0.21355   0.00000  Uiso   1.00
Cu122  Cu    0.83333   0.16666   0.11978   0.00000  Uiso   1.00
H123   H     0.99279   0.16519   0.11200   0.00000  Uiso   1.00
H124   H     0.67384   0.17013   0.22114   0.00000  Uiso   1.00
H125   H     0.81609   0.03753   0.09039   0.00000  Uiso   1.00
H126   H     0.84829   0.29582   0.24296   0.00000  Uiso   1.00
H127   H     0.81540   0.29612   0.09039   0.00000  Uiso   1.00
H128   H     0.84790   0.03721   0.24303   0.00000  Uiso   1.00
H129   H     0.77786   0.11958   0.03812   0.00000  Uiso   1.00
H130   H     0.89222   0.21127   0.29596   0.00000  Uiso   1.00
N131   N     0.83335   0.16668   0.28403   0.00000  Uiso   1.00
N132   N     0.83332   0.16666   0.04931   0.00000  Uiso   1.00
O133   O     0.83333   0.10655   0.20625   0.00000  Uiso   1.00
O134   O     0.83334   0.22678   0.12709   0.00000  Uiso   1.00
O135   O     0.83333   0.10654   0.12706   0.00000  Uiso   1.00
O136   O     0.83334   0.22679   0.20628   0.00000  Uiso   1.00
O137   O     0.75828   0.16667   0.19712   0.00000  Uiso   1.00
O138   O     0.90839   0.16666   0.13621   0.00000  Uiso   1.00
O139   O     0.75828   0.16666   0.11793   0.00000  Uiso   1.00
O140   O     0.90839   0.16667   0.21540   0.00000  Uiso   1.00
O141   O     0.77166   0.11262   0.27488   0.00000  Uiso   1.00
C142   C     0.72299   0.10287   0.28863   0.00000  Uiso   1.00
H143   H     0.69417   0.10317   0.25637   0.00000  Uiso   1.00
H144   H     0.70901   0.12557   0.31301   0.00000  Uiso   1.00
C145   C     0.72329   0.05931   0.30887   0.00000  Uiso   1.00
H146   H     0.68487   0.05178   0.31917   0.00000  Uiso   1.00
H147   H     0.73193   0.03687   0.28184   0.00000  Uiso   1.00
H148   H     0.75285   0.05632   0.00699   0.00000  Uiso   1.00
O149   O     0.90074   0.21631   0.05857   0.00000  Uiso   1.00
C150   C     0.90638   0.25708   0.04208   0.00000  Uiso   1.00
H151   H     0.90238   0.27832   0.07165   0.00000  Uiso   1.00
H152   H     0.87656   0.26657   0.01249   0.00000  Uiso   1.00
C153   C     0.96036   0.26340   0.02875   0.00000  Uiso   1.00
H154   H     0.96716   0.24221   0.33326   0.00000  Uiso   1.00
H155   H     0.96496   0.29563   0.01676   0.00000  Uiso   1.00
H156   H     0.98964   0.25742   0.05988   0.00000  Uiso   1.00
C157   C     0.16634   0.42071   0.16668   0.00000  Uiso   1.00
C158   C     0.16642   0.57930   0.16661   0.00000  Uiso   1.00
C159   C     0.06793   0.50011   0.15460   0.00000  Uiso   1.00
C160   C     0.26539   0.50044   0.17871   0.00000  Uiso   1.00
C161   C     0.01267   0.50005   0.14791   0.00000  Uiso   1.00
C162   C     0.32063   0.50146   0.18530   0.00000  Uiso   1.00
C163   C     0.15664   0.35473   0.12384   0.00000  Uiso   1.00
C164   C     0.17439   0.64528   0.20949   0.00000  Uiso   1.00
C165   C     0.15643   0.64545   0.12381   0.00000  Uiso   1.00
C166   C     0.17422   0.35455   0.20955   0.00000  Uiso   1.00
C167   C     0.16579   0.62391   0.16660   0.00000  Uiso   1.00
C168   C     0.16573   0.37609   0.16671   0.00000  Uiso   1.00
C169   C     0.13495   0.47404   0.02116   0.00000  Uiso   1.00
C170   C     0.19906   0.52539   0.31229   0.00000  Uiso   1.00
C171   C     0.13399   0.47416   0.30424   0.00000  Uiso   1.00
C172   C     0.19875   0.52620   0.02894   0.00000  Uiso   1.00
Cu173  Cu    0.16667   0.50001   0.21355   0.00000  Uiso   1.00
Cu174  Cu    0.16667   0.49999   0.11978   0.00000  Uiso   1.00
H175   H     0.32612   0.49853   0.11200   0.00000  Uiso   1.00
H176   H     0.00717   0.50347   0.22114   0.00000  Uiso   1.00
H177   H     0.14942   0.37087   0.09039   0.00000  Uiso   1.00
H178   H     0.18163   0.62916   0.24296   0.00000  Uiso   1.00
H179   H     0.14874   0.62945   0.09039   0.00000  Uiso   1.00
H180   H     0.18124   0.37054   0.24303   0.00000  Uiso   1.00
H181   H     0.11119   0.45291   0.03812   0.00000  Uiso   1.00
H182   H     0.22556   0.54460   0.29596   0.00000  Uiso   1.00
N183   N     0.16668   0.50001   0.28403   0.00000  Uiso   1.00
N184   N     0.16665   0.49999   0.04931   0.00000  Uiso   1.00
O185   O     0.16666   0.43989   0.20625   0.00000  Uiso   1.00
O186   O     0.16667   0.56011   0.12709   0.00000  Uiso   1.00
O187   O     0.16666   0.43988   0.12706   0.00000  Uiso   1.00
O188   O     0.16667   0.56012   0.20628   0.00000  Uiso   1.00
O189   O     0.09161   0.50000   0.19712   0.00000  Uiso   1.00
O190   O     0.24172   0.50000   0.13621   0.00000  Uiso   1.00
O191   O     0.09161   0.49999   0.11793   0.00000  Uiso   1.00
O192   O     0.24172   0.50001   0.21540   0.00000  Uiso   1.00
O193   O     0.10499   0.44595   0.27488   0.00000  Uiso   1.00
C194   C     0.05633   0.43620   0.28863   0.00000  Uiso   1.00
H195   H     0.02750   0.43650   0.25637   0.00000  Uiso   1.00
H196   H     0.04234   0.45890   0.31301   0.00000  Uiso   1.00
C197   C     0.05662   0.39265   0.30887   0.00000  Uiso   1.00
H198   H     0.01821   0.38512   0.31917   0.00000  Uiso   1.00
H199   H     0.06527   0.37020   0.28184   0.00000  Uiso   1.00
H200   H     0.08618   0.38965   0.00699   0.00000  Uiso   1.00
O201   O     0.23407   0.54964   0.05857   0.00000  Uiso   1.00
C202   C     0.23971   0.59041   0.04208   0.00000  Uiso   1.00
H203   H     0.23571   0.61166   0.07165   0.00000  Uiso   1.00
H204   H     0.20990   0.59990   0.01249   0.00000  Uiso   1.00
C205   C     0.29369   0.59673   0.02875   0.00000  Uiso   1.00
H206   H     0.30049   0.57555   0.33326   0.00000  Uiso   1.00
H207   H     0.29829   0.62897   0.01676   0.00000  Uiso   1.00
H208   H     0.32297   0.59075   0.05988   0.00000  Uiso   1.00
C209   C     0.49967   0.42071   0.16668   0.00000  Uiso   1.00
C210   C     0.49975   0.57930   0.16661   0.00000  Uiso   1.00
C211   C     0.40127   0.50011   0.15460   0.00000  Uiso   1.00
C212   C     0.59872   0.50044   0.17871   0.00000  Uiso   1.00
C213   C     0.34601   0.50005   0.14791   0.00000  Uiso   1.00
C214   C     0.65396   0.50146   0.18530   0.00000  Uiso   1.00
C215   C     0.48997   0.35473   0.12384   0.00000  Uiso   1.00
C216   C     0.50772   0.64528   0.20949   0.00000  Uiso   1.00
C217   C     0.48976   0.64545   0.12381   0.00000  Uiso   1.00
C218   C     0.50755   0.35455   0.20955   0.00000  Uiso   1.00
C219   C     0.49913   0.62391   0.16660   0.00000  Uiso   1.00
C220   C     0.49906   0.37609   0.16671   0.00000  Uiso   1.00
C221   C     0.46828   0.47404   0.02116   0.00000  Uiso   1.00
C222   C     0.53240   0.52539   0.31229   0.00000  Uiso   1.00
C223   C     0.46732   0.47416   0.30424   0.00000  Uiso   1.00
C224   C     0.53208   0.52620   0.02894   0.00000  Uiso   1.00
Cu225  Cu    0.50000   0.50001   0.21355   0.00000  Uiso   1.00
Cu226  Cu    0.50000   0.49999   0.11978   0.00000  Uiso   1.00
H227   H     0.65946   0.49853   0.11200   0.00000  Uiso   1.00
H228   H     0.34051   0.50347   0.22114   0.00000  Uiso   1.00
H229   H     0.48276   0.37087   0.09039   0.00000  Uiso   1.00
H230   H     0.51496   0.62916   0.24296   0.00000  Uiso   1.00
H231   H     0.48207   0.62945   0.09039   0.00000  Uiso   1.00
H232   H     0.51457   0.37054   0.24303   0.00000  Uiso   1.00
H233   H     0.44452   0.45291   0.03812   0.00000  Uiso   1.00
H234   H     0.55889   0.54460   0.29596   0.00000  Uiso   1.00
N235   N     0.50001   0.50001   0.28403   0.00000  Uiso   1.00
N236   N     0.49999   0.49999   0.04931   0.00000  Uiso   1.00
O237   O     0.50000   0.43989   0.20625   0.00000  Uiso   1.00
O238   O     0.50000   0.56011   0.12709   0.00000  Uiso   1.00
O239   O     0.50000   0.43988   0.12706   0.00000  Uiso   1.00
O240   O     0.50000   0.56012   0.20628   0.00000  Uiso   1.00
O241   O     0.42495   0.50000   0.19712   0.00000  Uiso   1.00
O242   O     0.57505   0.50000   0.13621   0.00000  Uiso   1.00
O243   O     0.42494   0.49999   0.11793   0.00000  Uiso   1.00
O244   O     0.57506   0.50001   0.21540   0.00000  Uiso   1.00
O245   O     0.43833   0.44595   0.27488   0.00000  Uiso   1.00
C246   C     0.38966   0.43620   0.28863   0.00000  Uiso   1.00
H247   H     0.36084   0.43650   0.25637   0.00000  Uiso   1.00
H248   H     0.37567   0.45890   0.31301   0.00000  Uiso   1.00
C249   C     0.38996   0.39265   0.30887   0.00000  Uiso   1.00
H250   H     0.35154   0.38512   0.31917   0.00000  Uiso   1.00
H251   H     0.39860   0.37020   0.28184   0.00000  Uiso   1.00
H252   H     0.41952   0.38965   0.00699   0.00000  Uiso   1.00
O253   O     0.56740   0.54964   0.05857   0.00000  Uiso   1.00
C254   C     0.57305   0.59041   0.04208   0.00000  Uiso   1.00
H255   H     0.56905   0.61166   0.07165   0.00000  Uiso   1.00
H256   H     0.54323   0.59990   0.01249   0.00000  Uiso   1.00
C257   C     0.62703   0.59673   0.02875   0.00000  Uiso   1.00
H258   H     0.63383   0.57555   0.33326   0.00000  Uiso   1.00
H259   H     0.63162   0.62897   0.01676   0.00000  Uiso   1.00
H260   H     0.65631   0.59075   0.05988   0.00000  Uiso   1.00
C261   C     0.83300   0.42071   0.16668   0.00000  Uiso   1.00
C262   C     0.83308   0.57930   0.16661   0.00000  Uiso   1.00
C263   C     0.73460   0.50011   0.15460   0.00000  Uiso   1.00
C264   C     0.93206   0.50044   0.17871   0.00000  Uiso   1.00
C265   C     0.67934   0.50005   0.14791   0.00000  Uiso   1.00
C266   C     0.98730   0.50146   0.18530   0.00000  Uiso   1.00
C267   C     0.82331   0.35473   0.12384   0.00000  Uiso   1.00
C268   C     0.84105   0.64528   0.20949   0.00000  Uiso   1.00
C269   C     0.82309   0.64545   0.12381   0.00000  Uiso   1.00
C270   C     0.84088   0.35455   0.20955   0.00000  Uiso   1.00
C271   C     0.83246   0.62391   0.16660   0.00000  Uiso   1.00
C272   C     0.83239   0.37609   0.16671   0.00000  Uiso   1.00
C273   C     0.80162   0.47404   0.02116   0.00000  Uiso   1.00
C274   C     0.86573   0.52539   0.31229   0.00000  Uiso   1.00
C275   C     0.80066   0.47416   0.30424   0.00000  Uiso   1.00
C276   C     0.86541   0.52620   0.02894   0.00000  Uiso   1.00
Cu277  Cu    0.83333   0.50001   0.21355   0.00000  Uiso   1.00
Cu278  Cu    0.83333   0.49999   0.11978   0.00000  Uiso   1.00
H279   H     0.99279   0.49853   0.11200   0.00000  Uiso   1.00
H280   H     0.67384   0.50347   0.22114   0.00000  Uiso   1.00
H281   H     0.81609   0.37087   0.09039   0.00000  Uiso   1.00
H282   H     0.84829   0.62916   0.24296   0.00000  Uiso   1.00
H283   H     0.81540   0.62945   0.09039   0.00000  Uiso   1.00
H284   H     0.84790   0.37054   0.24303   0.00000  Uiso   1.00
H285   H     0.77786   0.45291   0.03812   0.00000  Uiso   1.00
H286   H     0.89222   0.54460   0.29596   0.00000  Uiso   1.00
N287   N     0.83335   0.50001   0.28403   0.00000  Uiso   1.00
N288   N     0.83332   0.49999   0.04931   0.00000  Uiso   1.00
O289   O     0.83333   0.43989   0.20625   0.00000  Uiso   1.00
O290   O     0.83334   0.56011   0.12709   0.00000  Uiso   1.00
O291   O     0.83333   0.43988   0.12706   0.00000  Uiso   1.00
O292   O     0.83334   0.56012   0.20628   0.00000  Uiso   1.00
O293   O     0.75828   0.50000   0.19712   0.00000  Uiso   1.00
O294   O     0.90839   0.50000   0.13621   0.00000  Uiso   1.00
O295   O     0.75828   0.49999   0.11793   0.00000  Uiso   1.00
O296   O     0.90839   0.50001   0.21540   0.00000  Uiso   1.00
O297   O     0.77166   0.44595   0.27488   0.00000  Uiso   1.00
C298   C     0.72299   0.43620   0.28863   0.00000  Uiso   1.00
H299   H     0.69417   0.43650   0.25637   0.00000  Uiso   1.00
H300   H     0.70901   0.45890   0.31301   0.00000  Uiso   1.00
C301   C     0.72329   0.39265   0.30887   0.00000  Uiso   1.00
H302   H     0.68487   0.38512   0.31917   0.00000  Uiso   1.00
H303   H     0.73193   0.37020   0.28184   0.00000  Uiso   1.00
H304   H     0.75285   0.38965   0.00699   0.00000  Uiso   1.00
O305   O     0.90074   0.54964   0.05857   0.00000  Uiso   1.00
C306   C     0.90638   0.59041   0.04208   0.00000  Uiso   1.00
H307   H     0.90238   0.61166   0.07165   0.00000  Uiso   1.00
H308   H     0.87656   0.59990   0.01249   0.00000  Uiso   1.00
C309   C     0.96036   0.59673   0.02875   0.00000  Uiso   1.00
H310   H     0.96716   0.57555   0.33326   0.00000  Uiso   1.00
H311   H     0.96496   0.62897   0.01676   0.00000  Uiso   1.00
H312   H     0.98964   0.59075   0.05988   0.00000  Uiso   1.00
C313   C     0.16634   0.75404   0.16668   0.00000  Uiso   1.00
C314   C     0.16642   0.91263   0.16661   0.00000  Uiso   1.00
C315   C     0.06793   0.83345   0.15460   0.00000  Uiso   1.00
C316   C     0.26539   0.83377   0.17871   0.00000  Uiso   1.00
C317   C     0.01267   0.83339   0.14791   0.00000  Uiso   1.00
C318   C     0.32063   0.83479   0.18530   0.00000  Uiso   1.00
C319   C     0.15664   0.68806   0.12384   0.00000  Uiso   1.00
C320   C     0.17439   0.97861   0.20949   0.00000  Uiso   1.00
C321   C     0.15643   0.97878   0.12381   0.00000  Uiso   1.00
C322   C     0.17422   0.68788   0.20955   0.00000  Uiso   1.00
C323   C     0.16579   0.95725   0.16660   0.00000  Uiso   1.00
C324   C     0.16573   0.70942   0.16671   0.00000  Uiso   1.00
C325   C     0.13495   0.80738   0.02116   0.00000  Uiso   1.00
C326   C     0.19906   0.85872   0.31229   0.00000  Uiso   1.00
C327   C     0.13399   0.80749   0.30424   0.00000  Uiso   1.00
C328   C     0.19875   0.85953   0.02894   0.00000  Uiso   1.00
Cu329  Cu    0.16667   0.83334   0.21355   0.00000  Uiso   1.00
Cu330  Cu    0.16667   0.83333   0.11978   0.00000  Uiso   1.00
H331   H     0.32612   0.83186   0.11200   0.00000  Uiso   1.00
H332   H     0.00717   0.83680   0.22114   0.00000  Uiso   1.00
H333   H     0.14942   0.70420   0.09039   0.00000  Uiso   1.00
H334   H     0.18163   0.96249   0.24296   0.00000  Uiso   1.00
H335   H     0.14874   0.96278   0.09039   0.00000  Uiso   1.00
H336   H     0.18124   0.70388   0.24303   0.00000  Uiso   1.00
H337   H     0.11119   0.78625   0.03812   0.00000  Uiso   1.00
H338   H     0.22556   0.87793   0.29596   0.00000  Uiso   1.00
N339   N     0.16668   0.83334   0.28403   0.00000  Uiso   1.00
N340   N     0.16665   0.83332   0.04931   0.00000  Uiso   1.00
O341   O     0.16666   0.77322   0.20625   0.00000  Uiso   1.00
O342   O     0.16667   0.89345   0.12709   0.00000  Uiso   1.00
O343   O     0.16666   0.77321   0.12706   0.00000  Uiso   1.00
O344   O     0.16667   0.89346   0.20628   0.00000  Uiso   1.00
O345   O     0.09161   0.83334   0.19712   0.00000  Uiso   1.00
O346   O     0.24172   0.83333   0.13621   0.00000  Uiso   1.00
O347   O     0.09161   0.83333   0.11793   0.00000  Uiso   1.00
O348   O     0.24172   0.83334   0.21540   0.00000  Uiso   1.00
O349   O     0.10499   0.77928   0.27488   0.00000  Uiso   1.00
C350   C     0.05633   0.76954   0.28863   0.00000  Uiso   1.00
H351   H     0.02750   0.76984   0.25637   0.00000  Uiso   1.00
H352   H     0.04234   0.79224   0.31301   0.00000  Uiso   1.00
C353   C     0.05662   0.72598   0.30887   0.00000  Uiso   1.00
H354   H     0.01821   0.71845   0.31917   0.00000  Uiso   1.00
H355   H     0.06527   0.70353   0.28184   0.00000  Uiso   1.00
H356   H     0.08618   0.72298   0.00699   0.00000  Uiso   1.00
O357   O     0.23407   0.88298   0.05857   0.00000  Uiso   1.00
C358   C     0.23971   0.92375   0.04208   0.00000  Uiso   1.00
H359   H     0.23571   0.94499   0.07165   0.00000  Uiso   1.00
H360   H     0.20990   0.93324   0.01249   0.00000  Uiso   1.00
C361   C     0.29369   0.93007   0.02875   0.00000  Uiso   1.00
H362   H     0.30049   0.90888   0.33326   0.00000  Uiso   1.00
H363   H     0.29829   0.96230   0.01676   0.00000  Uiso   1.00
H364   H     0.32297   0.92409   0.05988   0.00000  Uiso   1.00
C365   C     0.49967   0.75404   0.16668   0.00000  Uiso   1.00
C366   C     0.49975   0.91263   0.16661   0.00000  Uiso   1.00
C367   C     0.40127   0.83345   0.15460   0.00000  Uiso   1.00
C368   C     0.59872   0.83377   0.17871   0.00000  Uiso   1.00
C369   C     0.34601   0.83339   0.14791   0.00000  Uiso   1.00
C370   C     0.65396   0.83479   0.18530   0.00000  Uiso   1.00
C371   C     0.48997   0.68806   0.12384   0.00000  Uiso   1.00
C372   C     0.50772   0.97861   0.20949   0.00000  Uiso   1.00
C373   C     0.48976   0.97878   0.12381   0.00000  Uiso   1.00
C374   C     0.50755   0.68788   0.20955   0.00000  Uiso   1.00
C375   C     0.49913   0.95725   0.16660   0.00000  Uiso   1.00
C376   C     0.49906   0.70942   0.16671   0.00000  Uiso   1.00
C377   C     0.46828   0.80738   0.02116   0.00000  Uiso   1.00
C378   C     0.53240   0.85872   0.31229   0.00000  Uiso   1.00
C379   C     0.46732   0.80749   0.30424   0.00000  Uiso   1.00
C380   C     0.53208   0.85953   0.02894   0.00000  Uiso   1.00
Cu381  Cu    0.50000   0.83334   0.21355   0.00000  Uiso   1.00
Cu382  Cu    0.50000   0.83333   0.11978   0.00000  Uiso   1.00
H383   H     0.65946   0.83186   0.11200   0.00000  Uiso   1.00
H384   H     0.34051   0.83680   0.22114   0.00000  Uiso   1.00
H385   H     0.48276   0.70420   0.09039   0.00000  Uiso   1.00
H386   H     0.51496   0.96249   0.24296   0.00000  Uiso   1.00
H387   H     0.48207   0.96278   0.09039   0.00000  Uiso   1.00
H388   H     0.51457   0.70388   0.24303   0.00000  Uiso   1.00
H389   H     0.44452   0.78625   0.03812   0.00000  Uiso   1.00
H390   H     0.55889   0.87793   0.29596   0.00000  Uiso   1.00
N391   N     0.50001   0.83334   0.28403   0.00000  Uiso   1.00
N392   N     0.49999   0.83332   0.04931   0.00000  Uiso   1.00
O393   O     0.50000   0.77322   0.20625   0.00000  Uiso   1.00
O394   O     0.50000   0.89345   0.12709   0.00000  Uiso   1.00
O395   O     0.50000   0.77321   0.12706   0.00000  Uiso   1.00
O396   O     0.50000   0.89346   0.20628   0.00000  Uiso   1.00
O397   O     0.42495   0.83334   0.19712   0.00000  Uiso   1.00
O398   O     0.57505   0.83333   0.13621   0.00000  Uiso   1.00
O399   O     0.42494   0.83333   0.11793   0.00000  Uiso   1.00
O400   O     0.57506   0.83334   0.21540   0.00000  Uiso   1.00
O401   O     0.43833   0.77928   0.27488   0.00000  Uiso   1.00
C402   C     0.38966   0.76954   0.28863   0.00000  Uiso   1.00
H403   H     0.36084   0.76984   0.25637   0.00000  Uiso   1.00
H404   H     0.37567   0.79224   0.31301   0.00000  Uiso   1.00
C405   C     0.38996   0.72598   0.30887   0.00000  Uiso   1.00
H406   H     0.35154   0.71845   0.31917   0.00000  Uiso   1.00
H407   H     0.39860   0.70353   0.28184   0.00000  Uiso   1.00
H408   H     0.41952   0.72298   0.00699   0.00000  Uiso   1.00
O409   O     0.56740   0.88298   0.05857   0.00000  Uiso   1.00
C410   C     0.57305   0.92375   0.04208   0.00000  Uiso   1.00
H411   H     0.56905   0.94499   0.07165   0.00000  Uiso   1.00
H412   H     0.54323   0.93324   0.01249   0.00000  Uiso   1.00
C413   C     0.62703   0.93007   0.02875   0.00000  Uiso   1.00
H414   H     0.63383   0.90888   0.33326   0.00000  Uiso   1.00
H415   H     0.63162   0.96230   0.01676   0.00000  Uiso   1.00
H416   H     0.65631   0.92409   0.05988   0.00000  Uiso   1.00
C417   C     0.83300   0.75404   0.16668   0.00000  Uiso   1.00
C418   C     0.83308   0.91263   0.16661   0.00000  Uiso   1.00
C419   C     0.73460   0.83345   0.15460   0.00000  Uiso   1.00
C420   C     0.93206   0.83377   0.17871   0.00000  Uiso   1.00
C421   C     0.67934   0.83339   0.14791   0.00000  Uiso   1.00
C422   C     0.98730   0.83479   0.18530   0.00000  Uiso   1.00
C423   C     0.82331   0.68806   0.12384   0.00000  Uiso   1.00
C424   C     0.84105   0.97861   0.20949   0.00000  Uiso   1.00
C425   C     0.82309   0.97878   0.12381   0.00000  Uiso   1.00
C426   C     0.84088   0.68788   0.20955   0.00000  Uiso   1.00
C427   C     0.83246   0.95725   0.16660   0.00000  Uiso   1.00
C428   C     0.83239   0.70942   0.16671   0.00000  Uiso   1.00
C429   C     0.80162   0.80738   0.02116   0.00000  Uiso   1.00
C430   C     0.86573   0.85872   0.31229   0.00000  Uiso   1.00
C431   C     0.80066   0.80749   0.30424   0.00000  Uiso   1.00
C432   C     0.86541   0.85953   0.02894   0.00000  Uiso   1.00
Cu433  Cu    0.83333   0.83334   0.21355   0.00000  Uiso   1.00
Cu434  Cu    0.83333   0.83333   0.11978   0.00000  Uiso   1.00
H435   H     0.99279   0.83186   0.11200   0.00000  Uiso   1.00
H436   H     0.67384   0.83680   0.22114   0.00000  Uiso   1.00
H437   H     0.81609   0.70420   0.09039   0.00000  Uiso   1.00
H438   H     0.84829   0.96249   0.24296   0.00000  Uiso   1.00
H439   H     0.81540   0.96278   0.09039   0.00000  Uiso   1.00
H440   H     0.84790   0.70388   0.24303   0.00000  Uiso   1.00
H441   H     0.77786   0.78625   0.03812   0.00000  Uiso   1.00
H442   H     0.89222   0.87793   0.29596   0.00000  Uiso   1.00
N443   N     0.83335   0.83334   0.28403   0.00000  Uiso   1.00
N444   N     0.83332   0.83332   0.04931   0.00000  Uiso   1.00
O445   O     0.83333   0.77322   0.20625   0.00000  Uiso   1.00
O446   O     0.83334   0.89345   0.12709   0.00000  Uiso   1.00
O447   O     0.83333   0.77321   0.12706   0.00000  Uiso   1.00
O448   O     0.83334   0.89346   0.20628   0.00000  Uiso   1.00
O449   O     0.75828   0.83334   0.19712   0.00000  Uiso   1.00
O450   O     0.90839   0.83333   0.13621   0.00000  Uiso   1.00
O451   O     0.75828   0.83333   0.11793   0.00000  Uiso   1.00
O452   O     0.90839   0.83334   0.21540   0.00000  Uiso   1.00
O453   O     0.77166   0.77928   0.27488   0.00000  Uiso   1.00
C454   C     0.72299   0.76954   0.28863   0.00000  Uiso   1.00
H455   H     0.69417   0.76984   0.25637   0.00000  Uiso   1.00
H456   H     0.70901   0.79224   0.31301   0.00000  Uiso   1.00
C457   C     0.72329   0.72598   0.30887   0.00000  Uiso   1.00
H458   H     0.68487   0.71845   0.31917   0.00000  Uiso   1.00
H459   H     0.73193   0.70353   0.28184   0.00000  Uiso   1.00
H460   H     0.75285   0.72298   0.00699   0.00000  Uiso   1.00
O461   O     0.90074   0.88298   0.05857   0.00000  Uiso   1.00
C462   C     0.90638   0.92375   0.04208   0.00000  Uiso   1.00
H463   H     0.90238   0.94499   0.07165   0.00000  Uiso   1.00
H464   H     0.87656   0.93324   0.01249   0.00000  Uiso   1.00
C465   C     0.96036   0.93007   0.02875   0.00000  Uiso   1.00
H466   H     0.96716   0.90888   0.33326   0.00000  Uiso   1.00
H467   H     0.96496   0.96230   0.01676   0.00000  Uiso   1.00
H468   H     0.98964   0.92409   0.05988   0.00000  Uiso   1.00
C469   C     0.16634   0.08737   0.50001   0.00000  Uiso   1.00
C470   C     0.16642   0.24596   0.49994   0.00000  Uiso   1.00
C471   C     0.06793   0.16678   0.48794   0.00000  Uiso   1.00
C472   C     0.26539   0.16711   0.51204   0.00000  Uiso   1.00
C473   C     0.01267   0.16672   0.48124   0.00000  Uiso   1.00
C474   C     0.32063   0.16813   0.51863   0.00000  Uiso   1.00
C475   C     0.15664   0.02139   0.45717   0.00000  Uiso   1.00
C476   C     0.17439   0.31194   0.54283   0.00000  Uiso   1.00
C477   C     0.15643   0.31212   0.45715   0.00000  Uiso   1.00
C478   C     0.17422   0.02122   0.54289   0.00000  Uiso   1.00
C479   C     0.16579   0.29058   0.49993   0.00000  Uiso   1.00
C480   C     0.16573   0.04275   0.50004   0.00000  Uiso   1.00
C481   C     0.13495   0.14071   0.35449   0.00000  Uiso   1.00
C482   C     0.19906   0.19206   0.64563   0.00000  Uiso   1.00
C483   C     0.13399   0.14083   0.63757   0.00000  Uiso   1.00
C484   C     0.19875   0.19287   0.36227   0.00000  Uiso   1.00
Cu485  Cu    0.16667   0.16667   0.54689   0.00000  Uiso   1.00
Cu486  Cu    0.16667   0.16666   0.45311   0.00000  Uiso   1.00
H487   H     0.32612   0.16519   0.44533   0.00000  Uiso   1.00
H488   H     0.00717   0.17013   0.55447   0.00000  Uiso   1.00
H489   H     0.14942   0.03753   0.42373   0.00000  Uiso   1.00
H490   H     0.18163   0.29582   0.57629   0.00000  Uiso   1.00
H491   H     0.14874   0.29612   0.42372   0.00000  Uiso   1.00
H492   H     0.18124   0.03721   0.57637   0.00000  Uiso   1.00
H493   H     0.11119   0.11958   0.37145   0.00000  Uiso   1.00
H494   H     0.22556   0.21127   0.62930   0.00000  Uiso   1.00
N495   N     0.16668   0.16668   0.61736   0.00000  Uiso   1.00
N496   N     0.16665   0.16666   0.38264   0.00000  Uiso   1.00
O497   O     0.16666   0.10655   0.53958   0.00000  Uiso   1.00
O498   O     0.16667   0.22678   0.46042   0.00000  Uiso   1.00
O499   O     0.16666   0.10654   0.46039   0.00000  Uiso   1.00
O500   O     0.16667   0.22679   0.53961   0.00000  Uiso   1.00
O501   O     0.09161   0.16667   0.53046   0.00000  Uiso   1.00
O502   O     0.24172   0.16666   0.46954   0.00000  Uiso   1.00
O503   O     0.09161   0.16666   0.45127   0.00000  Uiso   1.00
O504   O     0.24172   0.16667   0.54873   0.00000  Uiso   1.00
O505   O     0.10499   0.11262   0.60821   0.00000  Uiso   1.00
C506   C     0.05633   0.10287   0.62196   0.00000  Uiso   1.00
H507   H     0.02750   0.10317   0.58971   0.00000  Uiso   1.00
H508   H     0.04234   0.12557   0.64634   0.00000  Uiso   1.00
C509   C     0.05662   0.05931   0.64220   0.00000  Uiso   1.00
H510   H     0.01821   0.05178   0.65250   0.00000  Uiso   1.00
H511   H     0.06527   0.03687   0.61517   0.00000  Uiso   1.00
H512   H     0.08618   0.05632   0.34032   0.00000  Uiso   1.00
O513   O     0.23407   0.21631   0.39190   0.00000  Uiso   1.00
C514   C     0.23971   0.25708   0.37541   0.00000  Uiso   1.00
H515   H     0.23571   0.27832   0.40498   0.00000  Uiso   1.00
H516   H     0.20990   0.26657   0.34583   0.00000  Uiso   1.00
C517   C     0.29369   0.26340   0.36208   0.00000  Uiso   1.00
H518   H     0.30049   0.24221   0.66660   0.00000  Uiso   1.00
H519   H     0.29829   0.29563   0.35009   0.00000  Uiso   1.00
H520   H     0.32297   0.25742   0.39321   0.00000  Uiso   1.00
C521   C     0.49967   0.08737   0.50001   0.00000  Uiso   1.00
C522   C     0.49975   0.24596   0.49994   0.00000  Uiso   1.00
C523   C     0.40127   0.16678   0.48794   0.00000  Uiso   1.00
C524   C     0.59872   0.16711   0.51204   0.00000  Uiso   1.00
C525   C     0.34601   0.16672   0.48124   0.00000  Uiso   1.00
C526   C     0.65396   0.16813   0.51863   0.00000  Uiso   1.00
C527   C     0.48997   0.02139   0.45717   0.00000  Uiso   1.00
C528   C     0.50772   0.31194   0.54283   0.00000  Uiso   1.00
C529   C     0.48976   0.31212   0.45715   0.00000  Uiso   1.00
C530   C     0.50755   0.02122   0.54289   0.00000  Uiso   1.00
C531   C     0.49913   0.29058   0.49993   0.00000  Uiso   1.00
C532   C     0.49906   0.04275   0.50004   0.00000  Uiso   1.00
C533   C     0.46828   0.14071   0.35449   0.00000  Uiso   1.00
C534   C     0.53240   0.19206   0.64563   0.00000  Uiso   1.00
C535   C     0.46732   0.14083   0.63757   0.00000  Uiso   1.00
C536   C     0.53208   0.19287   0.36227   0.00000  Uiso   1.00
Cu537  Cu    0.50000   0.16667   0.54689   0.00000  Uiso   1.00
Cu538  Cu    0.50000   0.16666   0.45311   0.00000  Uiso   1.00
H539   H     0.65946   0.16519   0.44533   0.00000  Uiso   1.00
H540   H     0.34051   0.17013   0.55447   0.00000  Uiso   1.00
H541   H     0.48276   0.03753   0.42373   0.00000  Uiso   1.00
H542   H     0.51496   0.29582   0.57629   0.00000  Uiso   1.00
H543   H     0.48207   0.29612   0.42372   0.00000  Uiso   1.00
H544   H     0.51457   0.03721   0.57637   0.00000  Uiso   1.00
H545   H     0.44452   0.11958   0.37145   0.00000  Uiso   1.00
H546   H     0.55889   0.21127   0.62930   0.00000  Uiso   1.00
N547   N     0.50001   0.16668   0.61736   0.00000  Uiso   1.00
N548   N     0.49999   0.16666   0.38264   0.00000  Uiso   1.00
O549   O     0.50000   0.10655   0.53958   0.00000  Uiso   1.00
O550   O     0.50000   0.22678   0.46042   0.00000  Uiso   1.00
O551   O     0.50000   0.10654   0.46039   0.00000  Uiso   1.00
O552   O     0.50000   0.22679   0.53961   0.00000  Uiso   1.00
O553   O     0.42495   0.16667   0.53046   0.00000  Uiso   1.00
O554   O     0.57505   0.16666   0.46954   0.00000  Uiso   1.00
O555   O     0.42494   0.16666   0.45127   0.00000  Uiso   1.00
O556   O     0.57506   0.16667   0.54873   0.00000  Uiso   1.00
O557   O     0.43833   0.11262   0.60821   0.00000  Uiso   1.00
C558   C     0.38966   0.10287   0.62196   0.00000  Uiso   1.00
H559   H     0.36084   0.10317   0.58971   0.00000  Uiso   1.00
H560   H     0.37567   0.12557   0.64634   0.00000  Uiso   1.00
C561   C     0.38996   0.05931   0.64220   0.00000  Uiso   1.00
H562   H     0.35154   0.05178   0.65250   0.00000  Uiso   1.00
H563   H     0.39860   0.03687   0.61517   0.00000  Uiso   1.00
H564   H     0.41952   0.05632   0.34032   0.00000  Uiso   1.00
O565   O     0.56740   0.21631   0.39190   0.00000  Uiso   1.00
C566   C     0.57305   0.25708   0.37541   0.00000  Uiso   1.00
H567   H     0.56905   0.27832   0.40498   0.00000  Uiso   1.00
H568   H     0.54323   0.26657   0.34583   0.00000  Uiso   1.00
C569   C     0.62703   0.26340   0.36208   0.00000  Uiso   1.00
H570   H     0.63383   0.24221   0.66660   0.00000  Uiso   1.00
H571   H     0.63162   0.29563   0.35009   0.00000  Uiso   1.00
H572   H     0.65631   0.25742   0.39321   0.00000  Uiso   1.00
C573   C     0.83300   0.08737   0.50001   0.00000  Uiso   1.00
C574   C     0.83308   0.24596   0.49994   0.00000  Uiso   1.00
C575   C     0.73460   0.16678   0.48794   0.00000  Uiso   1.00
C576   C     0.93206   0.16711   0.51204   0.00000  Uiso   1.00
C577   C     0.67934   0.16672   0.48124   0.00000  Uiso   1.00
C578   C     0.98730   0.16813   0.51863   0.00000  Uiso   1.00
C579   C     0.82331   0.02139   0.45717   0.00000  Uiso   1.00
C580   C     0.84105   0.31194   0.54283   0.00000  Uiso   1.00
C581   C     0.82309   0.31212   0.45715   0.00000  Uiso   1.00
C582   C     0.84088   0.02122   0.54289   0.00000  Uiso   1.00
C583   C     0.83246   0.29058   0.49993   0.00000  Uiso   1.00
C584   C     0.83239   0.04275   0.50004   0.00000  Uiso   1.00
C585   C     0.80162   0.14071   0.35449   0.00000  Uiso   1.00
C586   C     0.86573   0.19206   0.64563   0.00000  Uiso   1.00
C587   C     0.80066   0.14083   0.63757   0.00000  Uiso   1.00
C588   C     0.86541   0.19287   0.36227   0.00000  Uiso   1.00
Cu589  Cu    0.83333   0.16667   0.54689   0.00000  Uiso   1.00
Cu590  Cu    0.83333   0.16666   0.45311   0.00000  Uiso   1.00
H591   H     0.99279   0.16519   0.44533   0.00000  Uiso   1.00
H592   H     0.67384   0.17013   0.55447   0.00000  Uiso   1.00
H593   H     0.81609   0.03753   0.42373   0.00000  Uiso   1.00
H594   H     0.84829   0.29582   0.57629   0.00000  Uiso   1.00
H595   H     0.81540   0.29612   0.42372   0.00000  Uiso   1.00
H596   H     0.84790   0.03721   0.57637   0.00000  Uiso   1.00
H597   H     0.77786   0.11958   0.37145   0.00000  Uiso   1.00
H598   H     0.89222   0.21127   0.62930   0.00000  Uiso   1.00
N599   N     0.83335   0.16668   0.61736   0.00000  Uiso   1.00
N600   N     0.83332   0.16666   0.38264   0.00000  Uiso   1.00
O601   O     0.83333   0.10655   0.53958   0.00000  Uiso   1.00
O602   O     0.83334   0.22678   0.46042   0.00000  Uiso   1.00
O603   O     0.83333   0.10654   0.46039   0.00000  Uiso   1.00
O604   O     0.83334   0.22679   0.53961   0.00000  Uiso   1.00
O605   O     0.75828   0.16667   0.53046   0.00000  Uiso   1.00
O606   O     0.90839   0.16666   0.46954   0.00000  Uiso   1.00
O607   O     0.75828   0.16666   0.45127   0.00000  Uiso   1.00
O608   O     0.90839   0.16667   0.54873   0.00000  Uiso   1.00
O609   O     0.77166   0.11262   0.60821   0.00000  Uiso   1.00
C610   C     0.72299   0.10287   0.62196   0.00000  Uiso   1.00
H611   H     0.69417   0.10317   0.58971   0.00000  Uiso   1.00
H612   H     0.70901   0.12557   0.64634   0.00000  Uiso   1.00
C613   C     0.72329   0.05931   0.64220   0.00000  Uiso   1.00
H614   H     0.68487   0.05178   0.65250   0.00000  Uiso   1.00
H615   H     0.73193   0.03687   0.61517   0.00000  Uiso   1.00
H616   H     0.75285   0.05632   0.34032   0.00000  Uiso   1.00
O617   O     0.90074   0.21631   0.39190   0.00000  Uiso   1.00
C618   C     0.90638   0.25708   0.37541   0.00000  Uiso   1.00
H619   H     0.90238   0.27832   0.40498   0.00000  Uiso   1.00
H620   H     0.87656   0.26657   0.34583   0.00000  Uiso   1.00
C621   C     0.96036   0.26340   0.36208   0.00000  Uiso   1.00
H622   H     0.96716   0.24221   0.66660   0.00000  Uiso   1.00
H623   H     0.96496   0.29563   0.35009   0.00000  Uiso   1.00
H624   H     0.98964   0.25742   0.39321   0.00000  Uiso   1.00
C625   C     0.16634   0.42071   0.50001   0.00000  Uiso   1.00
C626   C     0.16642   0.57930   0.49994   0.00000  Uiso   1.00
C627   C     0.06793   0.50011   0.48794   0.00000  Uiso   1.00
C628   C     0.26539   0.50044   0.51204   0.00000  Uiso   1.00
C629   C     0.01267   0.50005   0.48124   0.00000  Uiso   1.00
C630   C     0.32063   0.50146   0.51863   0.00000  Uiso   1.00
C631   C     0.15664   0.35473   0.45717   0.00000  Uiso   1.00
C632   C     0.17439   0.64528   0.54283   0.00000  Uiso   1.00
C633   C     0.15643   0.64545   0.45715   0.00000  Uiso   1.00
C634   C     0.17422   0.35455   0.54289   0.00000  Uiso   1.00
C635   C     0.16579   0.62391   0.49993   0.00000  Uiso   1.00
C636   C     0.16573   0.37609   0.50004   0.00000  Uiso   1.00
C637   C     0.13495   0.47404   0.35449   0.00000  Uiso   1.00
C638   C     0.19906   0.52539   0.64563   0.00000  Uiso   1.00
C639   C     0.13399   0.47416   0.63757   0.00000  Uiso   1.00
C640   C     0.19875   0.52620   0.36227   0.00000  Uiso   1.00
Cu641  Cu    0.16667   0.50001   0.54689   0.00000  Uiso   1.00
Cu642  Cu    0.16667   0.49999   0.45311   0.00000  Uiso   1.00
H643   H     0.32612   0.49853   0.44533   0.00000  Uiso   1.00
H644   H     0.00717   0.50347   0.55447   0.00000  Uiso   1.00
H645   H     0.14942   0.37087   0.42373   0.00000  Uiso   1.00
H646   H     0.18163   0.62916   0.57629   0.00000  Uiso   1.00
H647   H     0.14874   0.62945   0.42372   0.00000  Uiso   1.00
H648   H     0.18124   0.37054   0.57637   0.00000  Uiso   1.00
H649   H     0.11119   0.45291   0.37145   0.00000  Uiso   1.00
H650   H     0.22556   0.54460   0.62930   0.00000  Uiso   1.00
N651   N     0.16668   0.50001   0.61736   0.00000  Uiso   1.00
N652   N     0.16665   0.49999   0.38264   0.00000  Uiso   1.00
O653   O     0.16666   0.43989   0.53958   0.00000  Uiso   1.00
O654   O     0.16667   0.56011   0.46042   0.00000  Uiso   1.00
O655   O     0.16666   0.43988   0.46039   0.00000  Uiso   1.00
O656   O     0.16667   0.56012   0.53961   0.00000  Uiso   1.00
O657   O     0.09161   0.50000   0.53046   0.00000  Uiso   1.00
O658   O     0.24172   0.50000   0.46954   0.00000  Uiso   1.00
O659   O     0.09161   0.49999   0.45127   0.00000  Uiso   1.00
O660   O     0.24172   0.50001   0.54873   0.00000  Uiso   1.00
O661   O     0.10499   0.44595   0.60821   0.00000  Uiso   1.00
C662   C     0.05633   0.43620   0.62196   0.00000  Uiso   1.00
H663   H     0.02750   0.43650   0.58971   0.00000  Uiso   1.00
H664   H     0.04234   0.45890   0.64634   0.00000  Uiso   1.00
C665   C     0.05662   0.39265   0.64220   0.00000  Uiso   1.00
H666   H     0.01821   0.38512   0.65250   0.00000  Uiso   1.00
H667   H     0.06527   0.37020   0.61517   0.00000  Uiso   1.00
H668   H     0.08618   0.38965   0.34032   0.00000  Uiso   1.00
O669   O     0.23407   0.54964   0.39190   0.00000  Uiso   1.00
C670   C     0.23971   0.59041   0.37541   0.00000  Uiso   1.00
H671   H     0.23571   0.61166   0.40498   0.00000  Uiso   1.00
H672   H     0.20990   0.59990   0.34583   0.00000  Uiso   1.00
C673   C     0.29369   0.59673   0.36208   0.00000  Uiso   1.00
H674   H     0.30049   0.57555   0.66660   0.00000  Uiso   1.00
H675   H     0.29829   0.62897   0.35009   0.00000  Uiso   1.00
H676   H     0.32297   0.59075   0.39321   0.00000  Uiso   1.00
C677   C     0.49967   0.42071   0.50001   0.00000  Uiso   1.00
C678   C     0.49975   0.57930   0.49994   0.00000  Uiso   1.00
C679   C     0.40127   0.50011   0.48794   0.00000  Uiso   1.00
C680   C     0.59872   0.50044   0.51204   0.00000  Uiso   1.00
C681   C     0.34601   0.50005   0.48124   0.00000  Uiso   1.00
C682   C     0.65396   0.50146   0.51863   0.00000  Uiso   1.00
C683   C     0.48997   0.35473   0.45717   0.00000  Uiso   1.00
C684   C     0.50772   0.64528   0.54283   0.00000  Uiso   1.00
C685   C     0.48976   0.64545   0.45715   0.00000  Uiso   1.00
C686   C     0.50755   0.35455   0.54289   0.00000  Uiso   1.00
C687   C     0.49913   0.62391   0.49993   0.00000  Uiso   1.00
C688   C     0.49906   0.37609   0.50004   0.00000  Uiso   1.00
C689   C     0.46828   0.47404   0.35449   0.00000  Uiso   1.00
C690   C     0.53240   0.52539   0.64563   0.00000  Uiso   1.00
C691   C     0.46732   0.47416   0.63757   0.00000  Uiso   1.00
C692   C     0.53208   0.52620   0.36227   0.00000  Uiso   1.00
Cu693  Cu    0.50000   0.50001   0.54689   0.00000  Uiso   1.00
Cu694  Cu    0.50000   0.49999   0.45311   0.00000  Uiso   1.00
H695   H     0.65946   0.49853   0.44533   0.00000  Uiso   1.00
H696   H     0.34051   0.50347   0.55447   0.00000  Uiso   1.00
H697   H     0.48276   0.37087   0.42373   0.00000  Uiso   1.00
H698   H     0.51496   0.62916   0.57629   0.00000  Uiso   1.00
H699   H     0.48207   0.62945   0.42372   0.00000  Uiso   1.00
H700   H     0.51457   0.37054   0.57637   0.00000  Uiso   1.00
H701   H     0.44452   0.45291   0.37145   0.00000  Uiso   1.00
H702   H     0.55889   0.54460   0.62930   0.00000  Uiso   1.00
N703   N     0.50001   0.50001   0.61736   0.00000  Uiso   1.00
N704   N     0.49999   0.49999   0.38264   0.00000  Uiso   1.00
O705   O     0.50000   0.43989   0.53958   0.00000  Uiso   1.00
O706   O     0.50000   0.56011   0.46042   0.00000  Uiso   1.00
O707   O     0.50000   0.43988   0.46039   0.00000  Uiso   1.00
O708   O     0.50000   0.56012   0.53961   0.00000  Uiso   1.00
O709   O     0.42495   0.50000   0.53046   0.00000  Uiso   1.00
O710   O     0.57505   0.50000   0.46954   0.00000  Uiso   1.00
O711   O     0.42494   0.49999   0.45127   0.00000  Uiso   1.00
O712   O     0.57506   0.50001   0.54873   0.00000  Uiso   1.00
O713   O     0.43833   0.44595   0.60821   0.00000  Uiso   1.00
C714   C     0.38966   0.43620   0.62196   0.00000  Uiso   1.00
H715   H     0.36084   0.43650   0.58971   0.00000  Uiso   1.00
H716   H     0.37567   0.45890   0.64634   0.00000  Uiso   1.00
C717   C     0.38996   0.39265   0.64220   0.00000  Uiso   1.00
H718   H     0.35154   0.38512   0.65250   0.00000  Uiso   1.00
H719   H     0.39860   0.37020   0.61517   0.00000  Uiso   1.00
H720   H     0.41952   0.38965   0.34032   0.00000  Uiso   1.00
O721   O     0.56740   0.54964   0.39190   0.00000  Uiso   1.00
C722   C     0.57305   0.59041   0.37541   0.00000  Uiso   1.00
H723   H     0.56905   0.61166   0.40498   0.00000  Uiso   1.00
H724   H     0.54323   0.59990   0.34583   0.00000  Uiso   1.00
C725   C     0.62703   0.59673   0.36208   0.00000  Uiso   1.00
H726   H     0.63383   0.57555   0.66660   0.00000  Uiso   1.00
H727   H     0.63162   0.62897   0.35009   0.00000  Uiso   1.00
H728   H     0.65631   0.59075   0.39321   0.00000  Uiso   1.00
C729   C     0.83300   0.42071   0.50001   0.00000  Uiso   1.00
C730   C     0.83308   0.57930   0.49994   0.00000  Uiso   1.00
C731   C     0.73460   0.50011   0.48794   0.00000  Uiso   1.00
C732   C     0.93206   0.50044   0.51204   0.00000  Uiso   1.00
C733   C     0.67934   0.50005   0.48124   0.00000  Uiso   1.00
C734   C     0.98730   0.50146   0.51863   0.00000  Uiso   1.00
C735   C     0.82331   0.35473   0.45717   0.00000  Uiso   1.00
C736   C     0.84105   0.64528   0.54283   0.00000  Uiso   1.00
C737   C     0.82309   0.64545   0.45715   0.00000  Uiso   1.00
C738   C     0.84088   0.35455   0.54289   0.00000  Uiso   1.00
C739   C     0.83246   0.62391   0.49993   0.00000  Uiso   1.00
C740   C     0.83239   0.37609   0.50004   0.00000  Uiso   1.00
C741   C     0.80162   0.47404   0.35449   0.00000  Uiso   1.00
C742   C     0.86573   0.52539   0.64563   0.00000  Uiso   1.00
C743   C     0.80066   0.47416   0.63757   0.00000  Uiso   1.00
C744   C     0.86541   0.52620   0.36227   0.00000  Uiso   1.00
Cu745  Cu    0.83333   0.50001   0.54689   0.00000  Uiso   1.00
Cu746  Cu    0.83333   0.49999   0.45311   0.00000  Uiso   1.00
H747   H     0.99279   0.49853   0.44533   0.00000  Uiso   1.00
H748   H     0.67384   0.50347   0.55447   0.00000  Uiso   1.00
H749   H     0.81609   0.37087   0.42373   0.00000  Uiso   1.00
H750   H     0.84829   0.62916   0.57629   0.00000  Uiso   1.00
H751   H     0.81540   0.62945   0.42372   0.00000  Uiso   1.00
H752   H     0.84790   0.37054   0.57637   0.00000  Uiso   1.00
H753   H     0.77786   0.45291   0.37145   0.00000  Uiso   1.00
H754   H     0.89222   0.54460   0.62930   0.00000  Uiso   1.00
N755   N     0.83335   0.50001   0.61736   0.00000  Uiso   1.00
N756   N     0.83332   0.49999   0.38264   0.00000  Uiso   1.00
O757   O     0.83333   0.43989   0.53958   0.00000  Uiso   1.00
O758   O     0.83334   0.56011   0.46042   0.00000  Uiso   1.00
O759   O     0.83333   0.43988   0.46039   0.00000  Uiso   1.00
O760   O     0.83334   0.56012   0.53961   0.00000  Uiso   1.00
O761   O     0.75828   0.50000   0.53046   0.00000  Uiso   1.00
O762   O     0.90839   0.50000   0.46954   0.00000  Uiso   1.00
O763   O     0.75828   0.49999   0.45127   0.00000  Uiso   1.00
O764   O     0.90839   0.50001   0.54873   0.00000  Uiso   1.00
O765   O     0.77166   0.44595   0.60821   0.00000  Uiso   1.00
C766   C     0.72299   0.43620   0.62196   0.00000  Uiso   1.00
H767   H     0.69417   0.43650   0.58971   0.00000  Uiso   1.00
H768   H     0.70901   0.45890   0.64634   0.00000  Uiso   1.00
C769   C     0.72329   0.39265   0.64220   0.00000  Uiso   1.00
H770   H     0.68487   0.38512   0.65250   0.00000  Uiso   1.00
H771   H     0.73193   0.37020   0.61517   0.00000  Uiso   1.00
H772   H     0.75285   0.38965   0.34032   0.00000  Uiso   1.00
O773   O     0.90074   0.54964   0.39190   0.00000  Uiso   1.00
C774   C     0.90638   0.59041   0.37541   0.00000  Uiso   1.00
H775   H     0.90238   0.61166   0.40498   0.00000  Uiso   1.00
H776   H     0.87656   0.59990   0.34583   0.00000  Uiso   1.00
C777   C     0.96036   0.59673   0.36208   0.00000  Uiso   1.00
H778   H     0.96716   0.57555   0.66660   0.00000  Uiso   1.00
H779   H     0.96496   0.62897   0.35009   0.00000  Uiso   1.00
H780   H     0.98964   0.59075   0.39321   0.00000  Uiso   1.00
C781   C     0.16634   0.75404   0.50001   0.00000  Uiso   1.00
C782   C     0.16642   0.91263   0.49994   0.00000  Uiso   1.00
C783   C     0.06793   0.83345   0.48794   0.00000  Uiso   1.00
C784   C     0.26539   0.83377   0.51204   0.00000  Uiso   1.00
C785   C     0.01267   0.83339   0.48124   0.00000  Uiso   1.00
C786   C     0.32063   0.83479   0.51863   0.00000  Uiso   1.00
C787   C     0.15664   0.68806   0.45717   0.00000  Uiso   1.00
C788   C     0.17439   0.97861   0.54283   0.00000  Uiso   1.00
C789   C     0.15643   0.97878   0.45715   0.00000  Uiso   1.00
C790   C     0.17422   0.68788   0.54289   0.00000  Uiso   1.00
C791   C     0.16579   0.95725   0.49993   0.00000  Uiso   1.00
C792   C     0.16573   0.70942   0.50004   0.00000  Uiso   1.00
C793   C     0.13495   0.80738   0.35449   0.00000  Uiso   1.00
C794   C     0.19906   0.85872   0.64563   0.00000  Uiso   1.00
C795   C     0.13399   0.80749   0.63757   0.00000  Uiso   1.00
C796   C     0.19875   0.85953   0.36227   0.00000  Uiso   1.00
Cu797  Cu    0.16667   0.83334   0.54689   0.00000  Uiso   1.00
Cu798  Cu    0.16667   0.83333   0.45311   0.00000  Uiso   1.00
H799   H     0.32612   0.83186   0.44533   0.00000  Uiso   1.00
H800   H     0.00717   0.83680   0.55447   0.00000  Uiso   1.00
H801   H     0.14942   0.70420   0.42373   0.00000  Uiso   1.00
H802   H     0.18163   0.96249   0.57629   0.00000  Uiso   1.00
H803   H     0.14874   0.96278   0.42372   0.00000  Uiso   1.00
H804   H     0.18124   0.70388   0.57637   0.00000  Uiso   1.00
H805   H     0.11119   0.78625   0.37145   0.00000  Uiso   1.00
H806   H     0.22556   0.87793   0.62930   0.00000  Uiso   1.00
N807   N     0.16668   0.83334   0.61736   0.00000  Uiso   1.00
N808   N     0.16665   0.83332   0.38264   0.00000  Uiso   1.00
O809   O     0.16666   0.77322   0.53958   0.00000  Uiso   1.00
O810   O     0.16667   0.89345   0.46042   0.00000  Uiso   1.00
O811   O     0.16666   0.77321   0.46039   0.00000  Uiso   1.00
O812   O     0.16667   0.89346   0.53961   0.00000  Uiso   1.00
O813   O     0.09161   0.83334   0.53046   0.00000  Uiso   1.00
O814   O     0.24172   0.83333   0.46954   0.00000  Uiso   1.00
O815   O     0.09161   0.83333   0.45127   0.00000  Uiso   1.00
O816   O     0.24172   0.83334   0.54873   0.00000  Uiso   1.00
O817   O     0.10499   0.77928   0.60821   0.00000  Uiso   1.00
C818   C     0.05633   0.76954   0.62196   0.00000  Uiso   1.00
H819   H     0.02750   0.76984   0.58971   0.00000  Uiso   1.00
H820   H     0.04234   0.79224   0.64634   0.00000  Uiso   1.00
C821   C     0.05662   0.72598   0.64220   0.00000  Uiso   1.00
H822   H     0.01821   0.71845   0.65250   0.00000  Uiso   1.00
H823   H     0.06527   0.70353   0.61517   0.00000  Uiso   1.00
H824   H     0.08618   0.72298   0.34032   0.00000  Uiso   1.00
O825   O     0.23407   0.88298   0.39190   0.00000  Uiso   1.00
C826   C     0.23971   0.92375   0.37541   0.00000  Uiso   1.00
H827   H     0.23571   0.94499   0.40498   0.00000  Uiso   1.00
H828   H     0.20990   0.93324   0.34583   0.00000  Uiso   1.00
C829   C     0.29369   0.93007   0.36208   0.00000  Uiso   1.00
H830   H     0.30049   0.90888   0.66660   0.00000  Uiso   1.00
H831   H     0.29829   0.96230   0.35009   0.00000  Uiso   1.00
H832   H     0.32297   0.92409   0.39321   0.00000  Uiso   1.00
C833   C     0.49967   0.75404   0.50001   0.00000  Uiso   1.00
C834   C     0.49975   0.91263   0.49994   0.00000  Uiso   1.00
C835   C     0.40127   0.83345   0.48794   0.00000  Uiso   1.00
C836   C     0.59872   0.83377   0.51204   0.00000  Uiso   1.00
C837   C     0.34601   0.83339   0.48124   0.00000  Uiso   1.00
C838   C     0.65396   0.83479   0.51863   0.00000  Uiso   1.00
C839   C     0.48997   0.68806   0.45717   0.00000  Uiso   1.00
C840   C     0.50772   0.97861   0.54283   0.00000  Uiso   1.00
C841   C     0.48976   0.97878   0.45715   0.00000  Uiso   1.00
C842   C     0.50755   0.68788   0.54289   0.00000  Uiso   1.00
C843   C     0.49913   0.95725   0.49993   0.00000  Uiso   1.00
C844   C     0.49906   0.70942   0.50004   0.00000  Uiso   1.00
C845   C     0.46828   0.80738   0.35449   0.00000  Uiso   1.00
C846   C     0.53240   0.85872   0.64563   0.00000  Uiso   1.00
C847   C     0.46732   0.80749   0.63757   0.00000  Uiso   1.00
C848   C     0.53208   0.85953   0.36227   0.00000  Uiso   1.00
Cu849  Cu    0.50000   0.83334   0.54689   0.00000  Uiso   1.00
Cu850  Cu    0.50000   0.83333   0.45311   0.00000  Uiso   1.00
H851   H     0.65946   0.83186   0.44533   0.00000  Uiso   1.00
H852   H     0.34051   0.83680   0.55447   0.00000  Uiso   1.00
H853   H     0.48276   0.70420   0.42373   0.00000  Uiso   1.00
H854   H     0.51496   0.96249   0.57629   0.00000  Uiso   1.00
H855   H     0.48207   0.96278   0.42372   0.00000  Uiso   1.00
H856   H     0.51457   0.70388   0.57637   0.00000  Uiso   1.00
H857   H     0.44452   0.78625   0.37145   0.00000  Uiso   1.00
H858   H     0.55889   0.87793   0.62930   0.00000  Uiso   1.00
N859   N     0.50001   0.83334   0.61736   0.00000  Uiso   1.00
N860   N     0.49999   0.83332   0.38264   0.00000  Uiso   1.00
O861   O     0.50000   0.77322   0.53958   0.00000  Uiso   1.00
O862   O     0.50000   0.89345   0.46042   0.00000  Uiso   1.00
O863   O     0.50000   0.77321   0.46039   0.00000  Uiso   1.00
O864   O     0.50000   0.89346   0.53961   0.00000  Uiso   1.00
O865   O     0.42495   0.83334   0.53046   0.00000  Uiso   1.00
O866   O     0.57505   0.83333   0.46954   0.00000  Uiso   1.00
O867   O     0.42494   0.83333   0.45127   0.00000  Uiso   1.00
O868   O     0.57506   0.83334   0.54873   0.00000  Uiso   1.00
O869   O     0.43833   0.77928   0.60821   0.00000  Uiso   1.00
C870   C     0.38966   0.76954   0.62196   0.00000  Uiso   1.00
H871   H     0.36084   0.76984   0.58971   0.00000  Uiso   1.00
H872   H     0.37567   0.79224   0.64634   0.00000  Uiso   1.00
C873   C     0.38996   0.72598   0.64220   0.00000  Uiso   1.00
H874   H     0.35154   0.71845   0.65250   0.00000  Uiso   1.00
H875   H     0.39860   0.70353   0.61517   0.00000  Uiso   1.00
H876   H     0.41952   0.72298   0.34032   0.00000  Uiso   1.00
O877   O     0.56740   0.88298   0.39190   0.00000  Uiso   1.00
C878   C     0.57305   0.92375   0.37541   0.00000  Uiso   1.00
H879   H     0.56905   0.94499   0.40498   0.00000  Uiso   1.00
H880   H     0.54323   0.93324   0.34583   0.00000  Uiso   1.00
C881   C     0.62703   0.93007   0.36208   0.00000  Uiso   1.00
H882   H     0.63383   0.90888   0.66660   0.00000  Uiso   1.00
H883   H     0.63162   0.96230   0.35009   0.00000  Uiso   1.00
H884   H     0.65631   0.92409   0.39321   0.00000  Uiso   1.00
C885   C     0.83300   0.75404   0.50001   0.00000  Uiso   1.00
C886   C     0.83308   0.91263   0.49994   0.00000  Uiso   1.00
C887   C     0.73460   0.83345   0.48794   0.00000  Uiso   1.00
C888   C     0.93206   0.83377   0.51204   0.00000  Uiso   1.00
C889   C     0.67934   0.83339   0.48124   0.00000  Uiso   1.00
C890   C     0.98730   0.83479   0.51863   0.00000  Uiso   1.00
C891   C     0.82331   0.68806   0.45717   0.00000  Uiso   1.00
C892   C     0.84105   0.97861   0.54283   0.00000  Uiso   1.00
C893   C     0.82309   0.97878   0.45715   0.00000  Uiso   1.00
C894   C     0.84088   0.68788   0.54289   0.00000  Uiso   1.00
C895   C     0.83246   0.95725   0.49993   0.00000  Uiso   1.00
C896   C     0.83239   0.70942   0.50004   0.00000  Uiso   1.00
C897   C     0.80162   0.80738   0.35449   0.00000  Uiso   1.00
C898   C     0.86573   0.85872   0.64563   0.00000  Uiso   1.00
C899   C     0.80066   0.80749   0.63757   0.00000  Uiso   1.00
C900   C     0.86541   0.85953   0.36227   0.00000  Uiso   1.00
Cu901  Cu    0.83333   0.83334   0.54689   0.00000  Uiso   1.00
Cu902  Cu    0.83333   0.83333   0.45311   0.00000  Uiso   1.00
H903   H     0.99279   0.83186   0.44533   0.00000  Uiso   1.00
H904   H     0.67384   0.83680   0.55447   0.00000  Uiso   1.00
H905   H     0.81609   0.70420   0.42373   0.00000  Uiso   1.00
H906   H     0.84829   0.96249   0.57629   0.00000  Uiso   1.00
H907   H     0.81540   0.96278   0.42372   0.00000  Uiso   1.00
H908   H     0.84790   0.70388   0.57637   0.00000  Uiso   1.00
H909   H     0.77786   0.78625   0.37145   0.00000  Uiso   1.00
H910   H     0.89222   0.87793   0.62930   0.00000  Uiso   1.00
N911   N     0.83335   0.83334   0.61736   0.00000  Uiso   1.00
N912   N     0.83332   0.83332   0.38264   0.00000  Uiso   1.00
O913   O     0.83333   0.77322   0.53958   0.00000  Uiso   1.00
O914   O     0.83334   0.89345   0.46042   0.00000  Uiso   1.00
O915   O     0.83333   0.77321   0.46039   0.00000  Uiso   1.00
O916   O     0.83334   0.89346   0.53961   0.00000  Uiso   1.00
O917   O     0.75828   0.83334   0.53046   0.00000  Uiso   1.00
O918   O     0.90839   0.83333   0.46954   0.00000  Uiso   1.00
O919   O     0.75828   0.83333   0.45127   0.00000  Uiso   1.00
O920   O     0.90839   0.83334   0.54873   0.00000  Uiso   1.00
O921   O     0.77166   0.77928   0.60821   0.00000  Uiso   1.00
C922   C     0.72299   0.76954   0.62196   0.00000  Uiso   1.00
H923   H     0.69417   0.76984   0.58971   0.00000  Uiso   1.00
H924   H     0.70901   0.79224   0.64634   0.00000  Uiso   1.00
C925   C     0.72329   0.72598   0.64220   0.00000  Uiso   1.00
H926   H     0.68487   0.71845   0.65250   0.00000  Uiso   1.00
H927   H     0.73193   0.70353   0.61517   0.00000  Uiso   1.00
H928   H     0.75285   0.72298   0.34032   0.00000  Uiso   1.00
O929   O     0.90074   0.88298   0.39190   0.00000  Uiso   1.00
C930   C     0.90638   0.92375   0.37541   0.00000  Uiso   1.00
H931   H     0.90238   0.94499   0.40498   0.00000  Uiso   1.00
H932   H     0.87656   0.93324   0.34583   0.00000  Uiso   1.00
C933   C     0.96036   0.93007   0.36208   0.00000  Uiso   1.00
H934   H     0.96716   0.90888   0.66660   0.00000  Uiso   1.00
H935   H     0.96496   0.96230   0.35009   0.00000  Uiso   1.00
H936   H     0.98964   0.92409   0.39321   0.00000  Uiso   1.00
C937   C     0.16634   0.08737   0.83335   0.00000  Uiso   1.00
C938   C     0.16642   0.24596   0.83327   0.00000  Uiso   1.00
C939   C     0.06793   0.16678   0.82127   0.00000  Uiso   1.00
C940   C     0.26539   0.16711   0.84538   0.00000  Uiso   1.00
C941   C     0.01267   0.16672   0.81458   0.00000  Uiso   1.00
C942   C     0.32063   0.16813   0.85196   0.00000  Uiso   1.00
C943   C     0.15664   0.02139   0.79051   0.00000  Uiso   1.00
C944   C     0.17439   0.31194   0.87616   0.00000  Uiso   1.00
C945   C     0.15643   0.31212   0.79048   0.00000  Uiso   1.00
C946   C     0.17422   0.02122   0.87622   0.00000  Uiso   1.00
C947   C     0.16579   0.29058   0.83326   0.00000  Uiso   1.00
C948   C     0.16573   0.04275   0.83337   0.00000  Uiso   1.00
C949   C     0.13495   0.14071   0.68782   0.00000  Uiso   1.00
C950   C     0.19906   0.19206   0.97896   0.00000  Uiso   1.00
C951   C     0.13399   0.14083   0.97090   0.00000  Uiso   1.00
C952   C     0.19875   0.19287   0.69560   0.00000  Uiso   1.00
Cu953  Cu    0.16667   0.16667   0.88022   0.00000  Uiso   1.00
Cu954  Cu    0.16667   0.16666   0.78645   0.00000  Uiso   1.00
H955   H     0.32612   0.16519   0.77867   0.00000  Uiso   1.00
H956   H     0.00717   0.17013   0.88781   0.00000  Uiso   1.00
H957   H     0.14942   0.03753   0.75706   0.00000  Uiso   1.00
H958   H     0.18163   0.29582   0.90962   0.00000  Uiso   1.00
H959   H     0.14874   0.29612   0.75706   0.00000  Uiso   1.00
H960   H     0.18124   0.03721   0.90970   0.00000  Uiso   1.00
H961   H     0.11119   0.11958   0.70478   0.00000  Uiso   1.00
H962   H     0.22556   0.21127   0.96263   0.00000  Uiso   1.00
N963   N     0.16668   0.16668   0.95069   0.00000  Uiso   1.00
N964   N     0.16665   0.16666   0.71597   0.00000  Uiso   1.00
O965   O     0.16666   0.10655   0.87291   0.00000  Uiso   1.00
O966   O     0.16667   0.22678   0.79375   0.00000  Uiso   1.00
O967   O     0.16666   0.10654   0.79372   0.00000  Uiso   1.00
O968   O     0.16667   0.22679   0.87294   0.00000  Uiso   1.00
O969   O     0.09161   0.16667   0.86379   0.00000  Uiso   1.00
O970   O     0.24172   0.16666   0.80288   0.00000  Uiso   1.00
O971   O     0.09161   0.16666   0.78460   0.00000  Uiso   1.00
O972   O     0.24172   0.16667   0.88207   0.00000  Uiso   1.00
O973   O     0.10499   0.11262   0.94154   0.00000  Uiso   1.00
C974   C     0.05633   0.10287   0.95529   0.00000  Uiso   1.00
H975   H     0.02750   0.10317   0.92304   0.00000  Uiso   1.00
H976   H     0.04234   0.12557   0.97967   0.00000  Uiso   1.00
C977   C     0.05662   0.05931   0.97553   0.00000  Uiso   1.00
H978   H     0.01821   0.05178   0.98584   0.00000  Uiso   1.00
H979   H     0.06527   0.03687   0.94850   0.00000  Uiso   1.00
H980   H     0.08618   0.05632   0.67366   0.00000  Uiso   1.00
O981   O     0.23407   0.21631   0.72523   0.00000  Uiso   1.00
C982   C     0.23971   0.25708   0.70874   0.00000  Uiso   1.00
H983   H     0.23571   0.27832   0.73831   0.00000  Uiso   1.00
H984   H     0.20990   0.26657   0.67916   0.00000  Uiso   1.00
C985   C     0.29369   0.26340   0.69542   0.00000  Uiso   1.00
H986   H     0.30049   0.24221   0.99993   0.00000  Uiso   1.00
H987   H     0.29829   0.29563   0.68343   0.00000  Uiso   1.00
H988   H     0.32297   0.25742   0.72655   0.00000  Uiso   1.00
C989   C     0.49967   0.08737   0.83335   0.00000  Uiso   1.00
C990   C     0.49975   0.24596   0.83327   0.00000  Uiso   1.00
C991   C     0.40127   0.16678   0.82127   0.00000  Uiso   1.00
C992   C     0.59872   0.16711   0.84538   0.00000  Uiso   1.00
C993   C     0.34601   0.16672   0.81458   0.00000  Uiso   1.00
C994   C     0.65396   0.16813   0.85196   0.00000  Uiso   1.00
C995   C     0.48997   0.02139   0.79051   0.00000  Uiso   1.00
C996   C     0.50772   0.31194   0.87616   0.00000  Uiso   1.00
C997   C     0.48976   0.31212   0.79048   0.00000  Uiso   1.00
C998   C     0.50755   0.02122   0.87622   0.00000  Uiso   1.00
C999   C     0.49913   0.29058   0.83326   0.00000  Uiso   1.00
C1000  C     0.49906   0.04275   0.83337   0.00000  Uiso   1.00
C1001  C     0.46828   0.14071   0.68782   0.00000  Uiso   1.00
C1002  C     0.53240   0.19206   0.97896   0.00000  Uiso   1.00
C1003  C     0.46732   0.14083   0.97090   0.00000  Uiso   1.00
C1004  C     0.53208   0.19287   0.69560   0.00000  Uiso   1.00
Cu1005 Cu    0.50000   0.16667   0.88022   0.00000  Uiso   1.00
Cu1006 Cu    0.50000   0.16666   0.78645   0.00000  Uiso   1.00
H1007  H     0.65946   0.16519   0.77867   0.00000  Uiso   1.00
H1008  H     0.34051   0.17013   0.88781   0.00000  Uiso   1.00
H1009  H     0.48276   0.03753   0.75706   0.00000  Uiso   1.00
H1010  H     0.51496   0.29582   0.90962   0.00000  Uiso   1.00
H1011  H     0.48207   0.29612   0.75706   0.00000  Uiso   1.00
H1012  H     0.51457   0.03721   0.90970   0.00000  Uiso   1.00
H1013  H     0.44452   0.11958   0.70478   0.00000  Uiso   1.00
H1014  H     0.55889   0.21127   0.96263   0.00000  Uiso   1.00
N1015  N     0.50001   0.16668   0.95069   0.00000  Uiso   1.00
N1016  N     0.49999   0.16666   0.71597   0.00000  Uiso   1.00
O1017  O     0.50000   0.10655   0.87291   0.00000  Uiso   1.00
O1018  O     0.50000   0.22678   0.79375   0.00000  Uiso   1.00
O1019  O     0.50000   0.10654   0.79372   0.00000  Uiso   1.00
O1020  O     0.50000   0.22679   0.87294   0.00000  Uiso   1.00
O1021  O     0.42495   0.16667   0.86379   0.00000  Uiso   1.00
O1022  O     0.57505   0.16666   0.80288   0.00000  Uiso   1.00
O1023  O     0.42494   0.16666   0.78460   0.00000  Uiso   1.00
O1024  O     0.57506   0.16667   0.88207   0.00000  Uiso   1.00
O1025  O     0.43833   0.11262   0.94154   0.00000  Uiso   1.00
C1026  C     0.38966   0.10287   0.95529   0.00000  Uiso   1.00
H1027  H     0.36084   0.10317   0.92304   0.00000  Uiso   1.00
H1028  H     0.37567   0.12557   0.97967   0.00000  Uiso   1.00
C1029  C     0.38996   0.05931   0.97553   0.00000  Uiso   1.00
H1030  H     0.35154   0.05178   0.98584   0.00000  Uiso   1.00
H1031  H     0.39860   0.03687   0.94850   0.00000  Uiso   1.00
H1032  H     0.41952   0.05632   0.67366   0.00000  Uiso   1.00
O1033  O     0.56740   0.21631   0.72523   0.00000  Uiso   1.00
C1034  C     0.57305   0.25708   0.70874   0.00000  Uiso   1.00
H1035  H     0.56905   0.27832   0.73831   0.00000  Uiso   1.00
H1036  H     0.54323   0.26657   0.67916   0.00000  Uiso   1.00
C1037  C     0.62703   0.26340   0.69542   0.00000  Uiso   1.00
H1038  H     0.63383   0.24221   0.99993   0.00000  Uiso   1.00
H1039  H     0.63162   0.29563   0.68343   0.00000  Uiso   1.00
H1040  H     0.65631   0.25742   0.72655   0.00000  Uiso   1.00
C1041  C     0.83300   0.08737   0.83335   0.00000  Uiso   1.00
C1042  C     0.83308   0.24596   0.83327   0.00000  Uiso   1.00
C1043  C     0.73460   0.16678   0.82127   0.00000  Uiso   1.00
C1044  C     0.93206   0.16711   0.84538   0.00000  Uiso   1.00
C1045  C     0.67934   0.16672   0.81458   0.00000  Uiso   1.00
C1046  C     0.98730   0.16813   0.85196   0.00000  Uiso   1.00
C1047  C     0.82331   0.02139   0.79051   0.00000  Uiso   1.00
C1048  C     0.84105   0.31194   0.87616   0.00000  Uiso   1.00
C1049  C     0.82309   0.31212   0.79048   0.00000  Uiso   1.00
C1050  C     0.84088   0.02122   0.87622   0.00000  Uiso   1.00
C1051  C     0.83246   0.29058   0.83326   0.00000  Uiso   1.00
C1052  C     0.83239   0.04275   0.83337   0.00000  Uiso   1.00
C1053  C     0.80162   0.14071   0.68782   0.00000  Uiso   1.00
C1054  C     0.86573   0.19206   0.97896   0.00000  Uiso   1.00
C1055  C     0.80066   0.14083   0.97090   0.00000  Uiso   1.00
C1056  C     0.86541   0.19287   0.69560   0.00000  Uiso   1.00
Cu1057 Cu    0.83333   0.16667   0.88022   0.00000  Uiso   1.00
Cu1058 Cu    0.83333   0.16666   0.78645   0.00000  Uiso   1.00
H1059  H     0.99279   0.16519   0.77867   0.00000  Uiso   1.00
H1060  H     0.67384   0.17013   0.88781   0.00000  Uiso   1.00
H1061  H     0.81609   0.03753   0.75706   0.00000  Uiso   1.00
H1062  H     0.84829   0.29582   0.90962   0.00000  Uiso   1.00
H1063  H     0.81540   0.29612   0.75706   0.00000  Uiso   1.00
H1064  H     0.84790   0.03721   0.90970   0.00000  Uiso   1.00
H1065  H     0.77786   0.11958   0.70478   0.00000  Uiso   1.00
H1066  H     0.89222   0.21127   0.96263   0.00000  Uiso   1.00
N1067  N     0.83335   0.16668   0.95069   0.00000  Uiso   1.00
N1068  N     0.83332   0.16666   0.71597   0.00000  Uiso   1.00
O1069  O     0.83333   0.10655   0.87291   0.00000  Uiso   1.00
O1070  O     0.83334   0.22678   0.79375   0.00000  Uiso   1.00
O1071  O     0.83333   0.10654   0.79372   0.00000  Uiso   1.00
O1072  O     0.83334   0.22679   0.87294   0.00000  Uiso   1.00
O1073  O     0.75828   0.16667   0.86379   0.00000  Uiso   1.00
O1074  O     0.90839   0.16666   0.80288   0.00000  Uiso   1.00
O1075  O     0.75828   0.16666   0.78460   0.00000  Uiso   1.00
O1076  O     0.90839   0.16667   0.88207   0.00000  Uiso   1.00
O1077  O     0.77166   0.11262   0.94154   0.00000  Uiso   1.00
C1078  C     0.72299   0.10287   0.95529   0.00000  Uiso   1.00
H1079  H     0.69417   0.10317   0.92304   0.00000  Uiso   1.00
H1080  H     0.70901   0.12557   0.97967   0.00000  Uiso   1.00
C1081  C     0.72329   0.05931   0.97553   0.00000  Uiso   1.00
H1082  H     0.68487   0.05178   0.98584   0.00000  Uiso   1.00
H1083  H     0.73193   0.03687   0.94850   0.00000  Uiso   1.00
H1084  H     0.75285   0.05632   0.67366   0.00000  Uiso   1.00
O1085  O     0.90074   0.21631   0.72523   0.00000  Uiso   1.00
C1086  C     0.90638   0.25708   0.70874   0.00000  Uiso   1.00
H1087  H     0.90238   0.27832   0.73831   0.00000  Uiso   1.00
H1088  H     0.87656   0.26657   0.67916   0.00000  Uiso   1.00
C1089  C     0.96036   0.26340   0.69542   0.00000  Uiso   1.00
H1090  H     0.96716   0.24221   0.99993   0.00000  Uiso   1.00
H1091  H     0.96496   0.29563   0.68343   0.00000  Uiso   1.00
H1092  H     0.98964   0.25742   0.72655   0.00000  Uiso   1.00
C1093  C     0.16634   0.42071   0.83335   0.00000  Uiso   1.00
C1094  C     0.16642   0.57930   0.83327   0.00000  Uiso   1.00
C1095  C     0.06793   0.50011   0.82127   0.00000  Uiso   1.00
C1096  C     0.26539   0.50044   0.84538   0.00000  Uiso   1.00
C1097  C     0.01267   0.50005   0.81458   0.00000  Uiso   1.00
C1098  C     0.32063   0.50146   0.85196   0.00000  Uiso   1.00
C1099  C     0.15664   0.35473   0.79051   0.00000  Uiso   1.00
C1100  C     0.17439   0.64528   0.87616   0.00000  Uiso   1.00
C1101  C     0.15643   0.64545   0.79048   0.00000  Uiso   1.00
C1102  C     0.17422   0.35455   0.87622   0.00000  Uiso   1.00
C1103  C     0.16579   0.62391   0.83326   0.00000  Uiso   1.00
C1104  C     0.16573   0.37609   0.83337   0.00000  Uiso   1.00
C1105  C     0.13495   0.47404   0.68782   0.00000  Uiso   1.00
C1106  C     0.19906   0.52539   0.97896   0.00000  Uiso   1.00
C1107  C     0.13399   0.47416   0.97090   0.00000  Uiso   1.00
C1108  C     0.19875   0.52620   0.69560   0.00000  Uiso   1.00
Cu1109 Cu    0.16667   0.50001   0.88022   0.00000  Uiso   1.00
Cu1110 Cu    0.16667   0.49999   0.78645   0.00000  Uiso   1.00
H1111  H     0.32612   0.49853   0.77867   0.00000  Uiso   1.00
H1112  H     0.00717   0.50347   0.88781   0.00000  Uiso   1.00
H1113  H     0.14942   0.37087   0.75706   0.00000  Uiso   1.00
H1114  H     0.18163   0.62916   0.90962   0.00000  Uiso   1.00
H1115  H     0.14874   0.62945   0.75706   0.00000  Uiso   1.00
H1116  H     0.18124   0.37054   0.90970   0.00000  Uiso   1.00
H1117  H     0.11119   0.45291   0.70478   0.00000  Uiso   1.00
H1118  H     0.22556   0.54460   0.96263   0.00000  Uiso   1.00
N1119  N     0.16668   0.50001   0.95069   0.00000  Uiso   1.00
N1120  N     0.16665   0.49999   0.71597   0.00000  Uiso   1.00
O1121  O     0.16666   0.43989   0.87291   0.00000  Uiso   1.00
O1122  O     0.16667   0.56011   0.79375   0.00000  Uiso   1.00
O1123  O     0.16666   0.43988   0.79372   0.00000  Uiso   1.00
O1124  O     0.16667   0.56012   0.87294   0.00000  Uiso   1.00
O1125  O     0.09161   0.50000   0.86379   0.00000  Uiso   1.00
O1126  O     0.24172   0.50000   0.80288   0.00000  Uiso   1.00
O1127  O     0.09161   0.49999   0.78460   0.00000  Uiso   1.00
O1128  O     0.24172   0.50001   0.88207   0.00000  Uiso   1.00
O1129  O     0.10499   0.44595   0.94154   0.00000  Uiso   1.00
C1130  C     0.05633   0.43620   0.95529   0.00000  Uiso   1.00
H1131  H     0.02750   0.43650   0.92304   0.00000  Uiso   1.00
H1132  H     0.04234   0.45890   0.97967   0.00000  Uiso   1.00
C1133  C     0.05662   0.39265   0.97553   0.00000  Uiso   1.00
H1134  H     0.01821   0.38512   0.98584   0.00000  Uiso   1.00
H1135  H     0.06527   0.37020   0.94850   0.00000  Uiso   1.00
H1136  H     0.08618   0.38965   0.67366   0.00000  Uiso   1.00
O1137  O     0.23407   0.54964   0.72523   0.00000  Uiso   1.00
C1138  C     0.23971   0.59041   0.70874   0.00000  Uiso   1.00
H1139  H     0.23571   0.61166   0.73831   0.00000  Uiso   1.00
H1140  H     0.20990   0.59990   0.67916   0.00000  Uiso   1.00
C1141  C     0.29369   0.59673   0.69542   0.00000  Uiso   1.00
H1142  H     0.30049   0.57555   0.99993   0.00000  Uiso   1.00
H1143  H     0.29829   0.62897   0.68343   0.00000  Uiso   1.00
H1144  H     0.32297   0.59075   0.72655   0.00000  Uiso   1.00
C1145  C     0.49967   0.42071   0.83335   0.00000  Uiso   1.00
C1146  C     0.49975   0.57930   0.83327   0.00000  Uiso   1.00
C1147  C     0.40127   0.50011   0.82127   0.00000  Uiso   1.00
C1148  C     0.59872   0.50044   0.84538   0.00000  Uiso   1.00
C1149  C     0.34601   0.50005   0.81458   0.00000  Uiso   1.00
C1150  C     0.65396   0.50146   0.85196   0.00000  Uiso   1.00
C1151  C     0.48997   0.35473   0.79051   0.00000  Uiso   1.00
C1152  C     0.50772   0.64528   0.87616   0.00000  Uiso   1.00
C1153  C     0.48976   0.64545   0.79048   0.00000  Uiso   1.00
C1154  C     0.50755   0.35455   0.87622   0.00000  Uiso   1.00
C1155  C     0.49913   0.62391   0.83326   0.00000  Uiso   1.00
C1156  C     0.49906   0.37609   0.83337   0.00000  Uiso   1.00
C1157  C     0.46828   0.47404   0.68782   0.00000  Uiso   1.00
C1158  C     0.53240   0.52539   0.97896   0.00000  Uiso   1.00
C1159  C     0.46732   0.47416   0.97090   0.00000  Uiso   1.00
C1160  C     0.53208   0.52620   0.69560   0.00000  Uiso   1.00
Cu1161 Cu    0.50000   0.50001   0.88022   0.00000  Uiso   1.00
Cu1162 Cu    0.50000   0.49999   0.78645   0.00000  Uiso   1.00
H1163  H     0.65946   0.49853   0.77867   0.00000  Uiso   1.00
H1164  H     0.34051   0.50347   0.88781   0.00000  Uiso   1.00
H1165  H     0.48276   0.37087   0.75706   0.00000  Uiso   1.00
H1166  H     0.51496   0.62916   0.90962   0.00000  Uiso   1.00
H1167  H     0.48207   0.62945   0.75706   0.00000  Uiso   1.00
H1168  H     0.51457   0.37054   0.90970   0.00000  Uiso   1.00
H1169  H     0.44452   0.45291   0.70478   0.00000  Uiso   1.00
H1170  H     0.55889   0.54460   0.96263   0.00000  Uiso   1.00
N1171  N     0.50001   0.50001   0.95069   0.00000  Uiso   1.00
N1172  N     0.49999   0.49999   0.71597   0.00000  Uiso   1.00
O1173  O     0.50000   0.43989   0.87291   0.00000  Uiso   1.00
O1174  O     0.50000   0.56011   0.79375   0.00000  Uiso   1.00
O1175  O     0.50000   0.43988   0.79372   0.00000  Uiso   1.00
O1176  O     0.50000   0.56012   0.87294   0.00000  Uiso   1.00
O1177  O     0.42495   0.50000   0.86379   0.00000  Uiso   1.00
O1178  O     0.57505   0.50000   0.80288   0.00000  Uiso   1.00
O1179  O     0.42494   0.49999   0.78460   0.00000  Uiso   1.00
O1180  O     0.57506   0.50001   0.88207   0.00000  Uiso   1.00
O1181  O     0.43833   0.44595   0.94154   0.00000  Uiso   1.00
C1182  C     0.38966   0.43620   0.95529   0.00000  Uiso   1.00
H1183  H     0.36084   0.43650   0.92304   0.00000  Uiso   1.00
H1184  H     0.37567   0.45890   0.97967   0.00000  Uiso   1.00
C1185  C     0.38996   0.39265   0.97553   0.00000  Uiso   1.00
H1186  H     0.35154   0.38512   0.98584   0.00000  Uiso   1.00
H1187  H     0.39860   0.37020   0.94850   0.00000  Uiso   1.00
H1188  H     0.41952   0.38965   0.67366   0.00000  Uiso   1.00
O1189  O     0.56740   0.54964   0.72523   0.00000  Uiso   1.00
C1190  C     0.57305   0.59041   0.70874   0.00000  Uiso   1.00
H1191  H     0.56905   0.61166   0.73831   0.00000  Uiso   1.00
H1192  H     0.54323   0.59990   0.67916   0.00000  Uiso   1.00
C1193  C     0.62703   0.59673   0.69542   0.00000  Uiso   1.00
H1194  H     0.63383   0.57555   0.99993   0.00000  Uiso   1.00
H1195  H     0.63162   0.62897   0.68343   0.00000  Uiso   1.00
H1196  H     0.65631   0.59075   0.72655   0.00000  Uiso   1.00
C1197  C     0.83300   0.42071   0.83335   0.00000  Uiso   1.00
C1198  C     0.83308   0.57930   0.83327   0.00000  Uiso   1.00
C1199  C     0.73460   0.50011   0.82127   0.00000  Uiso   1.00
C1200  C     0.93206   0.50044   0.84538   0.00000  Uiso   1.00
C1201  C     0.67934   0.50005   0.81458   0.00000  Uiso   1.00
C1202  C     0.98730   0.50146   0.85196   0.00000  Uiso   1.00
C1203  C     0.82331   0.35473   0.79051   0.00000  Uiso   1.00
C1204  C     0.84105   0.64528   0.87616   0.00000  Uiso   1.00
C1205  C     0.82309   0.64545   0.79048   0.00000  Uiso   1.00
C1206  C     0.84088   0.35455   0.87622   0.00000  Uiso   1.00
C1207  C     0.83246   0.62391   0.83326   0.00000  Uiso   1.00
C1208  C     0.83239   0.37609   0.83337   0.00000  Uiso   1.00
C1209  C     0.80162   0.47404   0.68782   0.00000  Uiso   1.00
C1210  C     0.86573   0.52539   0.97896   0.00000  Uiso   1.00
C1211  C     0.80066   0.47416   0.97090   0.00000  Uiso   1.00
C1212  C     0.86541   0.52620   0.69560   0.00000  Uiso   1.00
Cu1213 Cu    0.83333   0.50001   0.88022   0.00000  Uiso   1.00
Cu1214 Cu    0.83333   0.49999   0.78645   0.00000  Uiso   1.00
H1215  H     0.99279   0.49853   0.77867   0.00000  Uiso   1.00
H1216  H     0.67384   0.50347   0.88781   0.00000  Uiso   1.00
H1217  H     0.81609   0.37087   0.75706   0.00000  Uiso   1.00
H1218  H     0.84829   0.62916   0.90962   0.00000  Uiso   1.00
H1219  H     0.81540   0.62945   0.75706   0.00000  Uiso   1.00
H1220  H     0.84790   0.37054   0.90970   0.00000  Uiso   1.00
H1221  H     0.77786   0.45291   0.70478   0.00000  Uiso   1.00
H1222  H     0.89222   0.54460   0.96263   0.00000  Uiso   1.00
N1223  N     0.83335   0.50001   0.95069   0.00000  Uiso   1.00
N1224  N     0.83332   0.49999   0.71597   0.00000  Uiso   1.00
O1225  O     0.83333   0.43989   0.87291   0.00000  Uiso   1.00
O1226  O     0.83334   0.56011   0.79375   0.00000  Uiso   1.00
O1227  O     0.83333   0.43988   0.79372   0.00000  Uiso   1.00
O1228  O     0.83334   0.56012   0.87294   0.00000  Uiso   1.00
O1229  O     0.75828   0.50000   0.86379   0.00000  Uiso   1.00
O1230  O     0.90839   0.50000   0.80288   0.00000  Uiso   1.00
O1231  O     0.75828   0.49999   0.78460   0.00000  Uiso   1.00
O1232  O     0.90839   0.50001   0.88207   0.00000  Uiso   1.00
O1233  O     0.77166   0.44595   0.94154   0.00000  Uiso   1.00
C1234  C     0.72299   0.43620   0.95529   0.00000  Uiso   1.00
H1235  H     0.69417   0.43650   0.92304   0.00000  Uiso   1.00
H1236  H     0.70901   0.45890   0.97967   0.00000  Uiso   1.00
C1237  C     0.72329   0.39265   0.97553   0.00000  Uiso   1.00
H1238  H     0.68487   0.38512   0.98584   0.00000  Uiso   1.00
H1239  H     0.73193   0.37020   0.94850   0.00000  Uiso   1.00
H1240  H     0.75285   0.38965   0.67366   0.00000  Uiso   1.00
O1241  O     0.90074   0.54964   0.72523   0.00000  Uiso   1.00
C1242  C     0.90638   0.59041   0.70874   0.00000  Uiso   1.00
H1243  H     0.90238   0.61166   0.73831   0.00000  Uiso   1.00
H1244  H     0.87656   0.59990   0.67916   0.00000  Uiso   1.00
C1245  C     0.96036   0.59673   0.69542   0.00000  Uiso   1.00
H1246  H     0.96716   0.57555   0.99993   0.00000  Uiso   1.00
H1247  H     0.96496   0.62897   0.68343   0.00000  Uiso   1.00
H1248  H     0.98964   0.59075   0.72655   0.00000  Uiso   1.00
C1249  C     0.16634   0.75404   0.83335   0.00000  Uiso   1.00
C1250  C     0.16642   0.91263   0.83327   0.00000  Uiso   1.00
C1251  C     0.06793   0.83345   0.82127   0.00000  Uiso   1.00
C1252  C     0.26539   0.83377   0.84538   0.00000  Uiso   1.00
C1253  C     0.01267   0.83339   0.81458   0.00000  Uiso   1.00
C1254  C     0.32063   0.83479   0.85196   0.00000  Uiso   1.00
C1255  C     0.15664   0.68806   0.79051   0.00000  Uiso   1.00
C1256  C     0.17439   0.97861   0.87616   0.00000  Uiso   1.00
C1257  C     0.15643   0.97878   0.79048   0.00000  Uiso   1.00
C1258  C     0.17422   0.68788   0.87622   0.00000  Uiso   1.00
C1259  C     0.16579   0.95725   0.83326   0.00000  Uiso   1.00
C1260  C     0.16573   0.70942   0.83337   0.00000  Uiso   1.00
C1261  C     0.13495   0.80738   0.68782   0.00000  Uiso   1.00
C1262  C     0.19906   0.85872   0.97896   0.00000  Uiso   1.00
C1263  C     0.13399   0.80749   0.97090   0.00000  Uiso   1.00
C1264  C     0.19875   0.85953   0.69560   0.00000  Uiso   1.00
Cu1265 Cu    0.16667   0.83334   0.88022   0.00000  Uiso   1.00
Cu1266 Cu    0.16667   0.83333   0.78645   0.00000  Uiso   1.00
H1267  H     0.32612   0.83186   0.77867   0.00000  Uiso   1.00
H1268  H     0.00717   0.83680   0.88781   0.00000  Uiso   1.00
H1269  H     0.14942   0.70420   0.75706   0.00000  Uiso   1.00
H1270  H     0.18163   0.96249   0.90962   0.00000  Uiso   1.00
H1271  H     0.14874   0.96278   0.75706   0.00000  Uiso   1.00
H1272  H     0.18124   0.70388   0.90970   0.00000  Uiso   1.00
H1273  H     0.11119   0.78625   0.70478   0.00000  Uiso   1.00
H1274  H     0.22556   0.87793   0.96263   0.00000  Uiso   1.00
N1275  N     0.16668   0.83334   0.95069   0.00000  Uiso   1.00
N1276  N     0.16665   0.83332   0.71597   0.00000  Uiso   1.00
O1277  O     0.16666   0.77322   0.87291   0.00000  Uiso   1.00
O1278  O     0.16667   0.89345   0.79375   0.00000  Uiso   1.00
O1279  O     0.16666   0.77321   0.79372   0.00000  Uiso   1.00
O1280  O     0.16667   0.89346   0.87294   0.00000  Uiso   1.00
O1281  O     0.09161   0.83334   0.86379   0.00000  Uiso   1.00
O1282  O     0.24172   0.83333   0.80288   0.00000  Uiso   1.00
O1283  O     0.09161   0.83333   0.78460   0.00000  Uiso   1.00
O1284  O     0.24172   0.83334   0.88207   0.00000  Uiso   1.00
O1285  O     0.10499   0.77928   0.94154   0.00000  Uiso   1.00
C1286  C     0.05633   0.76954   0.95529   0.00000  Uiso   1.00
H1287  H     0.02750   0.76984   0.92304   0.00000  Uiso   1.00
H1288  H     0.04234   0.79224   0.97967   0.00000  Uiso   1.00
C1289  C     0.05662   0.72598   0.97553   0.00000  Uiso   1.00
H1290  H     0.01821   0.71845   0.98584   0.00000  Uiso   1.00
H1291  H     0.06527   0.70353   0.94850   0.00000  Uiso   1.00
H1292  H     0.08618   0.72298   0.67366   0.00000  Uiso   1.00
O1293  O     0.23407   0.88298   0.72523   0.00000  Uiso   1.00
C1294  C     0.23971   0.92375   0.70874   0.00000  Uiso   1.00
H1295  H     0.23571   0.94499   0.73831   0.00000  Uiso   1.00
H1296  H     0.20990   0.93324   0.67916   0.00000  Uiso   1.00
C1297  C     0.29369   0.93007   0.69542   0.00000  Uiso   1.00
H1298  H     0.30049   0.90888   0.99993   0.00000  Uiso   1.00
H1299  H     0.29829   0.96230   0.68343   0.00000  Uiso   1.00
H1300  H     0.32297   0.92409   0.72655   0.00000  Uiso   1.00
C1301  C     0.49967   0.75404   0.83335   0.00000  Uiso   1.00
C1302  C     0.49975   0.91263   0.83327   0.00000  Uiso   1.00
C1303  C     0.40127   0.83345   0.82127   0.00000  Uiso   1.00
C1304  C     0.59872   0.83377   0.84538   0.00000  Uiso   1.00
C1305  C     0.34601   0.83339   0.81458   0.00000  Uiso   1.00
C1306  C     0.65396   0.83479   0.85196   0.00000  Uiso   1.00
C1307  C     0.48997   0.68806   0.79051   0.00000  Uiso   1.00
C1308  C     0.50772   0.97861   0.87616   0.00000  Uiso   1.00
C1309  C     0.48976   0.97878   0.79048   0.00000  Uiso   1.00
C1310  C     0.50755   0.68788   0.87622   0.00000  Uiso   1.00
C1311  C     0.49913   0.95725   0.83326   0.00000  Uiso   1.00
C1312  C     0.49906   0.70942   0.83337   0.00000  Uiso   1.00
C1313  C     0.46828   0.80738   0.68782   0.00000  Uiso   1.00
C1314  C     0.53240   0.85872   0.97896   0.00000  Uiso   1.00
C1315  C     0.46732   0.80749   0.97090   0.00000  Uiso   1.00
C1316  C     0.53208   0.85953   0.69560   0.00000  Uiso   1.00
Cu1317 Cu    0.50000   0.83334   0.88022   0.00000  Uiso   1.00
Cu1318 Cu    0.50000   0.83333   0.78645   0.00000  Uiso   1.00
H1319  H     0.65946   0.83186   0.77867   0.00000  Uiso   1.00
H1320  H     0.34051   0.83680   0.88781   0.00000  Uiso   1.00
H1321  H     0.48276   0.70420   0.75706   0.00000  Uiso   1.00
H1322  H     0.51496   0.96249   0.90962   0.00000  Uiso   1.00
H1323  H     0.48207   0.96278   0.75706   0.00000  Uiso   1.00
H1324  H     0.51457   0.70388   0.90970   0.00000  Uiso   1.00
H1325  H     0.44452   0.78625   0.70478   0.00000  Uiso   1.00
H1326  H     0.55889   0.87793   0.96263   0.00000  Uiso   1.00
N1327  N     0.50001   0.83334   0.95069   0.00000  Uiso   1.00
N1328  N     0.49999   0.83332   0.71597   0.00000  Uiso   1.00
O1329  O     0.50000   0.77322   0.87291   0.00000  Uiso   1.00
O1330  O     0.50000   0.89345   0.79375   0.00000  Uiso   1.00
O1331  O     0.50000   0.77321   0.79372   0.00000  Uiso   1.00
O1332  O     0.50000   0.89346   0.87294   0.00000  Uiso   1.00
O1333  O     0.42495   0.83334   0.86379   0.00000  Uiso   1.00
O1334  O     0.57505   0.83333   0.80288   0.00000  Uiso   1.00
O1335  O     0.42494   0.83333   0.78460   0.00000  Uiso   1.00
O1336  O     0.57506   0.83334   0.88207   0.00000  Uiso   1.00
O1337  O     0.43833   0.77928   0.94154   0.00000  Uiso   1.00
C1338  C     0.38966   0.76954   0.95529   0.00000  Uiso   1.00
H1339  H     0.36084   0.76984   0.92304   0.00000  Uiso   1.00
H1340  H     0.37567   0.79224   0.97967   0.00000  Uiso   1.00
C1341  C     0.38996   0.72598   0.97553   0.00000  Uiso   1.00
H1342  H     0.35154   0.71845   0.98584   0.00000  Uiso   1.00
H1343  H     0.39860   0.70353   0.94850   0.00000  Uiso   1.00
H1344  H     0.41952   0.72298   0.67366   0.00000  Uiso   1.00
O1345  O     0.56740   0.88298   0.72523   0.00000  Uiso   1.00
C1346  C     0.57305   0.92375   0.70874   0.00000  Uiso   1.00
H1347  H     0.56905   0.94499   0.73831   0.00000  Uiso   1.00
H1348  H     0.54323   0.93324   0.67916   0.00000  Uiso   1.00
C1349  C     0.62703   0.93007   0.69542   0.00000  Uiso   1.00
H1350  H     0.63383   0.90888   0.99993   0.00000  Uiso   1.00
H1351  H     0.63162   0.96230   0.68343   0.00000  Uiso   1.00
H1352  H     0.65631   0.92409   0.72655   0.00000  Uiso   1.00
C1353  C     0.83300   0.75404   0.83335   0.00000  Uiso   1.00
C1354  C     0.83308   0.91263   0.83327   0.00000  Uiso   1.00
C1355  C     0.73460   0.83345   0.82127   0.00000  Uiso   1.00
C1356  C     0.93206   0.83377   0.84538   0.00000  Uiso   1.00
C1357  C     0.67934   0.83339   0.81458   0.00000  Uiso   1.00
C1358  C     0.98730   0.83479   0.85196   0.00000  Uiso   1.00
C1359  C     0.82331   0.68806   0.79051   0.00000  Uiso   1.00
C1360  C     0.84105   0.97861   0.87616   0.00000  Uiso   1.00
C1361  C     0.82309   0.97878   0.79048   0.00000  Uiso   1.00
C1362  C     0.84088   0.68788   0.87622   0.00000  Uiso   1.00
C1363  C     0.83246   0.95725   0.83326   0.00000  Uiso   1.00
C1364  C     0.83239   0.70942   0.83337   0.00000  Uiso   1.00
C1365  C     0.80162   0.80738   0.68782   0.00000  Uiso   1.00
C1366  C     0.86573   0.85872   0.97896   0.00000  Uiso   1.00
C1367  C     0.80066   0.80749   0.97090   0.00000  Uiso   1.00
C1368  C     0.86541   0.85953   0.69560   0.00000  Uiso   1.00
Cu1369 Cu    0.83333   0.83334   0.88022   0.00000  Uiso   1.00
Cu1370 Cu    0.83333   0.83333   0.78645   0.00000  Uiso   1.00
H1371  H     0.99279   0.83186   0.77867   0.00000  Uiso   1.00
H1372  H     0.67384   0.83680   0.88781   0.00000  Uiso   1.00
H1373  H     0.81609   0.70420   0.75706   0.00000  Uiso   1.00
H1374  H     0.84829   0.96249   0.90962   0.00000  Uiso   1.00
H1375  H     0.81540   0.96278   0.75706   0.00000  Uiso   1.00
H1376  H     0.84790   0.70388   0.90970   0.00000  Uiso   1.00
H1377  H     0.77786   0.78625   0.70478   0.00000  Uiso   1.00
H1378  H     0.89222   0.87793   0.96263   0.00000  Uiso   1.00
N1379  N     0.83335   0.83334   0.95069   0.00000  Uiso   1.00
N1380  N     0.83332   0.83332   0.71597   0.00000  Uiso   1.00
O1381  O     0.83333   0.77322   0.87291   0.00000  Uiso   1.00
O1382  O     0.83334   0.89345   0.79375   0.00000  Uiso   1.00
O1383  O     0.83333   0.77321   0.79372   0.00000  Uiso   1.00
O1384  O     0.83334   0.89346   0.87294   0.00000  Uiso   1.00
O1385  O     0.75828   0.83334   0.86379   0.00000  Uiso   1.00
O1386  O     0.90839   0.83333   0.80288   0.00000  Uiso   1.00
O1387  O     0.75828   0.83333   0.78460   0.00000  Uiso   1.00
O1388  O     0.90839   0.83334   0.88207   0.00000  Uiso   1.00
O1389  O     0.77166   0.77928   0.94154   0.00000  Uiso   1.00
C1390  C     0.72299   0.76954   0.95529   0.00000  Uiso   1.00
H1391  H     0.69417   0.76984   0.92304   0.00000  Uiso   1.00
H1392  H     0.70901   0.79224   0.97967   0.00000  Uiso   1.00
C1393  C     0.72329   0.72598   0.97553   0.00000  Uiso   1.00
H1394  H     0.68487   0.71845   0.98584   0.00000  Uiso   1.00
H1395  H     0.73193   0.70353   0.94850   0.00000  Uiso   1.00
H1396  H     0.75285   0.72298   0.67366   0.00000  Uiso   1.00
O1397  O     0.90074   0.88298   0.72523   0.00000  Uiso   1.00
C1398  C     0.90638   0.92375   0.70874   0.00000  Uiso   1.00
H1399  H     0.90238   0.94499   0.73831   0.00000  Uiso   1.00
H1400  H     0.87656   0.93324   0.67916   0.00000  Uiso   1.00
C1401  C     0.96036   0.93007   0.69542   0.00000  Uiso   1.00
H1402  H     0.96716   0.90888   0.99993   0.00000  Uiso   1.00
H1403  H     0.96496   0.96230   0.68343   0.00000  Uiso   1.00
H1404  H     0.98964   0.92409   0.72655   0.00000  Uiso   1.00
loop_
_geom_bond_atom_site_label_1
_geom_bond_atom_site_label_2
_geom_bond_distance
_geom_bond_site_symmetry_2
_ccdc_geom_bond_type
C1     O29     1.292   .     A
C1     C12     1.449   .     S
C1     O31     1.291   .     A
C2     O30     1.293   .     A
C2     C11     1.449   .     S
C2     O32     1.291   .     A
C3     O35     1.288   .     A
C3     O33     1.288   .     A
C3     C5      1.433   .     S
C4     O36     1.288   .     A
C4     O34     1.287   .     A
C4     C6      1.433   .     S
C5     C110    1.334   1_455 S
C5     H123    1.087   1_455 S
C6     C57     1.334   .     S
C6     H72     1.087   .     S
C7     C12     1.401   .     A
C7     H21     1.083   .     S
C7     C321    1.383   1_545 S
C8     H22     1.084   .     S
C8     C11     1.402   .     A
C8     C166    1.383   .     S
C9     C11     1.400   .     A
C9     H23     1.083   .     S
C9     C163    1.383   .     S
C10    C12     1.401   .     A
C10    H24     1.083   .     S
C10    C320    1.383   1_545 S
C13    N28     1.363   .     A
C13    H25     1.079   .     S
C13    C951    1.434   1_554 S
C14    N27     1.363   .     A
C14    H26     1.080   .     S
C14    C484    1.430   .     S
C15    N27     1.374   .     A
C15    O37     1.393   .     S
C15    C481    1.434   .     S
C16    O45     1.390   .     S
C16    N28     1.373   .     A
C16    C950    1.430   1_554 S
Cu17   O36     1.959   .     S
Cu17   O29     1.964   .     S
Cu17   Cu18    2.681   .     S
Cu17   O33     1.957   .     S
Cu17   N27     2.015   .     S
Cu17   O32     1.962   .     S
Cu18   N28     2.015   .     S
Cu18   O34     1.957   .     S
Cu18   O30     1.964   .     S
Cu18   O35     1.959   .     S
Cu18   O31     1.962   .     S
H19    C57     1.087   .     S
H20    C110    1.087   1_455 S
O37    C38     1.416   .     S
C38    H40     1.114   .     S
C38    H39     1.110   .     S
C38    C41     1.526   .     S
C41    H42     1.110   .     S
C41    H43     1.111   .     S
C41    H512    1.109   .     S
H44    C977    1.109   1_554 S
O45    C46     1.417   .     S
C46    C49     1.525   .     S
C46    H48     1.115   .     S
C46    H47     1.110   .     S
C49    H52     1.111   .     S
C49    H51     1.111   .     S
C49    H986    1.109   1_554 S
H50    C517    1.109   .     S
C53    O81     1.292   .     A
C53    C64     1.449   .     S
C53    O83     1.291   .     A
C54    O82     1.293   .     A
C54    C63     1.449   .     S
C54    O84     1.291   .     A
C55    O87     1.288   .     A
C55    O85     1.288   .     A
C55    C57     1.433   .     S
C56    O88     1.288   .     A
C56    O86     1.287   .     A
C56    C58     1.433   .     S
C58    C109    1.334   .     S
C58    H124    1.087   .     S
C59    C64     1.401   .     A
C59    H73     1.083   .     S
C59    C373    1.383   1_545 S
C60    H74     1.084   .     S
C60    C63     1.402   .     A
C60    C218    1.383   .     S
C61    C63     1.400   .     A
C61    H75     1.083   .     S
C61    C215    1.383   .     S
C62    C64     1.401   .     A
C62    H76     1.083   .     S
C62    C372    1.383   1_545 S
C65    N80     1.363   .     A
C65    H77     1.079   .     S
C65    C1003   1.434   1_554 S
C66    N79     1.363   .     A
C66    H78     1.080   .     S
C66    C536    1.430   .     S
C67    N79     1.374   .     A
C67    O89     1.393   .     S
C67    C533    1.434   .     S
C68    O97     1.390   .     S
C68    N80     1.373   .     A
C68    C1002   1.430   1_554 S
Cu69   O88     1.959   .     S
Cu69   O81     1.964   .     S
Cu69   Cu70    2.681   .     S
Cu69   O85     1.957   .     S
Cu69   N79     2.015   .     S
Cu69   O84     1.962   .     S
Cu70   N80     2.015   .     S
Cu70   O86     1.957   .     S
Cu70   O82     1.964   .     S
Cu70   O87     1.959   .     S
Cu70   O83     1.962   .     S
H71    C109    1.087   .     S
O89    C90     1.416   .     S
C90    H92     1.114   .     S
C90    H91     1.110   .     S
C90    C93     1.526   .     S
C93    H94     1.110   .     S
C93    H95     1.111   .     S
C93    H564    1.109   .     S
H96    C1029   1.109   1_554 S
O97    C98     1.417   .     S
C98    C101    1.525   .     S
C98    H100    1.115   .     S
C98    H99     1.110   .     S
C101   H104    1.111   .     S
C101   H103    1.111   .     S
C101   H1038   1.109   1_554 S
H102   C569    1.109   .     S
C105   O133    1.292   .     A
C105   C116    1.449   .     S
C105   O135    1.291   .     A
C106   O134    1.293   .     A
C106   C115    1.449   .     S
C106   O136    1.291   .     A
C107   O139    1.288   .     A
C107   O137    1.288   .     A
C107   C109    1.433   .     S
C108   O140    1.288   .     A
C108   O138    1.287   .     A
C108   C110    1.433   .     S
C110   C5      1.334   1_655 S
C110   H20     1.087   1_655 S
C111   C116    1.401   .     A
C111   H125    1.083   .     S
C111   C425    1.383   1_545 S
C112   H126    1.084   .     S
C112   C115    1.402   .     A
C112   C270    1.383   .     S
C113   C115    1.400   .     A
C113   H127    1.083   .     S
C113   C267    1.383   .     S
C114   C116    1.401   .     A
C114   H128    1.083   .     S
C114   C424    1.383   1_545 S
C117   N132    1.363   .     A
C117   H129    1.079   .     S
C117   C1055   1.434   1_554 S
C118   N131    1.363   .     A
C118   H130    1.080   .     S
C118   C588    1.430   .     S
C119   N131    1.374   .     A
C119   O141    1.393   .     S
C119   C585    1.434   .     S
C120   O149    1.390   .     S
C120   N132    1.373   .     A
C120   C1054   1.430   1_554 S
Cu121  O140    1.959   .     S
Cu121  O133    1.964   .     S
Cu121  Cu122   2.681   .     S
Cu121  O137    1.957   .     S
Cu121  N131    2.015   .     S
Cu121  O136    1.962   .     S
Cu122  N132    2.015   .     S
Cu122  O138    1.957   .     S
Cu122  O134    1.964   .     S
Cu122  O139    1.959   .     S
Cu122  O135    1.962   .     S
H123   C5      1.087   1_655 S
O141   C142    1.416   .     S
C142   H144    1.114   .     S
C142   H143    1.110   .     S
C142   C145    1.526   .     S
C145   H146    1.110   .     S
C145   H147    1.111   .     S
C145   H616    1.109   .     S
H148   C1081   1.109   1_554 S
O149   C150    1.417   .     S
C150   C153    1.525   .     S
C150   H152    1.115   .     S
C150   H151    1.110   .     S
C153   H156    1.111   .     S
C153   H155    1.111   .     S
C153   H1090   1.109   1_554 S
H154   C621    1.109   .     S
C157   O185    1.292   .     A
C157   C168    1.449   .     S
C157   O187    1.291   .     A
C158   O186    1.293   .     A
C158   C167    1.449   .     S
C158   O188    1.291   .     A
C159   O191    1.288   .     A
C159   O189    1.288   .     A
C159   C161    1.433   .     S
C160   O192    1.288   .     A
C160   O190    1.287   .     A
C160   C162    1.433   .     S
C161   C266    1.334   1_455 S
C161   H279    1.087   1_455 S
C162   C213    1.334   .     S
C162   H228    1.087   .     S
C163   C168    1.401   .     A
C163   H177    1.083   .     S
C164   H178    1.084   .     S
C164   C167    1.402   .     A
C164   C322    1.383   .     S
C165   C167    1.400   .     A
C165   H179    1.083   .     S
C165   C319    1.383   .     S
C166   C168    1.401   .     A
C166   H180    1.083   .     S
C169   N184    1.363   .     A
C169   H181    1.079   .     S
C169   C1107   1.434   1_554 S
C170   N183    1.363   .     A
C170   H182    1.080   .     S
C170   C640    1.430   .     S
C171   N183    1.374   .     A
C171   O193    1.393   .     S
C171   C637    1.434   .     S
C172   O201    1.390   .     S
C172   N184    1.373   .     A
C172   C1106   1.430   1_554 S
Cu173  O192    1.959   .     S
Cu173  O185    1.964   .     S
Cu173  Cu174   2.681   .     S
Cu173  O189    1.957   .     S
Cu173  N183    2.015   .     S
Cu173  O188    1.962   .     S
Cu174  N184    2.015   .     S
Cu174  O190    1.957   .     S
Cu174  O186    1.964   .     S
Cu174  O191    1.959   .     S
Cu174  O187    1.962   .     S
H175   C213    1.087   .     S
H176   C266    1.087   1_455 S
O193   C194    1.416   .     S
C194   H196    1.114   .     S
C194   H195    1.110   .     S
C194   C197    1.526   .     S
C197   H198    1.110   .     S
C197   H199    1.111   .     S
C197   H668    1.109   .     S
H200   C1133   1.109   1_554 S
O201   C202    1.417   .     S
C202   C205    1.525   .     S
C202   H204    1.115   .     S
C202   H203    1.110   .     S
C205   H208    1.111   .     S
C205   H207    1.111   .     S
C205   H1142   1.109   1_554 S
H206   C673    1.109   .     S
C209   O237    1.292   .     A
C209   C220    1.449   .     S
C209   O239    1.291   .     A
C210   O238    1.293   .     A
C210   C219    1.449   .     S
C210   O240    1.291   .     A
C211   O243    1.288   .     A
C211   O241    1.288   .     A
C211   C213    1.433   .     S
C212   O244    1.288   .     A
C212   O242    1.287   .     A
C212   C214    1.433   .     S
C214   C265    1.334   .     S
C214   H280    1.087   .     S
C215   C220    1.401   .     A
C215   H229    1.083   .     S
C216   H230    1.084   .     S
C216   C219    1.402   .     A
C216   C374    1.383   .     S
C217   C219    1.400   .     A
C217   H231    1.083   .     S
C217   C371    1.383   .     S
C218   C220    1.401   .     A
C218   H232    1.083   .     S
C221   N236    1.363   .     A
C221   H233    1.079   .     S
C221   C1159   1.434   1_554 S
C222   N235    1.363   .     A
C222   H234    1.080   .     S
C222   C692    1.430   .     S
C223   N235    1.374   .     A
C223   O245    1.393   .     S
C223   C689    1.434   .     S
C224   O253    1.390   .     S
C224   N236    1.373   .     A
C224   C1158   1.430   1_554 S
Cu225  O244    1.959   .     S
Cu225  O237    1.964   .     S
Cu225  Cu226   2.681   .     S
Cu225  O241    1.957   .     S
Cu225  N235    2.015   .     S
Cu225  O240    1.962   .     S
Cu226  N236    2.015   .     S
Cu226  O242    1.957   .     S
Cu226  O238    1.964   .     S
Cu226  O243    1.959   .     S
Cu226  O239    1.962   .     S
H227   C265    1.087   .     S
O245   C246    1.416   .     S
C246   H248    1.114   .     S
C246   H247    1.110   .     S
C246   C249    1.526   .     S
C249   H250    1.110   .     S
C249   H251    1.111   .     S
C249   H720    1.109   .     S
H252   C1185   1.109   1_554 S
O253   C254    1.417   .     S
C254   C257    1.525   .     S
C254   H256    1.115   .     S
C254   H255    1.110   .     S
C257   H260    1.111   .     S
C257   H259    1.111   .     S
C257   H1194   1.109   1_554 S
H258   C725    1.109   .     S
C261   O289    1.292   .     A
C261   C272    1.449   .     S
C261   O291    1.291   .     A
C262   O290    1.293   .     A
C262   C271    1.449   .     S
C262   O292    1.291   .     A
C263   O295    1.288   .     A
C263   O293    1.288   .     A
C263   C265    1.433   .     S
C264   O296    1.288   .     A
C264   O294    1.287   .     A
C264   C266    1.433   .     S
C266   C161    1.334   1_655 S
C266   H176    1.087   1_655 S
C267   C272    1.401   .     A
C267   H281    1.083   .     S
C268   H282    1.084   .     S
C268   C271    1.402   .     A
C268   C426    1.383   .     S
C269   C271    1.400   .     A
C269   H283    1.083   .     S
C269   C423    1.383   .     S
C270   C272    1.401   .     A
C270   H284    1.083   .     S
C273   N288    1.363   .     A
C273   H285    1.079   .     S
C273   C1211   1.434   1_554 S
C274   N287    1.363   .     A
C274   H286    1.080   .     S
C274   C744    1.430   .     S
C275   N287    1.374   .     A
C275   O297    1.393   .     S
C275   C741    1.434   .     S
C276   O305    1.390   .     S
C276   N288    1.373   .     A
C276   C1210   1.430   1_554 S
Cu277  O296    1.959   .     S
Cu277  O289    1.964   .     S
Cu277  Cu278   2.681   .     S
Cu277  O293    1.957   .     S
Cu277  N287    2.015   .     S
Cu277  O292    1.962   .     S
Cu278  N288    2.015   .     S
Cu278  O294    1.957   .     S
Cu278  O290    1.964   .     S
Cu278  O295    1.959   .     S
Cu278  O291    1.962   .     S
H279   C161    1.087   1_655 S
O297   C298    1.416   .     S
C298   H300    1.114   .     S
C298   H299    1.110   .     S
C298   C301    1.526   .     S
C301   H302    1.110   .     S
C301   H303    1.111   .     S
C301   H772    1.109   .     S
H304   C1237   1.109   1_554 S
O305   C306    1.417   .     S
C306   C309    1.525   .     S
C306   H308    1.115   .     S
C306   H307    1.110   .     S
C309   H312    1.111   .     S
C309   H311    1.111   .     S
C309   H1246   1.109   1_554 S
H310   C777    1.109   .     S
C313   O341    1.292   .     A
C313   C324    1.449   .     S
C313   O343    1.291   .     A
C314   O342    1.293   .     A
C314   C323    1.449   .     S
C314   O344    1.291   .     A
C315   O347    1.288   .     A
C315   O345    1.288   .     A
C315   C317    1.433   .     S
C316   O348    1.288   .     A
C316   O346    1.287   .     A
C316   C318    1.433   .     S
C317   C422    1.334   1_455 S
C317   H435    1.087   1_455 S
C318   C369    1.334   .     S
C318   H384    1.087   .     S
C319   C324    1.401   .     A
C319   H333    1.083   .     S
C320   H334    1.084   .     S
C320   C323    1.402   .     A
C320   C10     1.383   1_565 S
C321   C323    1.400   .     A
C321   H335    1.083   .     S
C321   C7      1.383   1_565 S
C322   C324    1.401   .     A
C322   H336    1.083   .     S
C325   N340    1.363   .     A
C325   H337    1.079   .     S
C325   C1263   1.434   1_554 S
C326   N339    1.363   .     A
C326   H338    1.080   .     S
C326   C796    1.430   .     S
C327   N339    1.374   .     A
C327   O349    1.393   .     S
C327   C793    1.434   .     S
C328   O357    1.390   .     S
C328   N340    1.373   .     A
C328   C1262   1.430   1_554 S
Cu329  O348    1.959   .     S
Cu329  O341    1.964   .     S
Cu329  Cu330   2.681   .     S
Cu329  O345    1.957   .     S
Cu329  N339    2.015   .     S
Cu329  O344    1.962   .     S
Cu330  N340    2.015   .     S
Cu330  O346    1.957   .     S
Cu330  O342    1.964   .     S
Cu330  O347    1.959   .     S
Cu330  O343    1.962   .     S
H331   C369    1.087   .     S
H332   C422    1.087   1_455 S
O349   C350    1.416   .     S
C350   H352    1.114   .     S
C350   H351    1.110   .     S
C350   C353    1.526   .     S
C353   H354    1.110   .     S
C353   H355    1.111   .     S
C353   H824    1.109   .     S
H356   C1289   1.109   1_554 S
O357   C358    1.417   .     S
C358   C361    1.525   .     S
C358   H360    1.115   .     S
C358   H359    1.110   .     S
C361   H364    1.111   .     S
C361   H363    1.111   .     S
C361   H1298   1.109   1_554 S
H362   C829    1.109   .     S
C365   O393    1.292   .     A
C365   C376    1.449   .     S
C365   O395    1.291   .     A
C366   O394    1.293   .     A
C366   C375    1.449   .     S
C366   O396    1.291   .     A
C367   O399    1.288   .     A
C367   O397    1.288   .     A
C367   C369    1.433   .     S
C368   O400    1.288   .     A
C368   O398    1.287   .     A
C368   C370    1.433   .     S
C370   C421    1.334   .     S
C370   H436    1.087   .     S
C371   C376    1.401   .     A
C371   H385    1.083   .     S
C372   H386    1.084   .     S
C372   C375    1.402   .     A
C372   C62     1.383   1_565 S
C373   C375    1.400   .     A
C373   H387    1.083   .     S
C373   C59     1.383   1_565 S
C374   C376    1.401   .     A
C374   H388    1.083   .     S
C377   N392    1.363   .     A
C377   H389    1.079   .     S
C377   C1315   1.434   1_554 S
C378   N391    1.363   .     A
C378   H390    1.080   .     S
C378   C848    1.430   .     S
C379   N391    1.374   .     A
C379   O401    1.393   .     S
C379   C845    1.434   .     S
C380   O409    1.390   .     S
C380   N392    1.373   .     A
C380   C1314   1.430   1_554 S
Cu381  O400    1.959   .     S
Cu381  O393    1.964   .     S
Cu381  Cu382   2.681   .     S
Cu381  O397    1.957   .     S
Cu381  N391    2.015   .     S
Cu381  O396    1.962   .     S
Cu382  N392    2.015   .     S
Cu382  O398    1.957   .     S
Cu382  O394    1.964   .     S
Cu382  O399    1.959   .     S
Cu382  O395    1.962   .     S
H383   C421    1.087   .     S
O401   C402    1.416   .     S
C402   H404    1.114   .     S
C402   H403    1.110   .     S
C402   C405    1.526   .     S
C405   H406    1.110   .     S
C405   H407    1.111   .     S
C405   H876    1.109   .     S
H408   C1341   1.109   1_554 S
O409   C410    1.417   .     S
C410   C413    1.525   .     S
C410   H412    1.115   .     S
C410   H411    1.110   .     S
C413   H416    1.111   .     S
C413   H415    1.111   .     S
C413   H1350   1.109   1_554 S
H414   C881    1.109   .     S
C417   O445    1.292   .     A
C417   C428    1.449   .     S
C417   O447    1.291   .     A
C418   O446    1.293   .     A
C418   C427    1.449   .     S
C418   O448    1.291   .     A
C419   O451    1.288   .     A
C419   O449    1.288   .     A
C419   C421    1.433   .     S
C420   O452    1.288   .     A
C420   O450    1.287   .     A
C420   C422    1.433   .     S
C422   C317    1.334   1_655 S
C422   H332    1.087   1_655 S
C423   C428    1.401   .     A
C423   H437    1.083   .     S
C424   H438    1.084   .     S
C424   C427    1.402   .     A
C424   C114    1.383   1_565 S
C425   C427    1.400   .     A
C425   H439    1.083   .     S
C425   C111    1.383   1_565 S
C426   C428    1.401   .     A
C426   H440    1.083   .     S
C429   N444    1.363   .     A
C429   H441    1.079   .     S
C429   C1367   1.434   1_554 S
C430   N443    1.363   .     A
C430   H442    1.080   .     S
C430   C900    1.430   .     S
C431   N443    1.374   .     A
C431   O453    1.393   .     S
C431   C897    1.434   .     S
C432   O461    1.390   .     S
C432   N444    1.373   .     A
C432   C1366   1.430   1_554 S
Cu433  O452    1.959   .     S
Cu433  O445    1.964   .     S
Cu433  Cu434   2.681   .     S
Cu433  O449    1.957   .     S
Cu433  N443    2.015   .     S
Cu433  O448    1.962   .     S
Cu434  N444    2.015   .     S
Cu434  O450    1.957   .     S
Cu434  O446    1.964   .     S
Cu434  O451    1.959   .     S
Cu434  O447    1.962   .     S
H435   C317    1.087   1_655 S
O453   C454    1.416   .     S
C454   H456    1.114   .     S
C454   H455    1.110   .     S
C454   C457    1.526   .     S
C457   H458    1.110   .     S
C457   H459    1.111   .     S
C457   H928    1.109   .     S
H460   C1393   1.109   1_554 S
O461   C462    1.417   .     S
C462   C465    1.525   .     S
C462   H464    1.115   .     S
C462   H463    1.110   .     S
C465   H468    1.111   .     S
C465   H467    1.111   .     S
C465   H1402   1.109   1_554 S
H466   C933    1.109   .     S
C469   O497    1.292   .     A
C469   C480    1.449   .     S
C469   O499    1.291   .     A
C470   O498    1.293   .     A
C470   C479    1.449   .     S
C470   O500    1.291   .     A
C471   O503    1.288   .     A
C471   O501    1.288   .     A
C471   C473    1.433   .     S
C472   O504    1.288   .     A
C472   O502    1.287   .     A
C472   C474    1.433   .     S
C473   C578    1.334   1_455 S
C473   H591    1.087   1_455 S
C474   C525    1.334   .     S
C474   H540    1.087   .     S
C475   C480    1.401   .     A
C475   H489    1.083   .     S
C475   C789    1.383   1_545 S
C476   H490    1.084   .     S
C476   C479    1.402   .     A
C476   C634    1.383   .     S
C477   C479    1.400   .     A
C477   H491    1.083   .     S
C477   C631    1.383   .     S
C478   C480    1.401   .     A
C478   H492    1.083   .     S
C478   C788    1.383   1_545 S
C481   N496    1.363   .     A
C481   H493    1.079   .     S
C482   N495    1.363   .     A
C482   H494    1.080   .     S
C482   C952    1.430   .     S
C483   N495    1.374   .     A
C483   O505    1.393   .     S
C483   C949    1.434   .     S
C484   O513    1.390   .     S
C484   N496    1.373   .     A
Cu485  O504    1.959   .     S
Cu485  O497    1.964   .     S
Cu485  Cu486   2.681   .     S
Cu485  O501    1.957   .     S
Cu485  N495    2.015   .     S
Cu485  O500    1.962   .     S
Cu486  N496    2.015   .     S
Cu486  O502    1.957   .     S
Cu486  O498    1.964   .     S
Cu486  O503    1.959   .     S
Cu486  O499    1.962   .     S
H487   C525    1.087   .     S
H488   C578    1.087   1_455 S
O505   C506    1.416   .     S
C506   H508    1.114   .     S
C506   H507    1.110   .     S
C506   C509    1.526   .     S
C509   H510    1.110   .     S
C509   H511    1.111   .     S
C509   H980    1.109   .     S
O513   C514    1.417   .     S
C514   C517    1.525   .     S
C514   H516    1.115   .     S
C514   H515    1.110   .     S
C517   H520    1.111   .     S
C517   H519    1.111   .     S
H518   C985    1.109   .     S
C521   O549    1.292   .     A
C521   C532    1.449   .     S
C521   O551    1.291   .     A
C522   O550    1.293   .     A
C522   C531    1.449   .     S
C522   O552    1.291   .     A
C523   O555    1.288   .     A
C523   O553    1.288   .     A
C523   C525    1.433   .     S
C524   O556    1.288   .     A
C524   O554    1.287   .     A
C524   C526    1.433   .     S
C526   C577    1.334   .     S
C526   H592    1.087   .     S
C527   C532    1.401   .     A
C527   H541    1.083   .     S
C527   C841    1.383   1_545 S
C528   H542    1.084   .     S
C528   C531    1.402   .     A
C528   C686    1.383   .     S
C529   C531    1.400   .     A
C529   H543    1.083   .     S
C529   C683    1.383   .     S
C530   C532    1.401   .     A
C530   H544    1.083   .     S
C530   C840    1.383   1_545 S
C533   N548    1.363   .     A
C533   H545    1.079   .     S
C534   N547    1.363   .     A
C534   H546    1.080   .     S
C534   C1004   1.430   .     S
C535   N547    1.374   .     A
C535   O557    1.393   .     S
C535   C1001   1.434   .     S
C536   O565    1.390   .     S
C536   N548    1.373   .     A
Cu537  O556    1.959   .     S
Cu537  O549    1.964   .     S
Cu537  Cu538   2.681   .     S
Cu537  O553    1.957   .     S
Cu537  N547    2.015   .     S
Cu537  O552    1.962   .     S
Cu538  N548    2.015   .     S
Cu538  O554    1.957   .     S
Cu538  O550    1.964   .     S
Cu538  O555    1.959   .     S
Cu538  O551    1.962   .     S
H539   C577    1.087   .     S
O557   C558    1.416   .     S
C558   H560    1.114   .     S
C558   H559    1.110   .     S
C558   C561    1.526   .     S
C561   H562    1.110   .     S
C561   H563    1.111   .     S
C561   H1032   1.109   .     S
O565   C566    1.417   .     S
C566   C569    1.525   .     S
C566   H568    1.115   .     S
C566   H567    1.110   .     S
C569   H572    1.111   .     S
C569   H571    1.111   .     S
H570   C1037   1.109   .     S
C573   O601    1.292   .     A
C573   C584    1.449   .     S
C573   O603    1.291   .     A
C574   O602    1.293   .     A
C574   C583    1.449   .     S
C574   O604    1.291   .     A
C575   O607    1.288   .     A
C575   O605    1.288   .     A
C575   C577    1.433   .     S
C576   O608    1.288   .     A
C576   O606    1.287   .     A
C576   C578    1.433   .     S
C578   C473    1.334   1_655 S
C578   H488    1.087   1_655 S
C579   C584    1.401   .     A
C579   H593    1.083   .     S
C579   C893    1.383   1_545 S
C580   H594    1.084   .     S
C580   C583    1.402   .     A
C580   C738    1.383   .     S
C581   C583    1.400   .     A
C581   H595    1.083   .     S
C581   C735    1.383   .     S
C582   C584    1.401   .     A
C582   H596    1.083   .     S
C582   C892    1.383   1_545 S
C585   N600    1.363   .     A
C585   H597    1.079   .     S
C586   N599    1.363   .     A
C586   H598    1.080   .     S
C586   C1056   1.430   .     S
C587   N599    1.374   .     A
C587   O609    1.393   .     S
C587   C1053   1.434   .     S
C588   O617    1.390   .     S
C588   N600    1.373   .     A
Cu589  O608    1.959   .     S
Cu589  O601    1.964   .     S
Cu589  Cu590   2.681   .     S
Cu589  O605    1.957   .     S
Cu589  N599    2.015   .     S
Cu589  O604    1.962   .     S
Cu590  N600    2.015   .     S
Cu590  O606    1.957   .     S
Cu590  O602    1.964   .     S
Cu590  O607    1.959   .     S
Cu590  O603    1.962   .     S
H591   C473    1.087   1_655 S
O609   C610    1.416   .     S
C610   H612    1.114   .     S
C610   H611    1.110   .     S
C610   C613    1.526   .     S
C613   H614    1.110   .     S
C613   H615    1.111   .     S
C613   H1084   1.109   .     S
O617   C618    1.417   .     S
C618   C621    1.525   .     S
C618   H620    1.115   .     S
C618   H619    1.110   .     S
C621   H624    1.111   .     S
C621   H623    1.111   .     S
H622   C1089   1.109   .     S
C625   O653    1.292   .     A
C625   C636    1.449   .     S
C625   O655    1.291   .     A
C626   O654    1.293   .     A
C626   C635    1.449   .     S
C626   O656    1.291   .     A
C627   O659    1.288   .     A
C627   O657    1.288   .     A
C627   C629    1.433   .     S
C628   O660    1.288   .     A
C628   O658    1.287   .     A
C628   C630    1.433   .     S
C629   C734    1.334   1_455 S
C629   H747    1.087   1_455 S
C630   C681    1.334   .     S
C630   H696    1.087   .     S
C631   C636    1.401   .     A
C631   H645    1.083   .     S
C632   H646    1.084   .     S
C632   C635    1.402   .     A
C632   C790    1.383   .     S
C633   C635    1.400   .     A
C633   H647    1.083   .     S
C633   C787    1.383   .     S
C634   C636    1.401   .     A
C634   H648    1.083   .     S
C637   N652    1.363   .     A
C637   H649    1.079   .     S
C638   N651    1.363   .     A
C638   H650    1.080   .     S
C638   C1108   1.430   .     S
C639   N651    1.374   .     A
C639   O661    1.393   .     S
C639   C1105   1.434   .     S
C640   O669    1.390   .     S
C640   N652    1.373   .     A
Cu641  O660    1.959   .     S
Cu641  O653    1.964   .     S
Cu641  Cu642   2.681   .     S
Cu641  O657    1.957   .     S
Cu641  N651    2.015   .     S
Cu641  O656    1.962   .     S
Cu642  N652    2.015   .     S
Cu642  O658    1.957   .     S
Cu642  O654    1.964   .     S
Cu642  O659    1.959   .     S
Cu642  O655    1.962   .     S
H643   C681    1.087   .     S
H644   C734    1.087   1_455 S
O661   C662    1.416   .     S
C662   H664    1.114   .     S
C662   H663    1.110   .     S
C662   C665    1.526   .     S
C665   H666    1.110   .     S
C665   H667    1.111   .     S
C665   H1136   1.109   .     S
O669   C670    1.417   .     S
C670   C673    1.525   .     S
C670   H672    1.115   .     S
C670   H671    1.110   .     S
C673   H676    1.111   .     S
C673   H675    1.111   .     S
H674   C1141   1.109   .     S
C677   O705    1.292   .     A
C677   C688    1.449   .     S
C677   O707    1.291   .     A
C678   O706    1.293   .     A
C678   C687    1.449   .     S
C678   O708    1.291   .     A
C679   O711    1.288   .     A
C679   O709    1.288   .     A
C679   C681    1.433   .     S
C680   O712    1.288   .     A
C680   O710    1.287   .     A
C680   C682    1.433   .     S
C682   C733    1.334   .     S
C682   H748    1.087   .     S
C683   C688    1.401   .     A
C683   H697    1.083   .     S
C684   H698    1.084   .     S
C684   C687    1.402   .     A
C684   C842    1.383   .     S
C685   C687    1.400   .     A
C685   H699    1.083   .     S
C685   C839    1.383   .     S
C686   C688    1.401   .     A
C686   H700    1.083   .     S
C689   N704    1.363   .     A
C689   H701    1.079   .     S
C690   N703    1.363   .     A
C690   H702    1.080   .     S
C690   C1160   1.430   .     S
C691   N703    1.374   .     A
C691   O713    1.393   .     S
C691   C1157   1.434   .     S
C692   O721    1.390   .     S
C692   N704    1.373   .     A
Cu693  O712    1.959   .     S
Cu693  O705    1.964   .     S
Cu693  Cu694   2.681   .     S
Cu693  O709    1.957   .     S
Cu693  N703    2.015   .     S
Cu693  O708    1.962   .     S
Cu694  N704    2.015   .     S
Cu694  O710    1.957   .     S
Cu694  O706    1.964   .     S
Cu694  O711    1.959   .     S
Cu694  O707    1.962   .     S
H695   C733    1.087   .     S
O713   C714    1.416   .     S
C714   H716    1.114   .     S
C714   H715    1.110   .     S
C714   C717    1.526   .     S
C717   H718    1.110   .     S
C717   H719    1.111   .     S
C717   H1188   1.109   .     S
O721   C722    1.417   .     S
C722   C725    1.525   .     S
C722   H724    1.115   .     S
C722   H723    1.110   .     S
C725   H728    1.111   .     S
C725   H727    1.111   .     S
H726   C1193   1.109   .     S
C729   O757    1.292   .     A
C729   C740    1.449   .     S
C729   O759    1.291   .     A
C730   O758    1.293   .     A
C730   C739    1.449   .     S
C730   O760    1.291   .     A
C731   O763    1.288   .     A
C731   O761    1.288   .     A
C731   C733    1.433   .     S
C732   O764    1.288   .     A
C732   O762    1.287   .     A
C732   C734    1.433   .     S
C734   C629    1.334   1_655 S
C734   H644    1.087   1_655 S
C735   C740    1.401   .     A
C735   H749    1.083   .     S
C736   H750    1.084   .     S
C736   C739    1.402   .     A
C736   C894    1.383   .     S
C737   C739    1.400   .     A
C737   H751    1.083   .     S
C737   C891    1.383   .     S
C738   C740    1.401   .     A
C738   H752    1.083   .     S
C741   N756    1.363   .     A
C741   H753    1.079   .     S
C742   N755    1.363   .     A
C742   H754    1.080   .     S
C742   C1212   1.430   .     S
C743   N755    1.374   .     A
C743   O765    1.393   .     S
C743   C1209   1.434   .     S
C744   O773    1.390   .     S
C744   N756    1.373   .     A
Cu745  O764    1.959   .     S
Cu745  O757    1.964   .     S
Cu745  Cu746   2.681   .     S
Cu745  O761    1.957   .     S
Cu745  N755    2.015   .     S
Cu745  O760    1.962   .     S
Cu746  N756    2.015   .     S
Cu746  O762    1.957   .     S
Cu746  O758    1.964   .     S
Cu746  O763    1.959   .     S
Cu746  O759    1.962   .     S
H747   C629    1.087   1_655 S
O765   C766    1.416   .     S
C766   H768    1.114   .     S
C766   H767    1.110   .     S
C766   C769    1.526   .     S
C769   H770    1.110   .     S
C769   H771    1.111   .     S
C769   H1240   1.109   .     S
O773   C774    1.417   .     S
C774   C777    1.525   .     S
C774   H776    1.115   .     S
C774   H775    1.110   .     S
C777   H780    1.111   .     S
C777   H779    1.111   .     S
H778   C1245   1.109   .     S
C781   O809    1.292   .     A
C781   C792    1.449   .     S
C781   O811    1.291   .     A
C782   O810    1.293   .     A
C782   C791    1.449   .     S
C782   O812    1.291   .     A
C783   O815    1.288   .     A
C783   O813    1.288   .     A
C783   C785    1.433   .     S
C784   O816    1.288   .     A
C784   O814    1.287   .     A
C784   C786    1.433   .     S
C785   C890    1.334   1_455 S
C785   H903    1.087   1_455 S
C786   C837    1.334   .     S
C786   H852    1.087   .     S
C787   C792    1.401   .     A
C787   H801    1.083   .     S
C788   H802    1.084   .     S
C788   C791    1.402   .     A
C788   C478    1.383   1_565 S
C789   C791    1.400   .     A
C789   H803    1.083   .     S
C789   C475    1.383   1_565 S
C790   C792    1.401   .     A
C790   H804    1.083   .     S
C793   N808    1.363   .     A
C793   H805    1.079   .     S
C794   N807    1.363   .     A
C794   H806    1.080   .     S
C794   C1264   1.430   .     S
C795   N807    1.374   .     A
C795   O817    1.393   .     S
C795   C1261   1.434   .     S
C796   O825    1.390   .     S
C796   N808    1.373   .     A
Cu797  O816    1.959   .     S
Cu797  O809    1.964   .     S
Cu797  Cu798   2.681   .     S
Cu797  O813    1.957   .     S
Cu797  N807    2.015   .     S
Cu797  O812    1.962   .     S
Cu798  N808    2.015   .     S
Cu798  O814    1.957   .     S
Cu798  O810    1.964   .     S
Cu798  O815    1.959   .     S
Cu798  O811    1.962   .     S
H799   C837    1.087   .     S
H800   C890    1.087   1_455 S
O817   C818    1.416   .     S
C818   H820    1.114   .     S
C818   H819    1.110   .     S
C818   C821    1.526   .     S
C821   H822    1.110   .     S
C821   H823    1.111   .     S
C821   H1292   1.109   .     S
O825   C826    1.417   .     S
C826   C829    1.525   .     S
C826   H828    1.115   .     S
C826   H827    1.110   .     S
C829   H832    1.111   .     S
C829   H831    1.111   .     S
H830   C1297   1.109   .     S
C833   O861    1.292   .     A
C833   C844    1.449   .     S
C833   O863    1.291   .     A
C834   O862    1.293   .     A
C834   C843    1.449   .     S
C834   O864    1.291   .     A
C835   O867    1.288   .     A
C835   O865    1.288   .     A
C835   C837    1.433   .     S
C836   O868    1.288   .     A
C836   O866    1.287   .     A
C836   C838    1.433   .     S
C838   C889    1.334   .     S
C838   H904    1.087   .     S
C839   C844    1.401   .     A
C839   H853    1.083   .     S
C840   H854    1.084   .     S
C840   C843    1.402   .     A
C840   C530    1.383   1_565 S
C841   C843    1.400   .     A
C841   H855    1.083   .     S
C841   C527    1.383   1_565 S
C842   C844    1.401   .     A
C842   H856    1.083   .     S
C845   N860    1.363   .     A
C845   H857    1.079   .     S
C846   N859    1.363   .     A
C846   H858    1.080   .     S
C846   C1316   1.430   .     S
C847   N859    1.374   .     A
C847   O869    1.393   .     S
C847   C1313   1.434   .     S
C848   O877    1.390   .     S
C848   N860    1.373   .     A
Cu849  O868    1.959   .     S
Cu849  O861    1.964   .     S
Cu849  Cu850   2.681   .     S
Cu849  O865    1.957   .     S
Cu849  N859    2.015   .     S
Cu849  O864    1.962   .     S
Cu850  N860    2.015   .     S
Cu850  O866    1.957   .     S
Cu850  O862    1.964   .     S
Cu850  O867    1.959   .     S
Cu850  O863    1.962   .     S
H851   C889    1.087   .     S
O869   C870    1.416   .     S
C870   H872    1.114   .     S
C870   H871    1.110   .     S
C870   C873    1.526   .     S
C873   H874    1.110   .     S
C873   H875    1.111   .     S
C873   H1344   1.109   .     S
O877   C878    1.417   .     S
C878   C881    1.525   .     S
C878   H880    1.115   .     S
C878   H879    1.110   .     S
C881   H884    1.111   .     S
C881   H883    1.111   .     S
H882   C1349   1.109   .     S
C885   O913    1.292   .     A
C885   C896    1.449   .     S
C885   O915    1.291   .     A
C886   O914    1.293   .     A
C886   C895    1.449   .     S
C886   O916    1.291   .     A
C887   O919    1.288   .     A
C887   O917    1.288   .     A
C887   C889    1.433   .     S
C888   O920    1.288   .     A
C888   O918    1.287   .     A
C888   C890    1.433   .     S
C890   C785    1.334   1_655 S
C890   H800    1.087   1_655 S
C891   C896    1.401   .     A
C891   H905    1.083   .     S
C892   H906    1.084   .     S
C892   C895    1.402   .     A
C892   C582    1.383   1_565 S
C893   C895    1.400   .     A
C893   H907    1.083   .     S
C893   C579    1.383   1_565 S
C894   C896    1.401   .     A
C894   H908    1.083   .     S
C897   N912    1.363   .     A
C897   H909    1.079   .     S
C898   N911    1.363   .     A
C898   H910    1.080   .     S
C898   C1368   1.430   .     S
C899   N911    1.374   .     A
C899   O921    1.393   .     S
C899   C1365   1.434   .     S
C900   O929    1.390   .     S
C900   N912    1.373   .     A
Cu901  O920    1.959   .     S
Cu901  O913    1.964   .     S
Cu901  Cu902   2.681   .     S
Cu901  O917    1.957   .     S
Cu901  N911    2.015   .     S
Cu901  O916    1.962   .     S
Cu902  N912    2.015   .     S
Cu902  O918    1.957   .     S
Cu902  O914    1.964   .     S
Cu902  O919    1.959   .     S
Cu902  O915    1.962   .     S
H903   C785    1.087   1_655 S
O921   C922    1.416   .     S
C922   H924    1.114   .     S
C922   H923    1.110   .     S
C922   C925    1.526   .     S
C925   H926    1.110   .     S
C925   H927    1.111   .     S
C925   H1396   1.109   .     S
O929   C930    1.417   .     S
C930   C933    1.525   .     S
C930   H932    1.115   .     S
C930   H931    1.110   .     S
C933   H936    1.111   .     S
C933   H935    1.111   .     S
H934   C1401   1.109   .     S
C937   O965    1.292   .     A
C937   C948    1.449   .     S
C937   O967    1.291   .     A
C938   O966    1.293   .     A
C938   C947    1.449   .     S
C938   O968    1.291   .     A
C939   O971    1.288   .     A
C939   O969    1.288   .     A
C939   C941    1.433   .     S
C940   O972    1.288   .     A
C940   O970    1.287   .     A
C940   C942    1.433   .     S
C941   C1046   1.334   1_455 S
C941   H1059   1.087   1_455 S
C942   C993    1.334   .     S
C942   H1008   1.087   .     S
C943   C948    1.401   .     A
C943   H957    1.083   .     S
C943   C1257   1.383   1_545 S
C944   H958    1.084   .     S
C944   C947    1.402   .     A
C944   C1102   1.383   .     S
C945   C947    1.400   .     A
C945   H959    1.083   .     S
C945   C1099   1.383   .     S
C946   C948    1.401   .     A
C946   H960    1.083   .     S
C946   C1256   1.383   1_545 S
C949   N964    1.363   .     A
C949   H961    1.079   .     S
C950   N963    1.363   .     A
C950   H962    1.080   .     S
C950   C16     1.430   1_556 S
C951   N963    1.374   .     A
C951   O973    1.393   .     S
C951   C13     1.434   1_556 S
C952   O981    1.390   .     S
C952   N964    1.373   .     A
Cu953  O972    1.959   .     S
Cu953  O965    1.964   .     S
Cu953  Cu954   2.681   .     S
Cu953  O969    1.957   .     S
Cu953  N963    2.015   .     S
Cu953  O968    1.962   .     S
Cu954  N964    2.015   .     S
Cu954  O970    1.957   .     S
Cu954  O966    1.964   .     S
Cu954  O971    1.959   .     S
Cu954  O967    1.962   .     S
H955   C993    1.087   .     S
H956   C1046   1.087   1_455 S
O973   C974    1.416   .     S
C974   H976    1.114   .     S
C974   H975    1.110   .     S
C974   C977    1.526   .     S
C977   H978    1.110   .     S
C977   H979    1.111   .     S
C977   H44     1.109   1_556 S
O981   C982    1.417   .     S
C982   C985    1.525   .     S
C982   H984    1.115   .     S
C982   H983    1.110   .     S
C985   H988    1.111   .     S
C985   H987    1.111   .     S
H986   C49     1.109   1_556 S
C989   O1017   1.292   .     A
C989   C1000   1.449   .     S
C989   O1019   1.291   .     A
C990   O1018   1.293   .     A
C990   C999    1.449   .     S
C990   O1020   1.291   .     A
C991   O1023   1.288   .     A
C991   O1021   1.288   .     A
C991   C993    1.433   .     S
C992   O1024   1.288   .     A
C992   O1022   1.287   .     A
C992   C994    1.433   .     S
C994   C1045   1.334   .     S
C994   H1060   1.087   .     S
C995   C1000   1.401   .     A
C995   H1009   1.083   .     S
C995   C1309   1.383   1_545 S
C996   H1010   1.084   .     S
C996   C999    1.402   .     A
C996   C1154   1.383   .     S
C997   C999    1.400   .     A
C997   H1011   1.083   .     S
C997   C1151   1.383   .     S
C998   C1000   1.401   .     A
C998   H1012   1.083   .     S
C998   C1308   1.383   1_545 S
C1001  N1016   1.363   .     A
C1001  H1013   1.079   .     S
C1002  N1015   1.363   .     A
C1002  H1014   1.080   .     S
C1002  C68     1.430   1_556 S
C1003  N1015   1.374   .     A
C1003  O1025   1.393   .     S
C1003  C65     1.434   1_556 S
C1004  O1033   1.390   .     S
C1004  N1016   1.373   .     A
Cu1005 O1024   1.959   .     S
Cu1005 O1017   1.964   .     S
Cu1005 Cu1006  2.681   .     S
Cu1005 O1021   1.957   .     S
Cu1005 N1015   2.015   .     S
Cu1005 O1020   1.962   .     S
Cu1006 N1016   2.015   .     S
Cu1006 O1022   1.957   .     S
Cu1006 O1018   1.964   .     S
Cu1006 O1023   1.959   .     S
Cu1006 O1019   1.962   .     S
H1007  C1045   1.087   .     S
O1025  C1026   1.416   .     S
C1026  H1028   1.114   .     S
C1026  H1027   1.110   .     S
C1026  C1029   1.526   .     S
C1029  H1030   1.110   .     S
C1029  H1031   1.111   .     S
C1029  H96     1.109   1_556 S
O1033  C1034   1.417   .     S
C1034  C1037   1.525   .     S
C1034  H1036   1.115   .     S
C1034  H1035   1.110   .     S
C1037  H1040   1.111   .     S
C1037  H1039   1.111   .     S
H1038  C101    1.109   1_556 S
C1041  O1069   1.292   .     A
C1041  C1052   1.449   .     S
C1041  O1071   1.291   .     A
C1042  O1070   1.293   .     A
C1042  C1051   1.449   .     S
C1042  O1072   1.291   .     A
C1043  O1075   1.288   .     A
C1043  O1073   1.288   .     A
C1043  C1045   1.433   .     S
C1044  O1076   1.288   .     A
C1044  O1074   1.287   .     A
C1044  C1046   1.433   .     S
C1046  C941    1.334   1_655 S
C1046  H956    1.087   1_655 S
C1047  C1052   1.401   .     A
C1047  H1061   1.083   .     S
C1047  C1361   1.383   1_545 S
C1048  H1062   1.084   .     S
C1048  C1051   1.402   .     A
C1048  C1206   1.383   .     S
C1049  C1051   1.400   .     A
C1049  H1063   1.083   .     S
C1049  C1203   1.383   .     S
C1050  C1052   1.401   .     A
C1050  H1064   1.083   .     S
C1050  C1360   1.383   1_545 S
C1053  N1068   1.363   .     A
C1053  H1065   1.079   .     S
C1054  N1067   1.363   .     A
C1054  H1066   1.080   .     S
C1054  C120    1.430   1_556 S
C1055  N1067   1.374   .     A
C1055  O1077   1.393   .     S
C1055  C117    1.434   1_556 S
C1056  O1085   1.390   .     S
C1056  N1068   1.373   .     A
Cu1057 O1076   1.959   .     S
Cu1057 O1069   1.964   .     S
Cu1057 Cu1058  2.681   .     S
Cu1057 O1073   1.957   .     S
Cu1057 N1067   2.015   .     S
Cu1057 O1072   1.962   .     S
Cu1058 N1068   2.015   .     S
Cu1058 O1074   1.957   .     S
Cu1058 O1070   1.964   .     S
Cu1058 O1075   1.959   .     S
Cu1058 O1071   1.962   .     S
H1059  C941    1.087   1_655 S
O1077  C1078   1.416   .     S
C1078  H1080   1.114   .     S
C1078  H1079   1.110   .     S
C1078  C1081   1.526   .     S
C1081  H1082   1.110   .     S
C1081  H1083   1.111   .     S
C1081  H148    1.109   1_556 S
O1085  C1086   1.417   .     S
C1086  C1089   1.525   .     S
C1086  H1088   1.115   .     S
C1086  H1087   1.110   .     S
C1089  H1092   1.111   .     S
C1089  H1091   1.111   .     S
H1090  C153    1.109   1_556 S
C1093  O1121   1.292   .     A
C1093  C1104   1.449   .     S
C1093  O1123   1.291   .     A
C1094  O1122   1.293   .     A
C1094  C1103   1.449   .     S
C1094  O1124   1.291   .     A
C1095  O1127   1.288   .     A
C1095  O1125   1.288   .     A
C1095  C1097   1.433   .     S
C1096  O1128   1.288   .     A
C1096  O1126   1.287   .     A
C1096  C1098   1.433   .     S
C1097  C1202   1.334   1_455 S
C1097  H1215   1.087   1_455 S
C1098  C1149   1.334   .     S
C1098  H1164   1.087   .     S
C1099  C1104   1.401   .     A
C1099  H1113   1.083   .     S
C1100  H1114   1.084   .     S
C1100  C1103   1.402   .     A
C1100  C1258   1.383   .     S
C1101  C1103   1.400   .     A
C1101  H1115   1.083   .     S
C1101  C1255   1.383   .     S
C1102  C1104   1.401   .     A
C1102  H1116   1.083   .     S
C1105  N1120   1.363   .     A
C1105  H1117   1.079   .     S
C1106  N1119   1.363   .     A
C1106  H1118   1.080   .     S
C1106  C172    1.430   1_556 S
C1107  N1119   1.374   .     A
C1107  O1129   1.393   .     S
C1107  C169    1.434   1_556 S
C1108  O1137   1.390   .     S
C1108  N1120   1.373   .     A
Cu1109 O1128   1.959   .     S
Cu1109 O1121   1.964   .     S
Cu1109 Cu1110  2.681   .     S
Cu1109 O1125   1.957   .     S
Cu1109 N1119   2.015   .     S
Cu1109 O1124   1.962   .     S
Cu1110 N1120   2.015   .     S
Cu1110 O1126   1.957   .     S
Cu1110 O1122   1.964   .     S
Cu1110 O1127   1.959   .     S
Cu1110 O1123   1.962   .     S
H1111  C1149   1.087   .     S
H1112  C1202   1.087   1_455 S
O1129  C1130   1.416   .     S
C1130  H1132   1.114   .     S
C1130  H1131   1.110   .     S
C1130  C1133   1.526   .     S
C1133  H1134   1.110   .     S
C1133  H1135   1.111   .     S
C1133  H200    1.109   1_556 S
O1137  C1138   1.417   .     S
C1138  C1141   1.525   .     S
C1138  H1140   1.115   .     S
C1138  H1139   1.110   .     S
C1141  H1144   1.111   .     S
C1141  H1143   1.111   .     S
H1142  C205    1.109   1_556 S
C1145  O1173   1.292   .     A
C1145  C1156   1.449   .     S
C1145  O1175   1.291   .     A
C1146  O1174   1.293   .     A
C1146  C1155   1.449   .     S
C1146  O1176   1.291   .     A
C1147  O1179   1.288   .     A
C1147  O1177   1.288   .     A
C1147  C1149   1.433   .     S
C1148  O1180   1.288   .     A
C1148  O1178   1.287   .     A
C1148  C1150   1.433   .     S
C1150  C1201   1.334   .     S
C1150  H1216   1.087   .     S
C1151  C1156   1.401   .     A
C1151  H1165   1.083   .     S
C1152  H1166   1.084   .     S
C1152  C1155   1.402   .     A
C1152  C1310   1.383   .     S
C1153  C1155   1.400   .     A
C1153  H1167   1.083   .     S
C1153  C1307   1.383   .     S
C1154  C1156   1.401   .     A
C1154  H1168   1.083   .     S
C1157  N1172   1.363   .     A
C1157  H1169   1.079   .     S
C1158  N1171   1.363   .     A
C1158  H1170   1.080   .     S
C1158  C224    1.430   1_556 S
C1159  N1171   1.374   .     A
C1159  O1181   1.393   .     S
C1159  C221    1.434   1_556 S
C1160  O1189   1.390   .     S
C1160  N1172   1.373   .     A
Cu1161 O1180   1.959   .     S
Cu1161 O1173   1.964   .     S
Cu1161 Cu1162  2.681   .     S
Cu1161 O1177   1.957   .     S
Cu1161 N1171   2.015   .     S
Cu1161 O1176   1.962   .     S
Cu1162 N1172   2.015   .     S
Cu1162 O1178   1.957   .     S
Cu1162 O1174   1.964   .     S
Cu1162 O1179   1.959   .     S
Cu1162 O1175   1.962   .     S
H1163  C1201   1.087   .     S
O1181  C1182   1.416   .     S
C1182  H1184   1.114   .     S
C1182  H1183   1.110   .     S
C1182  C1185   1.526   .     S
C1185  H1186   1.110   .     S
C1185  H1187   1.111   .     S
C1185  H252    1.109   1_556 S
O1189  C1190   1.417   .     S
C1190  C1193   1.525   .     S
C1190  H1192   1.115   .     S
C1190  H1191   1.110   .     S
C1193  H1196   1.111   .     S
C1193  H1195   1.111   .     S
H1194  C257    1.109   1_556 S
C1197  O1225   1.292   .     A
C1197  C1208   1.449   .     S
C1197  O1227   1.291   .     A
C1198  O1226   1.293   .     A
C1198  C1207   1.449   .     S
C1198  O1228   1.291   .     A
C1199  O1231   1.288   .     A
C1199  O1229   1.288   .     A
C1199  C1201   1.433   .     S
C1200  O1232   1.288   .     A
C1200  O1230   1.287   .     A
C1200  C1202   1.433   .     S
C1202  C1097   1.334   1_655 S
C1202  H1112   1.087   1_655 S
C1203  C1208   1.401   .     A
C1203  H1217   1.083   .     S
C1204  H1218   1.084   .     S
C1204  C1207   1.402   .     A
C1204  C1362   1.383   .     S
C1205  C1207   1.400   .     A
C1205  H1219   1.083   .     S
C1205  C1359   1.383   .     S
C1206  C1208   1.401   .     A
C1206  H1220   1.083   .     S
C1209  N1224   1.363   .     A
C1209  H1221   1.079   .     S
C1210  N1223   1.363   .     A
C1210  H1222   1.080   .     S
C1210  C276    1.430   1_556 S
C1211  N1223   1.374   .     A
C1211  O1233   1.393   .     S
C1211  C273    1.434   1_556 S
C1212  O1241   1.390   .     S
C1212  N1224   1.373   .     A
Cu1213 O1232   1.959   .     S
Cu1213 O1225   1.964   .     S
Cu1213 Cu1214  2.681   .     S
Cu1213 O1229   1.957   .     S
Cu1213 N1223   2.015   .     S
Cu1213 O1228   1.962   .     S
Cu1214 N1224   2.015   .     S
Cu1214 O1230   1.957   .     S
Cu1214 O1226   1.964   .     S
Cu1214 O1231   1.959   .     S
Cu1214 O1227   1.962   .     S
H1215  C1097   1.087   1_655 S
O1233  C1234   1.416   .     S
C1234  H1236   1.114   .     S
C1234  H1235   1.110   .     S
C1234  C1237   1.526   .     S
C1237  H1238   1.110   .     S
C1237  H1239   1.111   .     S
C1237  H304    1.109   1_556 S
O1241  C1242   1.417   .     S
C1242  C1245   1.525   .     S
C1242  H1244   1.115   .     S
C1242  H1243   1.110   .     S
C1245  H1248   1.111   .     S
C1245  H1247   1.111   .     S
H1246  C309    1.109   1_556 S
C1249  O1277   1.292   .     A
C1249  C1260   1.449   .     S
C1249  O1279   1.291   .     A
C1250  O1278   1.293   .     A
C1250  C1259   1.449   .     S
C1250  O1280   1.291   .     A
C1251  O1283   1.288   .     A
C1251  O1281   1.288   .     A
C1251  C1253   1.433   .     S
C1252  O1284   1.288   .     A
C1252  O1282   1.287   .     A
C1252  C1254   1.433   .     S
C1253  C1358   1.334   1_455 S
C1253  H1371   1.087   1_455 S
C1254  C1305   1.334   .     S
C1254  H1320   1.087   .     S
C1255  C1260   1.401   .     A
C1255  H1269   1.083   .     S
C1256  H1270   1.084   .     S
C1256  C1259   1.402   .     A
C1256  C946    1.383   1_565 S
C1257  C1259   1.400   .     A
C1257  H1271   1.083   .     S
C1257  C943    1.383   1_565 S
C1258  C1260   1.401   .     A
C1258  H1272   1.083   .     S
C1261  N1276   1.363   .     A
C1261  H1273   1.079   .     S
C1262  N1275   1.363   .     A
C1262  H1274   1.080   .     S
C1262  C328    1.430   1_556 S
C1263  N1275   1.374   .     A
C1263  O1285   1.393   .     S
C1263  C325    1.434   1_556 S
C1264  O1293   1.390   .     S
C1264  N1276   1.373   .     A
Cu1265 O1284   1.959   .     S
Cu1265 O1277   1.964   .     S
Cu1265 Cu1266  2.681   .     S
Cu1265 O1281   1.957   .     S
Cu1265 N1275   2.015   .     S
Cu1265 O1280   1.962   .     S
Cu1266 N1276   2.015   .     S
Cu1266 O1282   1.957   .     S
Cu1266 O1278   1.964   .     S
Cu1266 O1283   1.959   .     S
Cu1266 O1279   1.962   .     S
H1267  C1305   1.087   .     S
H1268  C1358   1.087   1_455 S
O1285  C1286   1.416   .     S
C1286  H1288   1.114   .     S
C1286  H1287   1.110   .     S
C1286  C1289   1.526   .     S
C1289  H1290   1.110   .     S
C1289  H1291   1.111   .     S
C1289  H356    1.109   1_556 S
O1293  C1294   1.417   .     S
C1294  C1297   1.525   .     S
C1294  H1296   1.115   .     S
C1294  H1295   1.110   .     S
C1297  H1300   1.111   .     S
C1297  H1299   1.111   .     S
H1298  C361    1.109   1_556 S
C1301  O1329   1.292   .     A
C1301  C1312   1.449   .     S
C1301  O1331   1.291   .     A
C1302  O1330   1.293   .     A
C1302  C1311   1.449   .     S
C1302  O1332   1.291   .     A
C1303  O1335   1.288   .     A
C1303  O1333   1.288   .     A
C1303  C1305   1.433   .     S
C1304  O1336   1.288   .     A
C1304  O1334   1.287   .     A
C1304  C1306   1.433   .     S
C1306  C1357   1.334   .     S
C1306  H1372   1.087   .     S
C1307  C1312   1.401   .     A
C1307  H1321   1.083   .     S
C1308  H1322   1.084   .     S
C1308  C1311   1.402   .     A
C1308  C998    1.383   1_565 S
C1309  C1311   1.400   .     A
C1309  H1323   1.083   .     S
C1309  C995    1.383   1_565 S
C1310  C1312   1.401   .     A
C1310  H1324   1.083   .     S
C1313  N1328   1.363   .     A
C1313  H1325   1.079   .     S
C1314  N1327   1.363   .     A
C1314  H1326   1.080   .     S
C1314  C380    1.430   1_556 S
C1315  N1327   1.374   .     A
C1315  O1337   1.393   .     S
C1315  C377    1.434   1_556 S
C1316  O1345   1.390   .     S
C1316  N1328   1.373   .     A
Cu1317 O1336   1.959   .     S
Cu1317 O1329   1.964   .     S
Cu1317 Cu1318  2.681   .     S
Cu1317 O1333   1.957   .     S
Cu1317 N1327   2.015   .     S
Cu1317 O1332   1.962   .     S
Cu1318 N1328   2.015   .     S
Cu1318 O1334   1.957   .     S
Cu1318 O1330   1.964   .     S
Cu1318 O1335   1.959   .     S
Cu1318 O1331   1.962   .     S
H1319  C1357   1.087   .     S
O1337  C1338   1.416   .     S
C1338  H1340   1.114   .     S
C1338  H1339   1.110   .     S
C1338  C1341   1.526   .     S
C1341  H1342   1.110   .     S
C1341  H1343   1.111   .     S
C1341  H408    1.109   1_556 S
O1345  C1346   1.417   .     S
C1346  C1349   1.525   .     S
C1346  H1348   1.115   .     S
C1346  H1347   1.110   .     S
C1349  H1352   1.111   .     S
C1349  H1351   1.111   .     S
H1350  C413    1.109   1_556 S
C1353  O1381   1.292   .     A
C1353  C1364   1.449   .     S
C1353  O1383   1.291   .     A
C1354  O1382   1.293   .     A
C1354  C1363   1.449   .     S
C1354  O1384   1.291   .     A
C1355  O1387   1.288   .     A
C1355  O1385   1.288   .     A
C1355  C1357   1.433   .     S
C1356  O1388   1.288   .     A
C1356  O1386   1.287   .     A
C1356  C1358   1.433   .     S
C1358  C1253   1.334   1_655 S
C1358  H1268   1.087   1_655 S
C1359  C1364   1.401   .     A
C1359  H1373   1.083   .     S
C1360  H1374   1.084   .     S
C1360  C1363   1.402   .     A
C1360  C1050   1.383   1_565 S
C1361  C1363   1.400   .     A
C1361  H1375   1.083   .     S
C1361  C1047   1.383   1_565 S
C1362  C1364   1.401   .     A
C1362  H1376   1.083   .     S
C1365  N1380   1.363   .     A
C1365  H1377   1.079   .     S
C1366  N1379   1.363   .     A
C1366  H1378   1.080   .     S
C1366  C432    1.430   1_556 S
C1367  N1379   1.374   .     A
C1367  O1389   1.393   .     S
C1367  C429    1.434   1_556 S
C1368  O1397   1.390   .     S
C1368  N1380   1.373   .     A
Cu1369 O1388   1.959   .     S
Cu1369 O1381   1.964   .     S
Cu1369 Cu1370  2.681   .     S
Cu1369 O1385   1.957   .     S
Cu1369 N1379   2.015   .     S
Cu1369 O1384   1.962   .     S
Cu1370 N1380   2.015   .     S
Cu1370 O1386   1.957   .     S
Cu1370 O1382   1.964   .     S
Cu1370 O1387   1.959   .     S
Cu1370 O1383   1.962   .     S
H1371  C1253   1.087   1_655 S
O1389  C1390   1.416   .     S
C1390  H1392   1.114   .     S
C1390  H1391   1.110   .     S
C1390  C1393   1.526   .     S
C1393  H1394   1.110   .     S
C1393  H1395   1.111   .     S
C1393  H460    1.109   1_556 S
O1397  C1398   1.417   .     S
C1398  C1401   1.525   .     S
C1398  H1400   1.115   .     S
C1398  H1399   1.110   .     S
C1401  H1404   1.111   .     S
C1401  H1403   1.111   .     S
H1402  C465    1.109   1_556 S
