data_str_m2_o2_o5_pcu_sym.111
_audit_creation_date              2020-01-03
_audit_creation_method            'Materials Studio'
_symmetry_space_group_name_H-M    'P1'
_symmetry_Int_Tables_number       1
_symmetry_cell_setting            triclinic
loop_
_symmetry_equiv_pos_as_xyz
  x,y,z
_cell_length_a                    30.3526
_cell_length_b                    27.6699
_cell_length_c                    27.2758
_cell_angle_alpha                 90.2032
_cell_angle_beta                  90.9964
_cell_angle_gamma                 90.3795
loop_
_atom_site_label
_atom_site_type_symbol
_atom_site_fract_x
_atom_site_fract_y
_atom_site_fract_z
_atom_site_U_iso_or_equiv
_atom_site_adp_type
_atom_site_occupancy
C1     C     0.16480   0.24968   0.16451   0.00000  Uiso   1.00
C2     C     0.27743   0.44631   0.19909   0.00000  Uiso   1.00
C3     C     0.24994   0.24995   0.07348   0.00000  Uiso   1.00
C4     C     0.25005   0.25005   0.25985   0.00000  Uiso   1.00
C5     C     0.24988   0.02714   0.16674   0.00000  Uiso   1.00
C6     C     0.24992   0.47254   0.16676   0.00000  Uiso   1.00
C7     C     0.24998   0.24992   0.02183   0.00000  Uiso   1.00
C8     C     0.25002   0.25006   0.31151   0.00000  Uiso   1.00
C9     C     0.04898   0.28518   0.12749   0.00000  Uiso   1.00
C10    C     0.44968   0.21000   0.13227   0.00000  Uiso   1.00
C11    C     0.45465   0.29136   0.16597   0.00000  Uiso   1.00
C12    C     0.33520   0.25017   0.16513   0.00000  Uiso   1.00
C13    C     0.04600   0.20736   0.16872   0.00000  Uiso   1.00
C14    C     0.09401   0.28888   0.13885   0.00000  Uiso   1.00
C15    C     0.40503   0.20790   0.14419   0.00000  Uiso   1.00
C16    C     0.40851   0.29345   0.16589   0.00000  Uiso   1.00
C17    C     0.09215   0.20559   0.16750   0.00000  Uiso   1.00
C18    C     0.11643   0.24838   0.15786   0.00000  Uiso   1.00
C19    C     0.38348   0.25041   0.15929   0.00000  Uiso   1.00
C20    C     0.02409   0.24698   0.14735   0.00000  Uiso   1.00
C21    C     0.47548   0.24963   0.14806   0.00000  Uiso   1.00
C22    C     0.01854   0.30029   0.05175   0.00000  Uiso   1.00
C23    C     0.25969   0.10468   0.20875   0.00000  Uiso   1.00
C24    C     0.05828   0.30000   0.01748   0.00000  Uiso   1.00
C25    C     0.05255   0.26196   0.31051   0.00000  Uiso   1.00
C26    C     0.45493   0.17607   0.05573   0.00000  Uiso   1.00
C27    C     0.43438   0.12821   0.03833   0.00000  Uiso   1.00
C28    C     0.41549   0.13225   0.31962   0.00000  Uiso   1.00
C29    C     0.48057   0.34003   0.22912   0.00000  Uiso   1.00
C30    C     0.46993   0.39294   0.23992   0.00000  Uiso   1.00
C31    C     0.47597   0.40495   0.29424   0.00000  Uiso   1.00
C32    C     0.02825   0.16066   0.23546   0.00000  Uiso   1.00
C33    C     0.02045   0.10725   0.24712   0.00000  Uiso   1.00
C34    C     0.22318   0.39493   0.13479   0.00000  Uiso   1.00
C35    C     0.03681   0.09471   0.29863   0.00000  Uiso   1.00
C36    C     0.10770   0.36825   0.15855   0.00000  Uiso   1.00
C37    C     0.09810   0.41433   0.12963   0.00000  Uiso   1.00
C38    C     0.09315   0.45774   0.16372   0.00000  Uiso   1.00
C39    C     0.39081   0.13333   0.17524   0.00000  Uiso   1.00
C40    C     0.37332   0.08296   0.16184   0.00000  Uiso   1.00
C41    C     0.37792   0.04809   0.20480   0.00000  Uiso   1.00
C42    C     0.37741   0.35989   0.12955   0.00000  Uiso   1.00
C43    C     0.41421   0.39381   0.11251   0.00000  Uiso   1.00
C44    C     0.39876   0.42478   0.06941   0.00000  Uiso   1.00
C45    C     0.24046   0.10424   0.12456   0.00000  Uiso   1.00
C46    C     0.12389   0.13759   0.13569   0.00000  Uiso   1.00
C47    C     0.08612   0.10523   0.11676   0.00000  Uiso   1.00
C48    C     0.10136   0.07290   0.07500   0.00000  Uiso   1.00
C49    C     0.27678   0.39552   0.19861   0.00000  Uiso   1.00
C50    C     0.25942   0.05391   0.20966   0.00000  Uiso   1.00
C51    C     0.22245   0.44570   0.13440   0.00000  Uiso   1.00
C52    C     0.24040   0.05345   0.12376   0.00000  Uiso   1.00
Cu53   Cu    0.25000   0.29821   0.16667   0.00000  Uiso   1.00
Cu54   Cu    0.25000   0.20178   0.16667   0.00000  Uiso   1.00
H55    H     0.26786   0.12402   0.24216   0.00000  Uiso   1.00
H56    H     0.00378   0.26358   0.05451   0.00000  Uiso   1.00
H57    H     0.06221   0.33628   0.00076   0.00000  Uiso   1.00
H58    H     0.08915   0.29182   0.03808   0.00000  Uiso   1.00
H59    H     0.05555   0.22525   0.32653   0.00000  Uiso   1.00
H60    H     0.07845   0.26668   0.28262   0.00000  Uiso   1.00
H61    H     0.01970   0.26499   0.29239   0.00000  Uiso   1.00
H62    H     0.48474   0.18325   0.03384   0.00000  Uiso   1.00
H63    H     0.43135   0.20600   0.04745   0.00000  Uiso   1.00
H64    H     0.45961   0.09933   0.03978   0.00000  Uiso   1.00
H65    H     0.40727   0.11761   0.06274   0.00000  Uiso   1.00
H66    H     0.20198   0.37488   0.10964   0.00000  Uiso   1.00
H67    H     0.38636   0.15635   0.31916   0.00000  Uiso   1.00
H68    H     0.40509   0.09596   0.30620   0.00000  Uiso   1.00
H69    H     0.44041   0.14720   0.29455   0.00000  Uiso   1.00
H70    H     0.01474   0.33285   0.24213   0.00000  Uiso   1.00
H71    H     0.45779   0.31637   0.25027   0.00000  Uiso   1.00
H72    H     0.49179   0.41680   0.21828   0.00000  Uiso   1.00
H73    H     0.43523   0.40032   0.22897   0.00000  Uiso   1.00
H74    H     0.45399   0.38186   0.31647   0.00000  Uiso   1.00
H75    H     0.46743   0.44338   0.30069   0.00000  Uiso   1.00
H76    H     0.01074   0.39936   0.30606   0.00000  Uiso   1.00
H77    H     0.23249   0.12325   0.09110   0.00000  Uiso   1.00
H78    H     0.00388   0.18286   0.25528   0.00000  Uiso   1.00
H79    H     0.06174   0.17113   0.24926   0.00000  Uiso   1.00
H80    H     0.48480   0.09853   0.24331   0.00000  Uiso   1.00
H81    H     0.03828   0.08431   0.22070   0.00000  Uiso   1.00
H82    H     0.07334   0.09706   0.30037   0.00000  Uiso   1.00
H83    H     0.02659   0.05725   0.30783   0.00000  Uiso   1.00
H84    H     0.02317   0.11998   0.32598   0.00000  Uiso   1.00
H85    H     0.13734   0.37423   0.18235   0.00000  Uiso   1.00
H86    H     0.07937   0.36124   0.18330   0.00000  Uiso   1.00
H87    H     0.12529   0.42156   0.10388   0.00000  Uiso   1.00
H88    H     0.29817   0.37594   0.22356   0.00000  Uiso   1.00
H89    H     0.06715   0.40938   0.10777   0.00000  Uiso   1.00
H90    H     0.06662   0.45100   0.19042   0.00000  Uiso   1.00
H91    H     0.08435   0.49006   0.14182   0.00000  Uiso   1.00
H92    H     0.12462   0.46510   0.18387   0.00000  Uiso   1.00
H93    H     0.37411   0.14634   0.20880   0.00000  Uiso   1.00
H94    H     0.42683   0.13022   0.18330   0.00000  Uiso   1.00
H95    H     0.33811   0.08528   0.15050   0.00000  Uiso   1.00
H96    H     0.39203   0.06839   0.13051   0.00000  Uiso   1.00
H97    H     0.41297   0.04539   0.21683   0.00000  Uiso   1.00
H98    H     0.36611   0.01166   0.19327   0.00000  Uiso   1.00
H99    H     0.26638   0.03597   0.24408   0.00000  Uiso   1.00
H100   H     0.35785   0.06055   0.23602   0.00000  Uiso   1.00
H101   H     0.34751   0.38180   0.13565   0.00000  Uiso   1.00
H102   H     0.36849   0.33361   0.09975   0.00000  Uiso   1.00
H103   H     0.42475   0.41806   0.14310   0.00000  Uiso   1.00
H104   H     0.44293   0.37226   0.10083   0.00000  Uiso   1.00
H105   H     0.38779   0.40146   0.03822   0.00000  Uiso   1.00
H106   H     0.42635   0.44813   0.05723   0.00000  Uiso   1.00
H107   H     0.37109   0.44828   0.08050   0.00000  Uiso   1.00
H108   H     0.15229   0.11413   0.14501   0.00000  Uiso   1.00
H109   H     0.13491   0.16217   0.10585   0.00000  Uiso   1.00
H110   H     0.19998   0.46360   0.10931   0.00000  Uiso   1.00
H111   H     0.07424   0.08204   0.14690   0.00000  Uiso   1.00
H112   H     0.05844   0.12787   0.10315   0.00000  Uiso   1.00
H113   H     0.11398   0.09527   0.04452   0.00000  Uiso   1.00
H114   H     0.07328   0.05052   0.06117   0.00000  Uiso   1.00
H115   H     0.12796   0.04847   0.08807   0.00000  Uiso   1.00
H116   H     0.23348   0.03516   0.08935   0.00000  Uiso   1.00
H117   H     0.29986   0.46465   0.22428   0.00000  Uiso   1.00
H118   H     0.49237   0.32289   0.03486   0.00000  Uiso   1.00
N119   N     0.25000   0.12934   0.16667   0.00000  Uiso   1.00
N120   N     0.25000   0.37066   0.16667   0.00000  Uiso   1.00
O121   O     0.18573   0.29072   0.16667   0.00000  Uiso   1.00
O122   O     0.46814   0.17261   0.10580   0.00000  Uiso   1.00
O123   O     0.47914   0.33233   0.17781   0.00000  Uiso   1.00
O124   O     0.02215   0.16758   0.18447   0.00000  Uiso   1.00
O125   O     0.11676   0.33012   0.12541   0.00000  Uiso   1.00
O126   O     0.38192   0.16528   0.13594   0.00000  Uiso   1.00
O127   O     0.38867   0.33747   0.17479   0.00000  Uiso   1.00
O128   O     0.11271   0.16249   0.17925   0.00000  Uiso   1.00
O129   O     0.31427   0.20928   0.16666   0.00000  Uiso   1.00
O130   O     0.31427   0.29071   0.16666   0.00000  Uiso   1.00
O131   O     0.18573   0.20928   0.16667   0.00000  Uiso   1.00
O132   O     0.25000   0.29071   0.09613   0.00000  Uiso   1.00
O133   O     0.25000   0.20929   0.23720   0.00000  Uiso   1.00
O134   O     0.25000   0.29071   0.23720   0.00000  Uiso   1.00
O135   O     0.25000   0.20929   0.09613   0.00000  Uiso   1.00
O136   O     0.02972   0.32039   0.09822   0.00000  Uiso   1.00
C137   C     0.66480   0.24968   0.16451   0.00000  Uiso   1.00
C138   C     0.77743   0.44631   0.19909   0.00000  Uiso   1.00
C139   C     0.74994   0.24995   0.07348   0.00000  Uiso   1.00
C140   C     0.75005   0.25005   0.25985   0.00000  Uiso   1.00
C141   C     0.74988   0.02714   0.16674   0.00000  Uiso   1.00
C142   C     0.74992   0.47254   0.16676   0.00000  Uiso   1.00
C143   C     0.74998   0.24992   0.02183   0.00000  Uiso   1.00
C144   C     0.75002   0.25006   0.31151   0.00000  Uiso   1.00
C145   C     0.54898   0.28518   0.12749   0.00000  Uiso   1.00
C146   C     0.94968   0.21000   0.13227   0.00000  Uiso   1.00
C147   C     0.95465   0.29136   0.16597   0.00000  Uiso   1.00
C148   C     0.83520   0.25017   0.16513   0.00000  Uiso   1.00
C149   C     0.54600   0.20736   0.16872   0.00000  Uiso   1.00
C150   C     0.59401   0.28888   0.13885   0.00000  Uiso   1.00
C151   C     0.90503   0.20790   0.14419   0.00000  Uiso   1.00
C152   C     0.90851   0.29345   0.16589   0.00000  Uiso   1.00
C153   C     0.59215   0.20559   0.16750   0.00000  Uiso   1.00
C154   C     0.61643   0.24838   0.15786   0.00000  Uiso   1.00
C155   C     0.88348   0.25041   0.15929   0.00000  Uiso   1.00
C156   C     0.52409   0.24698   0.14735   0.00000  Uiso   1.00
C157   C     0.97548   0.24963   0.14806   0.00000  Uiso   1.00
C158   C     0.51854   0.30029   0.05175   0.00000  Uiso   1.00
C159   C     0.75969   0.10468   0.20875   0.00000  Uiso   1.00
C160   C     0.55828   0.30000   0.01748   0.00000  Uiso   1.00
C161   C     0.55255   0.26196   0.31051   0.00000  Uiso   1.00
C162   C     0.95493   0.17607   0.05573   0.00000  Uiso   1.00
C163   C     0.93438   0.12821   0.03833   0.00000  Uiso   1.00
C164   C     0.91549   0.13225   0.31962   0.00000  Uiso   1.00
C165   C     0.98057   0.34003   0.22912   0.00000  Uiso   1.00
C166   C     0.96993   0.39294   0.23992   0.00000  Uiso   1.00
C167   C     0.97597   0.40495   0.29424   0.00000  Uiso   1.00
C168   C     0.52825   0.16066   0.23546   0.00000  Uiso   1.00
C169   C     0.52045   0.10725   0.24712   0.00000  Uiso   1.00
C170   C     0.72318   0.39493   0.13479   0.00000  Uiso   1.00
C171   C     0.53681   0.09471   0.29863   0.00000  Uiso   1.00
C172   C     0.60770   0.36825   0.15855   0.00000  Uiso   1.00
C173   C     0.59810   0.41433   0.12963   0.00000  Uiso   1.00
C174   C     0.59315   0.45774   0.16372   0.00000  Uiso   1.00
C175   C     0.89081   0.13333   0.17524   0.00000  Uiso   1.00
C176   C     0.87332   0.08296   0.16184   0.00000  Uiso   1.00
C177   C     0.87792   0.04809   0.20480   0.00000  Uiso   1.00
C178   C     0.87741   0.35989   0.12955   0.00000  Uiso   1.00
C179   C     0.91421   0.39381   0.11251   0.00000  Uiso   1.00
C180   C     0.89876   0.42478   0.06941   0.00000  Uiso   1.00
C181   C     0.74046   0.10424   0.12456   0.00000  Uiso   1.00
C182   C     0.62389   0.13759   0.13569   0.00000  Uiso   1.00
C183   C     0.58612   0.10523   0.11676   0.00000  Uiso   1.00
C184   C     0.60136   0.07290   0.07500   0.00000  Uiso   1.00
C185   C     0.77678   0.39552   0.19861   0.00000  Uiso   1.00
C186   C     0.75942   0.05391   0.20966   0.00000  Uiso   1.00
C187   C     0.72245   0.44570   0.13440   0.00000  Uiso   1.00
C188   C     0.74040   0.05345   0.12376   0.00000  Uiso   1.00
Cu189  Cu    0.75000   0.29821   0.16667   0.00000  Uiso   1.00
Cu190  Cu    0.75000   0.20178   0.16667   0.00000  Uiso   1.00
H191   H     0.76786   0.12402   0.24216   0.00000  Uiso   1.00
H192   H     0.50378   0.26358   0.05451   0.00000  Uiso   1.00
H193   H     0.56221   0.33628   0.00076   0.00000  Uiso   1.00
H194   H     0.58915   0.29182   0.03808   0.00000  Uiso   1.00
H195   H     0.55555   0.22525   0.32653   0.00000  Uiso   1.00
H196   H     0.57845   0.26668   0.28262   0.00000  Uiso   1.00
H197   H     0.51970   0.26499   0.29239   0.00000  Uiso   1.00
H198   H     0.98474   0.18325   0.03384   0.00000  Uiso   1.00
H199   H     0.93135   0.20600   0.04745   0.00000  Uiso   1.00
H200   H     0.95961   0.09933   0.03978   0.00000  Uiso   1.00
H201   H     0.90727   0.11761   0.06274   0.00000  Uiso   1.00
H202   H     0.70198   0.37488   0.10964   0.00000  Uiso   1.00
H203   H     0.88636   0.15635   0.31916   0.00000  Uiso   1.00
H204   H     0.90509   0.09596   0.30620   0.00000  Uiso   1.00
H205   H     0.94041   0.14720   0.29455   0.00000  Uiso   1.00
H206   H     0.51474   0.33285   0.24213   0.00000  Uiso   1.00
H207   H     0.95779   0.31637   0.25027   0.00000  Uiso   1.00
H208   H     0.99179   0.41680   0.21828   0.00000  Uiso   1.00
H209   H     0.93523   0.40032   0.22897   0.00000  Uiso   1.00
H210   H     0.95399   0.38186   0.31647   0.00000  Uiso   1.00
H211   H     0.96743   0.44338   0.30069   0.00000  Uiso   1.00
H212   H     0.51074   0.39936   0.30606   0.00000  Uiso   1.00
H213   H     0.73249   0.12325   0.09110   0.00000  Uiso   1.00
H214   H     0.50388   0.18286   0.25528   0.00000  Uiso   1.00
H215   H     0.56174   0.17113   0.24926   0.00000  Uiso   1.00
H216   H     0.98480   0.09853   0.24331   0.00000  Uiso   1.00
H217   H     0.53828   0.08431   0.22070   0.00000  Uiso   1.00
H218   H     0.57334   0.09706   0.30037   0.00000  Uiso   1.00
H219   H     0.52659   0.05725   0.30783   0.00000  Uiso   1.00
H220   H     0.52317   0.11998   0.32598   0.00000  Uiso   1.00
H221   H     0.63734   0.37423   0.18235   0.00000  Uiso   1.00
H222   H     0.57937   0.36124   0.18330   0.00000  Uiso   1.00
H223   H     0.62529   0.42156   0.10388   0.00000  Uiso   1.00
H224   H     0.79817   0.37594   0.22356   0.00000  Uiso   1.00
H225   H     0.56715   0.40938   0.10777   0.00000  Uiso   1.00
H226   H     0.56662   0.45100   0.19042   0.00000  Uiso   1.00
H227   H     0.58435   0.49006   0.14182   0.00000  Uiso   1.00
H228   H     0.62462   0.46510   0.18387   0.00000  Uiso   1.00
H229   H     0.87411   0.14634   0.20880   0.00000  Uiso   1.00
H230   H     0.92683   0.13022   0.18330   0.00000  Uiso   1.00
H231   H     0.83811   0.08528   0.15050   0.00000  Uiso   1.00
H232   H     0.89203   0.06839   0.13051   0.00000  Uiso   1.00
H233   H     0.91297   0.04539   0.21683   0.00000  Uiso   1.00
H234   H     0.86611   0.01166   0.19327   0.00000  Uiso   1.00
H235   H     0.76638   0.03597   0.24408   0.00000  Uiso   1.00
H236   H     0.85785   0.06055   0.23602   0.00000  Uiso   1.00
H237   H     0.84751   0.38180   0.13565   0.00000  Uiso   1.00
H238   H     0.86849   0.33361   0.09975   0.00000  Uiso   1.00
H239   H     0.92475   0.41806   0.14310   0.00000  Uiso   1.00
H240   H     0.94293   0.37226   0.10083   0.00000  Uiso   1.00
H241   H     0.88779   0.40146   0.03822   0.00000  Uiso   1.00
H242   H     0.92635   0.44813   0.05723   0.00000  Uiso   1.00
H243   H     0.87109   0.44828   0.08050   0.00000  Uiso   1.00
H244   H     0.65229   0.11413   0.14501   0.00000  Uiso   1.00
H245   H     0.63491   0.16217   0.10585   0.00000  Uiso   1.00
H246   H     0.69998   0.46360   0.10931   0.00000  Uiso   1.00
H247   H     0.57424   0.08204   0.14690   0.00000  Uiso   1.00
H248   H     0.55844   0.12787   0.10315   0.00000  Uiso   1.00
H249   H     0.61398   0.09527   0.04452   0.00000  Uiso   1.00
H250   H     0.57328   0.05052   0.06117   0.00000  Uiso   1.00
H251   H     0.62796   0.04847   0.08807   0.00000  Uiso   1.00
H252   H     0.73348   0.03516   0.08935   0.00000  Uiso   1.00
H253   H     0.79986   0.46465   0.22428   0.00000  Uiso   1.00
H254   H     0.99237   0.32289   0.03486   0.00000  Uiso   1.00
N255   N     0.75000   0.12934   0.16667   0.00000  Uiso   1.00
N256   N     0.75000   0.37066   0.16667   0.00000  Uiso   1.00
O257   O     0.68573   0.29072   0.16667   0.00000  Uiso   1.00
O258   O     0.96814   0.17261   0.10580   0.00000  Uiso   1.00
O259   O     0.97914   0.33233   0.17781   0.00000  Uiso   1.00
O260   O     0.52215   0.16758   0.18447   0.00000  Uiso   1.00
O261   O     0.61676   0.33012   0.12541   0.00000  Uiso   1.00
O262   O     0.88192   0.16528   0.13594   0.00000  Uiso   1.00
O263   O     0.88867   0.33747   0.17479   0.00000  Uiso   1.00
O264   O     0.61271   0.16249   0.17925   0.00000  Uiso   1.00
O265   O     0.81427   0.20928   0.16666   0.00000  Uiso   1.00
O266   O     0.81427   0.29071   0.16666   0.00000  Uiso   1.00
O267   O     0.68573   0.20928   0.16667   0.00000  Uiso   1.00
O268   O     0.75000   0.29071   0.09613   0.00000  Uiso   1.00
O269   O     0.75000   0.20929   0.23720   0.00000  Uiso   1.00
O270   O     0.75000   0.29071   0.23720   0.00000  Uiso   1.00
O271   O     0.75000   0.20929   0.09613   0.00000  Uiso   1.00
O272   O     0.52972   0.32039   0.09822   0.00000  Uiso   1.00
C273   C     0.16480   0.74968   0.16451   0.00000  Uiso   1.00
C274   C     0.27743   0.94631   0.19909   0.00000  Uiso   1.00
C275   C     0.24994   0.74995   0.07348   0.00000  Uiso   1.00
C276   C     0.25005   0.75005   0.25985   0.00000  Uiso   1.00
C277   C     0.24988   0.52714   0.16674   0.00000  Uiso   1.00
C278   C     0.24992   0.97254   0.16676   0.00000  Uiso   1.00
C279   C     0.24998   0.74992   0.02183   0.00000  Uiso   1.00
C280   C     0.25002   0.75006   0.31151   0.00000  Uiso   1.00
C281   C     0.04898   0.78518   0.12749   0.00000  Uiso   1.00
C282   C     0.44968   0.71000   0.13227   0.00000  Uiso   1.00
C283   C     0.45465   0.79136   0.16597   0.00000  Uiso   1.00
C284   C     0.33520   0.75017   0.16513   0.00000  Uiso   1.00
C285   C     0.04600   0.70736   0.16872   0.00000  Uiso   1.00
C286   C     0.09401   0.78888   0.13885   0.00000  Uiso   1.00
C287   C     0.40503   0.70790   0.14419   0.00000  Uiso   1.00
C288   C     0.40851   0.79345   0.16589   0.00000  Uiso   1.00
C289   C     0.09215   0.70559   0.16750   0.00000  Uiso   1.00
C290   C     0.11643   0.74838   0.15786   0.00000  Uiso   1.00
C291   C     0.38348   0.75041   0.15929   0.00000  Uiso   1.00
C292   C     0.02409   0.74698   0.14735   0.00000  Uiso   1.00
C293   C     0.47548   0.74963   0.14806   0.00000  Uiso   1.00
C294   C     0.01854   0.80029   0.05175   0.00000  Uiso   1.00
C295   C     0.25969   0.60468   0.20875   0.00000  Uiso   1.00
C296   C     0.05828   0.80000   0.01748   0.00000  Uiso   1.00
C297   C     0.05255   0.76196   0.31051   0.00000  Uiso   1.00
C298   C     0.45493   0.67607   0.05573   0.00000  Uiso   1.00
C299   C     0.43438   0.62821   0.03833   0.00000  Uiso   1.00
C300   C     0.41549   0.63225   0.31962   0.00000  Uiso   1.00
C301   C     0.48057   0.84003   0.22912   0.00000  Uiso   1.00
C302   C     0.46993   0.89294   0.23992   0.00000  Uiso   1.00
C303   C     0.47597   0.90495   0.29424   0.00000  Uiso   1.00
C304   C     0.02825   0.66066   0.23546   0.00000  Uiso   1.00
C305   C     0.02045   0.60725   0.24712   0.00000  Uiso   1.00
C306   C     0.22318   0.89493   0.13479   0.00000  Uiso   1.00
C307   C     0.03681   0.59471   0.29863   0.00000  Uiso   1.00
C308   C     0.10770   0.86825   0.15855   0.00000  Uiso   1.00
C309   C     0.09810   0.91433   0.12963   0.00000  Uiso   1.00
C310   C     0.09315   0.95774   0.16372   0.00000  Uiso   1.00
C311   C     0.39081   0.63333   0.17524   0.00000  Uiso   1.00
C312   C     0.37332   0.58296   0.16184   0.00000  Uiso   1.00
C313   C     0.37792   0.54809   0.20480   0.00000  Uiso   1.00
C314   C     0.37741   0.85989   0.12955   0.00000  Uiso   1.00
C315   C     0.41421   0.89381   0.11251   0.00000  Uiso   1.00
C316   C     0.39876   0.92478   0.06941   0.00000  Uiso   1.00
C317   C     0.24046   0.60424   0.12456   0.00000  Uiso   1.00
C318   C     0.12389   0.63759   0.13569   0.00000  Uiso   1.00
C319   C     0.08612   0.60523   0.11676   0.00000  Uiso   1.00
C320   C     0.10136   0.57290   0.07500   0.00000  Uiso   1.00
C321   C     0.27678   0.89552   0.19861   0.00000  Uiso   1.00
C322   C     0.25942   0.55391   0.20966   0.00000  Uiso   1.00
C323   C     0.22245   0.94570   0.13440   0.00000  Uiso   1.00
C324   C     0.24040   0.55345   0.12376   0.00000  Uiso   1.00
Cu325  Cu    0.25000   0.79821   0.16667   0.00000  Uiso   1.00
Cu326  Cu    0.25000   0.70178   0.16667   0.00000  Uiso   1.00
H327   H     0.26786   0.62402   0.24216   0.00000  Uiso   1.00
H328   H     0.00378   0.76358   0.05451   0.00000  Uiso   1.00
H329   H     0.06221   0.83628   0.00076   0.00000  Uiso   1.00
H330   H     0.08915   0.79182   0.03808   0.00000  Uiso   1.00
H331   H     0.05555   0.72525   0.32653   0.00000  Uiso   1.00
H332   H     0.07845   0.76668   0.28262   0.00000  Uiso   1.00
H333   H     0.01970   0.76499   0.29239   0.00000  Uiso   1.00
H334   H     0.48474   0.68325   0.03384   0.00000  Uiso   1.00
H335   H     0.43135   0.70600   0.04745   0.00000  Uiso   1.00
H336   H     0.45961   0.59933   0.03978   0.00000  Uiso   1.00
H337   H     0.40727   0.61761   0.06274   0.00000  Uiso   1.00
H338   H     0.20198   0.87488   0.10964   0.00000  Uiso   1.00
H339   H     0.38636   0.65635   0.31916   0.00000  Uiso   1.00
H340   H     0.40509   0.59596   0.30620   0.00000  Uiso   1.00
H341   H     0.44041   0.64720   0.29455   0.00000  Uiso   1.00
H342   H     0.01474   0.83285   0.24213   0.00000  Uiso   1.00
H343   H     0.45779   0.81637   0.25027   0.00000  Uiso   1.00
H344   H     0.49179   0.91680   0.21828   0.00000  Uiso   1.00
H345   H     0.43523   0.90032   0.22897   0.00000  Uiso   1.00
H346   H     0.45399   0.88186   0.31647   0.00000  Uiso   1.00
H347   H     0.46743   0.94338   0.30069   0.00000  Uiso   1.00
H348   H     0.01074   0.89936   0.30606   0.00000  Uiso   1.00
H349   H     0.23249   0.62325   0.09110   0.00000  Uiso   1.00
H350   H     0.00388   0.68286   0.25528   0.00000  Uiso   1.00
H351   H     0.06174   0.67113   0.24926   0.00000  Uiso   1.00
H352   H     0.48480   0.59853   0.24331   0.00000  Uiso   1.00
H353   H     0.03828   0.58431   0.22070   0.00000  Uiso   1.00
H354   H     0.07334   0.59706   0.30037   0.00000  Uiso   1.00
H355   H     0.02659   0.55725   0.30783   0.00000  Uiso   1.00
H356   H     0.02317   0.61998   0.32598   0.00000  Uiso   1.00
H357   H     0.13734   0.87423   0.18235   0.00000  Uiso   1.00
H358   H     0.07937   0.86124   0.18330   0.00000  Uiso   1.00
H359   H     0.12529   0.92156   0.10388   0.00000  Uiso   1.00
H360   H     0.29817   0.87594   0.22356   0.00000  Uiso   1.00
H361   H     0.06715   0.90938   0.10777   0.00000  Uiso   1.00
H362   H     0.06662   0.95100   0.19042   0.00000  Uiso   1.00
H363   H     0.08435   0.99006   0.14182   0.00000  Uiso   1.00
H364   H     0.12462   0.96510   0.18387   0.00000  Uiso   1.00
H365   H     0.37411   0.64634   0.20880   0.00000  Uiso   1.00
H366   H     0.42683   0.63022   0.18330   0.00000  Uiso   1.00
H367   H     0.33811   0.58528   0.15050   0.00000  Uiso   1.00
H368   H     0.39203   0.56839   0.13051   0.00000  Uiso   1.00
H369   H     0.41297   0.54539   0.21683   0.00000  Uiso   1.00
H370   H     0.36611   0.51166   0.19327   0.00000  Uiso   1.00
H371   H     0.26638   0.53597   0.24408   0.00000  Uiso   1.00
H372   H     0.35785   0.56055   0.23602   0.00000  Uiso   1.00
H373   H     0.34751   0.88180   0.13565   0.00000  Uiso   1.00
H374   H     0.36849   0.83361   0.09975   0.00000  Uiso   1.00
H375   H     0.42475   0.91806   0.14310   0.00000  Uiso   1.00
H376   H     0.44293   0.87226   0.10083   0.00000  Uiso   1.00
H377   H     0.38779   0.90146   0.03822   0.00000  Uiso   1.00
H378   H     0.42635   0.94813   0.05723   0.00000  Uiso   1.00
H379   H     0.37109   0.94828   0.08050   0.00000  Uiso   1.00
H380   H     0.15229   0.61413   0.14501   0.00000  Uiso   1.00
H381   H     0.13491   0.66217   0.10585   0.00000  Uiso   1.00
H382   H     0.19998   0.96360   0.10931   0.00000  Uiso   1.00
H383   H     0.07424   0.58204   0.14690   0.00000  Uiso   1.00
H384   H     0.05844   0.62787   0.10315   0.00000  Uiso   1.00
H385   H     0.11398   0.59527   0.04452   0.00000  Uiso   1.00
H386   H     0.07328   0.55052   0.06117   0.00000  Uiso   1.00
H387   H     0.12796   0.54847   0.08807   0.00000  Uiso   1.00
H388   H     0.23348   0.53516   0.08935   0.00000  Uiso   1.00
H389   H     0.29986   0.96465   0.22428   0.00000  Uiso   1.00
H390   H     0.49237   0.82289   0.03486   0.00000  Uiso   1.00
N391   N     0.25000   0.62934   0.16667   0.00000  Uiso   1.00
N392   N     0.25000   0.87066   0.16667   0.00000  Uiso   1.00
O393   O     0.18573   0.79072   0.16667   0.00000  Uiso   1.00
O394   O     0.46814   0.67261   0.10580   0.00000  Uiso   1.00
O395   O     0.47914   0.83233   0.17781   0.00000  Uiso   1.00
O396   O     0.02215   0.66758   0.18447   0.00000  Uiso   1.00
O397   O     0.11676   0.83012   0.12541   0.00000  Uiso   1.00
O398   O     0.38192   0.66528   0.13594   0.00000  Uiso   1.00
O399   O     0.38867   0.83747   0.17479   0.00000  Uiso   1.00
O400   O     0.11271   0.66249   0.17925   0.00000  Uiso   1.00
O401   O     0.31427   0.70928   0.16666   0.00000  Uiso   1.00
O402   O     0.31427   0.79071   0.16666   0.00000  Uiso   1.00
O403   O     0.18573   0.70928   0.16667   0.00000  Uiso   1.00
O404   O     0.25000   0.79071   0.09613   0.00000  Uiso   1.00
O405   O     0.25000   0.70929   0.23720   0.00000  Uiso   1.00
O406   O     0.25000   0.79071   0.23720   0.00000  Uiso   1.00
O407   O     0.25000   0.70929   0.09613   0.00000  Uiso   1.00
O408   O     0.02972   0.82039   0.09822   0.00000  Uiso   1.00
C409   C     0.66480   0.74968   0.16451   0.00000  Uiso   1.00
C410   C     0.77743   0.94631   0.19909   0.00000  Uiso   1.00
C411   C     0.74994   0.74995   0.07348   0.00000  Uiso   1.00
C412   C     0.75005   0.75005   0.25985   0.00000  Uiso   1.00
C413   C     0.74988   0.52714   0.16674   0.00000  Uiso   1.00
C414   C     0.74992   0.97254   0.16676   0.00000  Uiso   1.00
C415   C     0.74998   0.74992   0.02183   0.00000  Uiso   1.00
C416   C     0.75002   0.75006   0.31151   0.00000  Uiso   1.00
C417   C     0.54898   0.78518   0.12749   0.00000  Uiso   1.00
C418   C     0.94968   0.71000   0.13227   0.00000  Uiso   1.00
C419   C     0.95465   0.79136   0.16597   0.00000  Uiso   1.00
C420   C     0.83520   0.75017   0.16513   0.00000  Uiso   1.00
C421   C     0.54600   0.70736   0.16872   0.00000  Uiso   1.00
C422   C     0.59401   0.78888   0.13885   0.00000  Uiso   1.00
C423   C     0.90503   0.70790   0.14419   0.00000  Uiso   1.00
C424   C     0.90851   0.79345   0.16589   0.00000  Uiso   1.00
C425   C     0.59215   0.70559   0.16750   0.00000  Uiso   1.00
C426   C     0.61643   0.74838   0.15786   0.00000  Uiso   1.00
C427   C     0.88348   0.75041   0.15929   0.00000  Uiso   1.00
C428   C     0.52409   0.74698   0.14735   0.00000  Uiso   1.00
C429   C     0.97548   0.74963   0.14806   0.00000  Uiso   1.00
C430   C     0.51854   0.80029   0.05175   0.00000  Uiso   1.00
C431   C     0.75969   0.60468   0.20875   0.00000  Uiso   1.00
C432   C     0.55828   0.80000   0.01748   0.00000  Uiso   1.00
C433   C     0.55255   0.76196   0.31051   0.00000  Uiso   1.00
C434   C     0.95493   0.67607   0.05573   0.00000  Uiso   1.00
C435   C     0.93438   0.62821   0.03833   0.00000  Uiso   1.00
C436   C     0.91549   0.63225   0.31962   0.00000  Uiso   1.00
C437   C     0.98057   0.84003   0.22912   0.00000  Uiso   1.00
C438   C     0.96993   0.89294   0.23992   0.00000  Uiso   1.00
C439   C     0.97597   0.90495   0.29424   0.00000  Uiso   1.00
C440   C     0.52825   0.66066   0.23546   0.00000  Uiso   1.00
C441   C     0.52045   0.60725   0.24712   0.00000  Uiso   1.00
C442   C     0.72318   0.89493   0.13479   0.00000  Uiso   1.00
C443   C     0.53681   0.59471   0.29863   0.00000  Uiso   1.00
C444   C     0.60770   0.86825   0.15855   0.00000  Uiso   1.00
C445   C     0.59810   0.91433   0.12963   0.00000  Uiso   1.00
C446   C     0.59315   0.95774   0.16372   0.00000  Uiso   1.00
C447   C     0.89081   0.63333   0.17524   0.00000  Uiso   1.00
C448   C     0.87332   0.58296   0.16184   0.00000  Uiso   1.00
C449   C     0.87792   0.54809   0.20480   0.00000  Uiso   1.00
C450   C     0.87741   0.85989   0.12955   0.00000  Uiso   1.00
C451   C     0.91421   0.89381   0.11251   0.00000  Uiso   1.00
C452   C     0.89876   0.92478   0.06941   0.00000  Uiso   1.00
C453   C     0.74046   0.60424   0.12456   0.00000  Uiso   1.00
C454   C     0.62389   0.63759   0.13569   0.00000  Uiso   1.00
C455   C     0.58612   0.60523   0.11676   0.00000  Uiso   1.00
C456   C     0.60136   0.57290   0.07500   0.00000  Uiso   1.00
C457   C     0.77678   0.89552   0.19861   0.00000  Uiso   1.00
C458   C     0.75942   0.55391   0.20966   0.00000  Uiso   1.00
C459   C     0.72245   0.94570   0.13440   0.00000  Uiso   1.00
C460   C     0.74040   0.55345   0.12376   0.00000  Uiso   1.00
Cu461  Cu    0.75000   0.79821   0.16667   0.00000  Uiso   1.00
Cu462  Cu    0.75000   0.70178   0.16667   0.00000  Uiso   1.00
H463   H     0.76786   0.62402   0.24216   0.00000  Uiso   1.00
H464   H     0.50378   0.76358   0.05451   0.00000  Uiso   1.00
H465   H     0.56221   0.83628   0.00076   0.00000  Uiso   1.00
H466   H     0.58915   0.79182   0.03808   0.00000  Uiso   1.00
H467   H     0.55555   0.72525   0.32653   0.00000  Uiso   1.00
H468   H     0.57845   0.76668   0.28262   0.00000  Uiso   1.00
H469   H     0.51970   0.76499   0.29239   0.00000  Uiso   1.00
H470   H     0.98474   0.68325   0.03384   0.00000  Uiso   1.00
H471   H     0.93135   0.70600   0.04745   0.00000  Uiso   1.00
H472   H     0.95961   0.59933   0.03978   0.00000  Uiso   1.00
H473   H     0.90727   0.61761   0.06274   0.00000  Uiso   1.00
H474   H     0.70198   0.87488   0.10964   0.00000  Uiso   1.00
H475   H     0.88636   0.65635   0.31916   0.00000  Uiso   1.00
H476   H     0.90509   0.59596   0.30620   0.00000  Uiso   1.00
H477   H     0.94041   0.64720   0.29455   0.00000  Uiso   1.00
H478   H     0.51474   0.83285   0.24213   0.00000  Uiso   1.00
H479   H     0.95779   0.81637   0.25027   0.00000  Uiso   1.00
H480   H     0.99179   0.91680   0.21828   0.00000  Uiso   1.00
H481   H     0.93523   0.90032   0.22897   0.00000  Uiso   1.00
H482   H     0.95399   0.88186   0.31647   0.00000  Uiso   1.00
H483   H     0.96743   0.94338   0.30069   0.00000  Uiso   1.00
H484   H     0.51074   0.89936   0.30606   0.00000  Uiso   1.00
H485   H     0.73249   0.62325   0.09110   0.00000  Uiso   1.00
H486   H     0.50388   0.68286   0.25528   0.00000  Uiso   1.00
H487   H     0.56174   0.67113   0.24926   0.00000  Uiso   1.00
H488   H     0.98480   0.59853   0.24331   0.00000  Uiso   1.00
H489   H     0.53828   0.58431   0.22070   0.00000  Uiso   1.00
H490   H     0.57334   0.59706   0.30037   0.00000  Uiso   1.00
H491   H     0.52659   0.55725   0.30783   0.00000  Uiso   1.00
H492   H     0.52317   0.61998   0.32598   0.00000  Uiso   1.00
H493   H     0.63734   0.87423   0.18235   0.00000  Uiso   1.00
H494   H     0.57937   0.86124   0.18330   0.00000  Uiso   1.00
H495   H     0.62529   0.92156   0.10388   0.00000  Uiso   1.00
H496   H     0.79817   0.87594   0.22356   0.00000  Uiso   1.00
H497   H     0.56715   0.90938   0.10777   0.00000  Uiso   1.00
H498   H     0.56662   0.95100   0.19042   0.00000  Uiso   1.00
H499   H     0.58435   0.99006   0.14182   0.00000  Uiso   1.00
H500   H     0.62462   0.96510   0.18387   0.00000  Uiso   1.00
H501   H     0.87411   0.64634   0.20880   0.00000  Uiso   1.00
H502   H     0.92683   0.63022   0.18330   0.00000  Uiso   1.00
H503   H     0.83811   0.58528   0.15050   0.00000  Uiso   1.00
H504   H     0.89203   0.56839   0.13051   0.00000  Uiso   1.00
H505   H     0.91297   0.54539   0.21683   0.00000  Uiso   1.00
H506   H     0.86611   0.51166   0.19327   0.00000  Uiso   1.00
H507   H     0.76638   0.53597   0.24408   0.00000  Uiso   1.00
H508   H     0.85785   0.56055   0.23602   0.00000  Uiso   1.00
H509   H     0.84751   0.88180   0.13565   0.00000  Uiso   1.00
H510   H     0.86849   0.83361   0.09975   0.00000  Uiso   1.00
H511   H     0.92475   0.91806   0.14310   0.00000  Uiso   1.00
H512   H     0.94293   0.87226   0.10083   0.00000  Uiso   1.00
H513   H     0.88779   0.90146   0.03822   0.00000  Uiso   1.00
H514   H     0.92635   0.94813   0.05723   0.00000  Uiso   1.00
H515   H     0.87109   0.94828   0.08050   0.00000  Uiso   1.00
H516   H     0.65229   0.61413   0.14501   0.00000  Uiso   1.00
H517   H     0.63491   0.66217   0.10585   0.00000  Uiso   1.00
H518   H     0.69998   0.96360   0.10931   0.00000  Uiso   1.00
H519   H     0.57424   0.58204   0.14690   0.00000  Uiso   1.00
H520   H     0.55844   0.62787   0.10315   0.00000  Uiso   1.00
H521   H     0.61398   0.59527   0.04452   0.00000  Uiso   1.00
H522   H     0.57328   0.55052   0.06117   0.00000  Uiso   1.00
H523   H     0.62796   0.54847   0.08807   0.00000  Uiso   1.00
H524   H     0.73348   0.53516   0.08935   0.00000  Uiso   1.00
H525   H     0.79986   0.96465   0.22428   0.00000  Uiso   1.00
H526   H     0.99237   0.82289   0.03486   0.00000  Uiso   1.00
N527   N     0.75000   0.62934   0.16667   0.00000  Uiso   1.00
N528   N     0.75000   0.87066   0.16667   0.00000  Uiso   1.00
O529   O     0.68573   0.79072   0.16667   0.00000  Uiso   1.00
O530   O     0.96814   0.67261   0.10580   0.00000  Uiso   1.00
O531   O     0.97914   0.83233   0.17781   0.00000  Uiso   1.00
O532   O     0.52215   0.66758   0.18447   0.00000  Uiso   1.00
O533   O     0.61676   0.83012   0.12541   0.00000  Uiso   1.00
O534   O     0.88192   0.66528   0.13594   0.00000  Uiso   1.00
O535   O     0.88867   0.83747   0.17479   0.00000  Uiso   1.00
O536   O     0.61271   0.66249   0.17925   0.00000  Uiso   1.00
O537   O     0.81427   0.70928   0.16666   0.00000  Uiso   1.00
O538   O     0.81427   0.79071   0.16666   0.00000  Uiso   1.00
O539   O     0.68573   0.70928   0.16667   0.00000  Uiso   1.00
O540   O     0.75000   0.79071   0.09613   0.00000  Uiso   1.00
O541   O     0.75000   0.70929   0.23720   0.00000  Uiso   1.00
O542   O     0.75000   0.79071   0.23720   0.00000  Uiso   1.00
O543   O     0.75000   0.70929   0.09613   0.00000  Uiso   1.00
O544   O     0.52972   0.82039   0.09822   0.00000  Uiso   1.00
C545   C     0.16480   0.24968   0.49785   0.00000  Uiso   1.00
C546   C     0.27743   0.44631   0.53243   0.00000  Uiso   1.00
C547   C     0.24994   0.24995   0.40681   0.00000  Uiso   1.00
C548   C     0.25005   0.25005   0.59319   0.00000  Uiso   1.00
C549   C     0.24988   0.02714   0.50007   0.00000  Uiso   1.00
C550   C     0.24992   0.47254   0.50009   0.00000  Uiso   1.00
C551   C     0.24998   0.24992   0.35516   0.00000  Uiso   1.00
C552   C     0.25002   0.25006   0.64485   0.00000  Uiso   1.00
C553   C     0.04898   0.28518   0.46082   0.00000  Uiso   1.00
C554   C     0.44968   0.21000   0.46560   0.00000  Uiso   1.00
C555   C     0.45465   0.29136   0.49931   0.00000  Uiso   1.00
C556   C     0.33520   0.25017   0.49846   0.00000  Uiso   1.00
C557   C     0.04600   0.20736   0.50205   0.00000  Uiso   1.00
C558   C     0.09401   0.28888   0.47218   0.00000  Uiso   1.00
C559   C     0.40503   0.20790   0.47753   0.00000  Uiso   1.00
C560   C     0.40851   0.29345   0.49922   0.00000  Uiso   1.00
C561   C     0.09215   0.20559   0.50083   0.00000  Uiso   1.00
C562   C     0.11643   0.24838   0.49119   0.00000  Uiso   1.00
C563   C     0.38348   0.25041   0.49262   0.00000  Uiso   1.00
C564   C     0.02409   0.24698   0.48069   0.00000  Uiso   1.00
C565   C     0.47548   0.24963   0.48139   0.00000  Uiso   1.00
C566   C     0.01854   0.30029   0.38508   0.00000  Uiso   1.00
C567   C     0.25969   0.10468   0.54209   0.00000  Uiso   1.00
C568   C     0.05828   0.30000   0.35081   0.00000  Uiso   1.00
C569   C     0.05255   0.26196   0.64384   0.00000  Uiso   1.00
C570   C     0.45493   0.17607   0.38906   0.00000  Uiso   1.00
C571   C     0.43438   0.12821   0.37166   0.00000  Uiso   1.00
C572   C     0.41549   0.13225   0.65295   0.00000  Uiso   1.00
C573   C     0.48057   0.34003   0.56245   0.00000  Uiso   1.00
C574   C     0.46993   0.39294   0.57325   0.00000  Uiso   1.00
C575   C     0.47597   0.40495   0.62757   0.00000  Uiso   1.00
C576   C     0.02825   0.16066   0.56879   0.00000  Uiso   1.00
C577   C     0.02045   0.10725   0.58045   0.00000  Uiso   1.00
C578   C     0.22318   0.39493   0.46812   0.00000  Uiso   1.00
C579   C     0.03681   0.09471   0.63197   0.00000  Uiso   1.00
C580   C     0.10770   0.36825   0.49189   0.00000  Uiso   1.00
C581   C     0.09810   0.41433   0.46296   0.00000  Uiso   1.00
C582   C     0.09315   0.45774   0.49705   0.00000  Uiso   1.00
C583   C     0.39081   0.13333   0.50857   0.00000  Uiso   1.00
C584   C     0.37332   0.08296   0.49518   0.00000  Uiso   1.00
C585   C     0.37792   0.04809   0.53813   0.00000  Uiso   1.00
C586   C     0.37741   0.35989   0.46288   0.00000  Uiso   1.00
C587   C     0.41421   0.39381   0.44584   0.00000  Uiso   1.00
C588   C     0.39876   0.42478   0.40274   0.00000  Uiso   1.00
C589   C     0.24046   0.10424   0.45789   0.00000  Uiso   1.00
C590   C     0.12389   0.13759   0.46902   0.00000  Uiso   1.00
C591   C     0.08612   0.10523   0.45009   0.00000  Uiso   1.00
C592   C     0.10136   0.07290   0.40834   0.00000  Uiso   1.00
C593   C     0.27678   0.39552   0.53195   0.00000  Uiso   1.00
C594   C     0.25942   0.05391   0.54299   0.00000  Uiso   1.00
C595   C     0.22245   0.44570   0.46774   0.00000  Uiso   1.00
C596   C     0.24040   0.05345   0.45710   0.00000  Uiso   1.00
Cu597  Cu    0.25000   0.29821   0.50000   0.00000  Uiso   1.00
Cu598  Cu    0.25000   0.20178   0.50000   0.00000  Uiso   1.00
H599   H     0.26786   0.12402   0.57549   0.00000  Uiso   1.00
H600   H     0.00378   0.26358   0.38784   0.00000  Uiso   1.00
H601   H     0.06221   0.33628   0.33409   0.00000  Uiso   1.00
H602   H     0.08915   0.29182   0.37141   0.00000  Uiso   1.00
H603   H     0.05555   0.22525   0.65987   0.00000  Uiso   1.00
H604   H     0.07845   0.26668   0.61596   0.00000  Uiso   1.00
H605   H     0.01970   0.26499   0.62572   0.00000  Uiso   1.00
H606   H     0.48474   0.18325   0.36718   0.00000  Uiso   1.00
H607   H     0.43135   0.20600   0.38079   0.00000  Uiso   1.00
H608   H     0.45961   0.09933   0.37311   0.00000  Uiso   1.00
H609   H     0.40727   0.11761   0.39607   0.00000  Uiso   1.00
H610   H     0.20198   0.37488   0.44298   0.00000  Uiso   1.00
H611   H     0.38636   0.15635   0.65249   0.00000  Uiso   1.00
H612   H     0.40509   0.09596   0.63953   0.00000  Uiso   1.00
H613   H     0.44041   0.14720   0.62789   0.00000  Uiso   1.00
H614   H     0.01474   0.33285   0.57547   0.00000  Uiso   1.00
H615   H     0.45779   0.31637   0.58360   0.00000  Uiso   1.00
H616   H     0.49179   0.41680   0.55161   0.00000  Uiso   1.00
H617   H     0.43523   0.40032   0.56231   0.00000  Uiso   1.00
H618   H     0.45399   0.38186   0.64981   0.00000  Uiso   1.00
H619   H     0.46743   0.44338   0.63403   0.00000  Uiso   1.00
H620   H     0.01074   0.39936   0.63939   0.00000  Uiso   1.00
H621   H     0.23249   0.12325   0.42444   0.00000  Uiso   1.00
H622   H     0.00388   0.18286   0.58861   0.00000  Uiso   1.00
H623   H     0.06174   0.17113   0.58259   0.00000  Uiso   1.00
H624   H     0.48480   0.09853   0.57665   0.00000  Uiso   1.00
H625   H     0.03828   0.08431   0.55404   0.00000  Uiso   1.00
H626   H     0.07334   0.09706   0.63370   0.00000  Uiso   1.00
H627   H     0.02659   0.05725   0.64117   0.00000  Uiso   1.00
H628   H     0.02317   0.11998   0.65931   0.00000  Uiso   1.00
H629   H     0.13734   0.37423   0.51568   0.00000  Uiso   1.00
H630   H     0.07937   0.36124   0.51663   0.00000  Uiso   1.00
H631   H     0.12529   0.42156   0.43721   0.00000  Uiso   1.00
H632   H     0.29817   0.37594   0.55690   0.00000  Uiso   1.00
H633   H     0.06715   0.40938   0.44111   0.00000  Uiso   1.00
H634   H     0.06662   0.45100   0.52375   0.00000  Uiso   1.00
H635   H     0.08435   0.49006   0.47516   0.00000  Uiso   1.00
H636   H     0.12462   0.46510   0.51720   0.00000  Uiso   1.00
H637   H     0.37411   0.14634   0.54214   0.00000  Uiso   1.00
H638   H     0.42683   0.13022   0.51663   0.00000  Uiso   1.00
H639   H     0.33811   0.08528   0.48383   0.00000  Uiso   1.00
H640   H     0.39203   0.06839   0.46385   0.00000  Uiso   1.00
H641   H     0.41297   0.04539   0.55017   0.00000  Uiso   1.00
H642   H     0.36611   0.01166   0.52660   0.00000  Uiso   1.00
H643   H     0.26638   0.03597   0.57741   0.00000  Uiso   1.00
H644   H     0.35785   0.06055   0.56935   0.00000  Uiso   1.00
H645   H     0.34751   0.38180   0.46898   0.00000  Uiso   1.00
H646   H     0.36849   0.33361   0.43308   0.00000  Uiso   1.00
H647   H     0.42475   0.41806   0.47643   0.00000  Uiso   1.00
H648   H     0.44293   0.37226   0.43416   0.00000  Uiso   1.00
H649   H     0.38779   0.40146   0.37156   0.00000  Uiso   1.00
H650   H     0.42635   0.44813   0.39056   0.00000  Uiso   1.00
H651   H     0.37109   0.44828   0.41384   0.00000  Uiso   1.00
H652   H     0.15229   0.11413   0.47834   0.00000  Uiso   1.00
H653   H     0.13491   0.16217   0.43919   0.00000  Uiso   1.00
H654   H     0.19998   0.46360   0.44264   0.00000  Uiso   1.00
H655   H     0.07424   0.08204   0.48023   0.00000  Uiso   1.00
H656   H     0.05844   0.12787   0.43649   0.00000  Uiso   1.00
H657   H     0.11398   0.09527   0.37786   0.00000  Uiso   1.00
H658   H     0.07328   0.05052   0.39450   0.00000  Uiso   1.00
H659   H     0.12796   0.04847   0.42140   0.00000  Uiso   1.00
H660   H     0.23348   0.03516   0.42268   0.00000  Uiso   1.00
H661   H     0.29986   0.46465   0.55761   0.00000  Uiso   1.00
H662   H     0.49237   0.32289   0.36819   0.00000  Uiso   1.00
N663   N     0.25000   0.12934   0.50000   0.00000  Uiso   1.00
N664   N     0.25000   0.37066   0.50000   0.00000  Uiso   1.00
O665   O     0.18573   0.29072   0.50000   0.00000  Uiso   1.00
O666   O     0.46814   0.17261   0.43913   0.00000  Uiso   1.00
O667   O     0.47914   0.33233   0.51115   0.00000  Uiso   1.00
O668   O     0.02215   0.16758   0.51780   0.00000  Uiso   1.00
O669   O     0.11676   0.33012   0.45874   0.00000  Uiso   1.00
O670   O     0.38192   0.16528   0.46928   0.00000  Uiso   1.00
O671   O     0.38867   0.33747   0.50812   0.00000  Uiso   1.00
O672   O     0.11271   0.16249   0.51258   0.00000  Uiso   1.00
O673   O     0.31427   0.20928   0.50000   0.00000  Uiso   1.00
O674   O     0.31427   0.29071   0.50000   0.00000  Uiso   1.00
O675   O     0.18573   0.20928   0.50000   0.00000  Uiso   1.00
O676   O     0.25000   0.29071   0.42946   0.00000  Uiso   1.00
O677   O     0.25000   0.20929   0.57054   0.00000  Uiso   1.00
O678   O     0.25000   0.29071   0.57054   0.00000  Uiso   1.00
O679   O     0.25000   0.20929   0.42946   0.00000  Uiso   1.00
O680   O     0.02972   0.32039   0.43156   0.00000  Uiso   1.00
C681   C     0.66480   0.24968   0.49785   0.00000  Uiso   1.00
C682   C     0.77743   0.44631   0.53243   0.00000  Uiso   1.00
C683   C     0.74994   0.24995   0.40681   0.00000  Uiso   1.00
C684   C     0.75005   0.25005   0.59319   0.00000  Uiso   1.00
C685   C     0.74988   0.02714   0.50007   0.00000  Uiso   1.00
C686   C     0.74992   0.47254   0.50009   0.00000  Uiso   1.00
C687   C     0.74998   0.24992   0.35516   0.00000  Uiso   1.00
C688   C     0.75002   0.25006   0.64485   0.00000  Uiso   1.00
C689   C     0.54898   0.28518   0.46082   0.00000  Uiso   1.00
C690   C     0.94968   0.21000   0.46560   0.00000  Uiso   1.00
C691   C     0.95465   0.29136   0.49931   0.00000  Uiso   1.00
C692   C     0.83520   0.25017   0.49846   0.00000  Uiso   1.00
C693   C     0.54600   0.20736   0.50205   0.00000  Uiso   1.00
C694   C     0.59401   0.28888   0.47218   0.00000  Uiso   1.00
C695   C     0.90503   0.20790   0.47753   0.00000  Uiso   1.00
C696   C     0.90851   0.29345   0.49922   0.00000  Uiso   1.00
C697   C     0.59215   0.20559   0.50083   0.00000  Uiso   1.00
C698   C     0.61643   0.24838   0.49119   0.00000  Uiso   1.00
C699   C     0.88348   0.25041   0.49262   0.00000  Uiso   1.00
C700   C     0.52409   0.24698   0.48069   0.00000  Uiso   1.00
C701   C     0.97548   0.24963   0.48139   0.00000  Uiso   1.00
C702   C     0.51854   0.30029   0.38508   0.00000  Uiso   1.00
C703   C     0.75969   0.10468   0.54209   0.00000  Uiso   1.00
C704   C     0.55828   0.30000   0.35081   0.00000  Uiso   1.00
C705   C     0.55255   0.26196   0.64384   0.00000  Uiso   1.00
C706   C     0.95493   0.17607   0.38906   0.00000  Uiso   1.00
C707   C     0.93438   0.12821   0.37166   0.00000  Uiso   1.00
C708   C     0.91549   0.13225   0.65295   0.00000  Uiso   1.00
C709   C     0.98057   0.34003   0.56245   0.00000  Uiso   1.00
C710   C     0.96993   0.39294   0.57325   0.00000  Uiso   1.00
C711   C     0.97597   0.40495   0.62757   0.00000  Uiso   1.00
C712   C     0.52825   0.16066   0.56879   0.00000  Uiso   1.00
C713   C     0.52045   0.10725   0.58045   0.00000  Uiso   1.00
C714   C     0.72318   0.39493   0.46812   0.00000  Uiso   1.00
C715   C     0.53681   0.09471   0.63197   0.00000  Uiso   1.00
C716   C     0.60770   0.36825   0.49189   0.00000  Uiso   1.00
C717   C     0.59810   0.41433   0.46296   0.00000  Uiso   1.00
C718   C     0.59315   0.45774   0.49705   0.00000  Uiso   1.00
C719   C     0.89081   0.13333   0.50857   0.00000  Uiso   1.00
C720   C     0.87332   0.08296   0.49518   0.00000  Uiso   1.00
C721   C     0.87792   0.04809   0.53813   0.00000  Uiso   1.00
C722   C     0.87741   0.35989   0.46288   0.00000  Uiso   1.00
C723   C     0.91421   0.39381   0.44584   0.00000  Uiso   1.00
C724   C     0.89876   0.42478   0.40274   0.00000  Uiso   1.00
C725   C     0.74046   0.10424   0.45789   0.00000  Uiso   1.00
C726   C     0.62389   0.13759   0.46902   0.00000  Uiso   1.00
C727   C     0.58612   0.10523   0.45009   0.00000  Uiso   1.00
C728   C     0.60136   0.07290   0.40834   0.00000  Uiso   1.00
C729   C     0.77678   0.39552   0.53195   0.00000  Uiso   1.00
C730   C     0.75942   0.05391   0.54299   0.00000  Uiso   1.00
C731   C     0.72245   0.44570   0.46774   0.00000  Uiso   1.00
C732   C     0.74040   0.05345   0.45710   0.00000  Uiso   1.00
Cu733  Cu    0.75000   0.29821   0.50000   0.00000  Uiso   1.00
Cu734  Cu    0.75000   0.20178   0.50000   0.00000  Uiso   1.00
H735   H     0.76786   0.12402   0.57549   0.00000  Uiso   1.00
H736   H     0.50378   0.26358   0.38784   0.00000  Uiso   1.00
H737   H     0.56221   0.33628   0.33409   0.00000  Uiso   1.00
H738   H     0.58915   0.29182   0.37141   0.00000  Uiso   1.00
H739   H     0.55555   0.22525   0.65987   0.00000  Uiso   1.00
H740   H     0.57845   0.26668   0.61596   0.00000  Uiso   1.00
H741   H     0.51970   0.26499   0.62572   0.00000  Uiso   1.00
H742   H     0.98474   0.18325   0.36718   0.00000  Uiso   1.00
H743   H     0.93135   0.20600   0.38079   0.00000  Uiso   1.00
H744   H     0.95961   0.09933   0.37311   0.00000  Uiso   1.00
H745   H     0.90727   0.11761   0.39607   0.00000  Uiso   1.00
H746   H     0.70198   0.37488   0.44298   0.00000  Uiso   1.00
H747   H     0.88636   0.15635   0.65249   0.00000  Uiso   1.00
H748   H     0.90509   0.09596   0.63953   0.00000  Uiso   1.00
H749   H     0.94041   0.14720   0.62789   0.00000  Uiso   1.00
H750   H     0.51474   0.33285   0.57547   0.00000  Uiso   1.00
H751   H     0.95779   0.31637   0.58360   0.00000  Uiso   1.00
H752   H     0.99179   0.41680   0.55161   0.00000  Uiso   1.00
H753   H     0.93523   0.40032   0.56231   0.00000  Uiso   1.00
H754   H     0.95399   0.38186   0.64981   0.00000  Uiso   1.00
H755   H     0.96743   0.44338   0.63403   0.00000  Uiso   1.00
H756   H     0.51074   0.39936   0.63939   0.00000  Uiso   1.00
H757   H     0.73249   0.12325   0.42444   0.00000  Uiso   1.00
H758   H     0.50388   0.18286   0.58861   0.00000  Uiso   1.00
H759   H     0.56174   0.17113   0.58259   0.00000  Uiso   1.00
H760   H     0.98480   0.09853   0.57665   0.00000  Uiso   1.00
H761   H     0.53828   0.08431   0.55404   0.00000  Uiso   1.00
H762   H     0.57334   0.09706   0.63370   0.00000  Uiso   1.00
H763   H     0.52659   0.05725   0.64117   0.00000  Uiso   1.00
H764   H     0.52317   0.11998   0.65931   0.00000  Uiso   1.00
H765   H     0.63734   0.37423   0.51568   0.00000  Uiso   1.00
H766   H     0.57937   0.36124   0.51663   0.00000  Uiso   1.00
H767   H     0.62529   0.42156   0.43721   0.00000  Uiso   1.00
H768   H     0.79817   0.37594   0.55690   0.00000  Uiso   1.00
H769   H     0.56715   0.40938   0.44111   0.00000  Uiso   1.00
H770   H     0.56662   0.45100   0.52375   0.00000  Uiso   1.00
H771   H     0.58435   0.49006   0.47516   0.00000  Uiso   1.00
H772   H     0.62462   0.46510   0.51720   0.00000  Uiso   1.00
H773   H     0.87411   0.14634   0.54214   0.00000  Uiso   1.00
H774   H     0.92683   0.13022   0.51663   0.00000  Uiso   1.00
H775   H     0.83811   0.08528   0.48383   0.00000  Uiso   1.00
H776   H     0.89203   0.06839   0.46385   0.00000  Uiso   1.00
H777   H     0.91297   0.04539   0.55017   0.00000  Uiso   1.00
H778   H     0.86611   0.01166   0.52660   0.00000  Uiso   1.00
H779   H     0.76638   0.03597   0.57741   0.00000  Uiso   1.00
H780   H     0.85785   0.06055   0.56935   0.00000  Uiso   1.00
H781   H     0.84751   0.38180   0.46898   0.00000  Uiso   1.00
H782   H     0.86849   0.33361   0.43308   0.00000  Uiso   1.00
H783   H     0.92475   0.41806   0.47643   0.00000  Uiso   1.00
H784   H     0.94293   0.37226   0.43416   0.00000  Uiso   1.00
H785   H     0.88779   0.40146   0.37156   0.00000  Uiso   1.00
H786   H     0.92635   0.44813   0.39056   0.00000  Uiso   1.00
H787   H     0.87109   0.44828   0.41384   0.00000  Uiso   1.00
H788   H     0.65229   0.11413   0.47834   0.00000  Uiso   1.00
H789   H     0.63491   0.16217   0.43919   0.00000  Uiso   1.00
H790   H     0.69998   0.46360   0.44264   0.00000  Uiso   1.00
H791   H     0.57424   0.08204   0.48023   0.00000  Uiso   1.00
H792   H     0.55844   0.12787   0.43649   0.00000  Uiso   1.00
H793   H     0.61398   0.09527   0.37786   0.00000  Uiso   1.00
H794   H     0.57328   0.05052   0.39450   0.00000  Uiso   1.00
H795   H     0.62796   0.04847   0.42140   0.00000  Uiso   1.00
H796   H     0.73348   0.03516   0.42268   0.00000  Uiso   1.00
H797   H     0.79986   0.46465   0.55761   0.00000  Uiso   1.00
H798   H     0.99237   0.32289   0.36819   0.00000  Uiso   1.00
N799   N     0.75000   0.12934   0.50000   0.00000  Uiso   1.00
N800   N     0.75000   0.37066   0.50000   0.00000  Uiso   1.00
O801   O     0.68573   0.29072   0.50000   0.00000  Uiso   1.00
O802   O     0.96814   0.17261   0.43913   0.00000  Uiso   1.00
O803   O     0.97914   0.33233   0.51115   0.00000  Uiso   1.00
O804   O     0.52215   0.16758   0.51780   0.00000  Uiso   1.00
O805   O     0.61676   0.33012   0.45874   0.00000  Uiso   1.00
O806   O     0.88192   0.16528   0.46928   0.00000  Uiso   1.00
O807   O     0.88867   0.33747   0.50812   0.00000  Uiso   1.00
O808   O     0.61271   0.16249   0.51258   0.00000  Uiso   1.00
O809   O     0.81427   0.20928   0.50000   0.00000  Uiso   1.00
O810   O     0.81427   0.29071   0.50000   0.00000  Uiso   1.00
O811   O     0.68573   0.20928   0.50000   0.00000  Uiso   1.00
O812   O     0.75000   0.29071   0.42946   0.00000  Uiso   1.00
O813   O     0.75000   0.20929   0.57054   0.00000  Uiso   1.00
O814   O     0.75000   0.29071   0.57054   0.00000  Uiso   1.00
O815   O     0.75000   0.20929   0.42946   0.00000  Uiso   1.00
O816   O     0.52972   0.32039   0.43156   0.00000  Uiso   1.00
C817   C     0.16480   0.74968   0.49785   0.00000  Uiso   1.00
C818   C     0.27743   0.94631   0.53243   0.00000  Uiso   1.00
C819   C     0.24994   0.74995   0.40681   0.00000  Uiso   1.00
C820   C     0.25005   0.75005   0.59319   0.00000  Uiso   1.00
C821   C     0.24988   0.52714   0.50007   0.00000  Uiso   1.00
C822   C     0.24992   0.97254   0.50009   0.00000  Uiso   1.00
C823   C     0.24998   0.74992   0.35516   0.00000  Uiso   1.00
C824   C     0.25002   0.75006   0.64485   0.00000  Uiso   1.00
C825   C     0.04898   0.78518   0.46082   0.00000  Uiso   1.00
C826   C     0.44968   0.71000   0.46560   0.00000  Uiso   1.00
C827   C     0.45465   0.79136   0.49931   0.00000  Uiso   1.00
C828   C     0.33520   0.75017   0.49846   0.00000  Uiso   1.00
C829   C     0.04600   0.70736   0.50205   0.00000  Uiso   1.00
C830   C     0.09401   0.78888   0.47218   0.00000  Uiso   1.00
C831   C     0.40503   0.70790   0.47753   0.00000  Uiso   1.00
C832   C     0.40851   0.79345   0.49922   0.00000  Uiso   1.00
C833   C     0.09215   0.70559   0.50083   0.00000  Uiso   1.00
C834   C     0.11643   0.74838   0.49119   0.00000  Uiso   1.00
C835   C     0.38348   0.75041   0.49262   0.00000  Uiso   1.00
C836   C     0.02409   0.74698   0.48069   0.00000  Uiso   1.00
C837   C     0.47548   0.74963   0.48139   0.00000  Uiso   1.00
C838   C     0.01854   0.80029   0.38508   0.00000  Uiso   1.00
C839   C     0.25969   0.60468   0.54209   0.00000  Uiso   1.00
C840   C     0.05828   0.80000   0.35081   0.00000  Uiso   1.00
C841   C     0.05255   0.76196   0.64384   0.00000  Uiso   1.00
C842   C     0.45493   0.67607   0.38906   0.00000  Uiso   1.00
C843   C     0.43438   0.62821   0.37166   0.00000  Uiso   1.00
C844   C     0.41549   0.63225   0.65295   0.00000  Uiso   1.00
C845   C     0.48057   0.84003   0.56245   0.00000  Uiso   1.00
C846   C     0.46993   0.89294   0.57325   0.00000  Uiso   1.00
C847   C     0.47597   0.90495   0.62757   0.00000  Uiso   1.00
C848   C     0.02825   0.66066   0.56879   0.00000  Uiso   1.00
C849   C     0.02045   0.60725   0.58045   0.00000  Uiso   1.00
C850   C     0.22318   0.89493   0.46812   0.00000  Uiso   1.00
C851   C     0.03681   0.59471   0.63197   0.00000  Uiso   1.00
C852   C     0.10770   0.86825   0.49189   0.00000  Uiso   1.00
C853   C     0.09810   0.91433   0.46296   0.00000  Uiso   1.00
C854   C     0.09315   0.95774   0.49705   0.00000  Uiso   1.00
C855   C     0.39081   0.63333   0.50857   0.00000  Uiso   1.00
C856   C     0.37332   0.58296   0.49518   0.00000  Uiso   1.00
C857   C     0.37792   0.54809   0.53813   0.00000  Uiso   1.00
C858   C     0.37741   0.85989   0.46288   0.00000  Uiso   1.00
C859   C     0.41421   0.89381   0.44584   0.00000  Uiso   1.00
C860   C     0.39876   0.92478   0.40274   0.00000  Uiso   1.00
C861   C     0.24046   0.60424   0.45789   0.00000  Uiso   1.00
C862   C     0.12389   0.63759   0.46902   0.00000  Uiso   1.00
C863   C     0.08612   0.60523   0.45009   0.00000  Uiso   1.00
C864   C     0.10136   0.57290   0.40834   0.00000  Uiso   1.00
C865   C     0.27678   0.89552   0.53195   0.00000  Uiso   1.00
C866   C     0.25942   0.55391   0.54299   0.00000  Uiso   1.00
C867   C     0.22245   0.94570   0.46774   0.00000  Uiso   1.00
C868   C     0.24040   0.55345   0.45710   0.00000  Uiso   1.00
Cu869  Cu    0.25000   0.79821   0.50000   0.00000  Uiso   1.00
Cu870  Cu    0.25000   0.70178   0.50000   0.00000  Uiso   1.00
H871   H     0.26786   0.62402   0.57549   0.00000  Uiso   1.00
H872   H     0.00378   0.76358   0.38784   0.00000  Uiso   1.00
H873   H     0.06221   0.83628   0.33409   0.00000  Uiso   1.00
H874   H     0.08915   0.79182   0.37141   0.00000  Uiso   1.00
H875   H     0.05555   0.72525   0.65987   0.00000  Uiso   1.00
H876   H     0.07845   0.76668   0.61596   0.00000  Uiso   1.00
H877   H     0.01970   0.76499   0.62572   0.00000  Uiso   1.00
H878   H     0.48474   0.68325   0.36718   0.00000  Uiso   1.00
H879   H     0.43135   0.70600   0.38079   0.00000  Uiso   1.00
H880   H     0.45961   0.59933   0.37311   0.00000  Uiso   1.00
H881   H     0.40727   0.61761   0.39607   0.00000  Uiso   1.00
H882   H     0.20198   0.87488   0.44298   0.00000  Uiso   1.00
H883   H     0.38636   0.65635   0.65249   0.00000  Uiso   1.00
H884   H     0.40509   0.59596   0.63953   0.00000  Uiso   1.00
H885   H     0.44041   0.64720   0.62789   0.00000  Uiso   1.00
H886   H     0.01474   0.83285   0.57547   0.00000  Uiso   1.00
H887   H     0.45779   0.81637   0.58360   0.00000  Uiso   1.00
H888   H     0.49179   0.91680   0.55161   0.00000  Uiso   1.00
H889   H     0.43523   0.90032   0.56231   0.00000  Uiso   1.00
H890   H     0.45399   0.88186   0.64981   0.00000  Uiso   1.00
H891   H     0.46743   0.94338   0.63403   0.00000  Uiso   1.00
H892   H     0.01074   0.89936   0.63939   0.00000  Uiso   1.00
H893   H     0.23249   0.62325   0.42444   0.00000  Uiso   1.00
H894   H     0.00388   0.68286   0.58861   0.00000  Uiso   1.00
H895   H     0.06174   0.67113   0.58259   0.00000  Uiso   1.00
H896   H     0.48480   0.59853   0.57665   0.00000  Uiso   1.00
H897   H     0.03828   0.58431   0.55404   0.00000  Uiso   1.00
H898   H     0.07334   0.59706   0.63370   0.00000  Uiso   1.00
H899   H     0.02659   0.55725   0.64117   0.00000  Uiso   1.00
H900   H     0.02317   0.61998   0.65931   0.00000  Uiso   1.00
H901   H     0.13734   0.87423   0.51568   0.00000  Uiso   1.00
H902   H     0.07937   0.86124   0.51663   0.00000  Uiso   1.00
H903   H     0.12529   0.92156   0.43721   0.00000  Uiso   1.00
H904   H     0.29817   0.87594   0.55690   0.00000  Uiso   1.00
H905   H     0.06715   0.90938   0.44111   0.00000  Uiso   1.00
H906   H     0.06662   0.95100   0.52375   0.00000  Uiso   1.00
H907   H     0.08435   0.99006   0.47516   0.00000  Uiso   1.00
H908   H     0.12462   0.96510   0.51720   0.00000  Uiso   1.00
H909   H     0.37411   0.64634   0.54214   0.00000  Uiso   1.00
H910   H     0.42683   0.63022   0.51663   0.00000  Uiso   1.00
H911   H     0.33811   0.58528   0.48383   0.00000  Uiso   1.00
H912   H     0.39203   0.56839   0.46385   0.00000  Uiso   1.00
H913   H     0.41297   0.54539   0.55017   0.00000  Uiso   1.00
H914   H     0.36611   0.51166   0.52660   0.00000  Uiso   1.00
H915   H     0.26638   0.53597   0.57741   0.00000  Uiso   1.00
H916   H     0.35785   0.56055   0.56935   0.00000  Uiso   1.00
H917   H     0.34751   0.88180   0.46898   0.00000  Uiso   1.00
H918   H     0.36849   0.83361   0.43308   0.00000  Uiso   1.00
H919   H     0.42475   0.91806   0.47643   0.00000  Uiso   1.00
H920   H     0.44293   0.87226   0.43416   0.00000  Uiso   1.00
H921   H     0.38779   0.90146   0.37156   0.00000  Uiso   1.00
H922   H     0.42635   0.94813   0.39056   0.00000  Uiso   1.00
H923   H     0.37109   0.94828   0.41384   0.00000  Uiso   1.00
H924   H     0.15229   0.61413   0.47834   0.00000  Uiso   1.00
H925   H     0.13491   0.66217   0.43919   0.00000  Uiso   1.00
H926   H     0.19998   0.96360   0.44264   0.00000  Uiso   1.00
H927   H     0.07424   0.58204   0.48023   0.00000  Uiso   1.00
H928   H     0.05844   0.62787   0.43649   0.00000  Uiso   1.00
H929   H     0.11398   0.59527   0.37786   0.00000  Uiso   1.00
H930   H     0.07328   0.55052   0.39450   0.00000  Uiso   1.00
H931   H     0.12796   0.54847   0.42140   0.00000  Uiso   1.00
H932   H     0.23348   0.53516   0.42268   0.00000  Uiso   1.00
H933   H     0.29986   0.96465   0.55761   0.00000  Uiso   1.00
H934   H     0.49237   0.82289   0.36819   0.00000  Uiso   1.00
N935   N     0.25000   0.62934   0.50000   0.00000  Uiso   1.00
N936   N     0.25000   0.87066   0.50000   0.00000  Uiso   1.00
O937   O     0.18573   0.79072   0.50000   0.00000  Uiso   1.00
O938   O     0.46814   0.67261   0.43913   0.00000  Uiso   1.00
O939   O     0.47914   0.83233   0.51115   0.00000  Uiso   1.00
O940   O     0.02215   0.66758   0.51780   0.00000  Uiso   1.00
O941   O     0.11676   0.83012   0.45874   0.00000  Uiso   1.00
O942   O     0.38192   0.66528   0.46928   0.00000  Uiso   1.00
O943   O     0.38867   0.83747   0.50812   0.00000  Uiso   1.00
O944   O     0.11271   0.66249   0.51258   0.00000  Uiso   1.00
O945   O     0.31427   0.70928   0.50000   0.00000  Uiso   1.00
O946   O     0.31427   0.79071   0.50000   0.00000  Uiso   1.00
O947   O     0.18573   0.70928   0.50000   0.00000  Uiso   1.00
O948   O     0.25000   0.79071   0.42946   0.00000  Uiso   1.00
O949   O     0.25000   0.70929   0.57054   0.00000  Uiso   1.00
O950   O     0.25000   0.79071   0.57054   0.00000  Uiso   1.00
O951   O     0.25000   0.70929   0.42946   0.00000  Uiso   1.00
O952   O     0.02972   0.82039   0.43156   0.00000  Uiso   1.00
C953   C     0.66480   0.74968   0.49785   0.00000  Uiso   1.00
C954   C     0.77743   0.94631   0.53243   0.00000  Uiso   1.00
C955   C     0.74994   0.74995   0.40681   0.00000  Uiso   1.00
C956   C     0.75005   0.75005   0.59319   0.00000  Uiso   1.00
C957   C     0.74988   0.52714   0.50007   0.00000  Uiso   1.00
C958   C     0.74992   0.97254   0.50009   0.00000  Uiso   1.00
C959   C     0.74998   0.74992   0.35516   0.00000  Uiso   1.00
C960   C     0.75002   0.75006   0.64485   0.00000  Uiso   1.00
C961   C     0.54898   0.78518   0.46082   0.00000  Uiso   1.00
C962   C     0.94968   0.71000   0.46560   0.00000  Uiso   1.00
C963   C     0.95465   0.79136   0.49931   0.00000  Uiso   1.00
C964   C     0.83520   0.75017   0.49846   0.00000  Uiso   1.00
C965   C     0.54600   0.70736   0.50205   0.00000  Uiso   1.00
C966   C     0.59401   0.78888   0.47218   0.00000  Uiso   1.00
C967   C     0.90503   0.70790   0.47753   0.00000  Uiso   1.00
C968   C     0.90851   0.79345   0.49922   0.00000  Uiso   1.00
C969   C     0.59215   0.70559   0.50083   0.00000  Uiso   1.00
C970   C     0.61643   0.74838   0.49119   0.00000  Uiso   1.00
C971   C     0.88348   0.75041   0.49262   0.00000  Uiso   1.00
C972   C     0.52409   0.74698   0.48069   0.00000  Uiso   1.00
C973   C     0.97548   0.74963   0.48139   0.00000  Uiso   1.00
C974   C     0.51854   0.80029   0.38508   0.00000  Uiso   1.00
C975   C     0.75969   0.60468   0.54209   0.00000  Uiso   1.00
C976   C     0.55828   0.80000   0.35081   0.00000  Uiso   1.00
C977   C     0.55255   0.76196   0.64384   0.00000  Uiso   1.00
C978   C     0.95493   0.67607   0.38906   0.00000  Uiso   1.00
C979   C     0.93438   0.62821   0.37166   0.00000  Uiso   1.00
C980   C     0.91549   0.63225   0.65295   0.00000  Uiso   1.00
C981   C     0.98057   0.84003   0.56245   0.00000  Uiso   1.00
C982   C     0.96993   0.89294   0.57325   0.00000  Uiso   1.00
C983   C     0.97597   0.90495   0.62757   0.00000  Uiso   1.00
C984   C     0.52825   0.66066   0.56879   0.00000  Uiso   1.00
C985   C     0.52045   0.60725   0.58045   0.00000  Uiso   1.00
C986   C     0.72318   0.89493   0.46812   0.00000  Uiso   1.00
C987   C     0.53681   0.59471   0.63197   0.00000  Uiso   1.00
C988   C     0.60770   0.86825   0.49189   0.00000  Uiso   1.00
C989   C     0.59810   0.91433   0.46296   0.00000  Uiso   1.00
C990   C     0.59315   0.95774   0.49705   0.00000  Uiso   1.00
C991   C     0.89081   0.63333   0.50857   0.00000  Uiso   1.00
C992   C     0.87332   0.58296   0.49518   0.00000  Uiso   1.00
C993   C     0.87792   0.54809   0.53813   0.00000  Uiso   1.00
C994   C     0.87741   0.85989   0.46288   0.00000  Uiso   1.00
C995   C     0.91421   0.89381   0.44584   0.00000  Uiso   1.00
C996   C     0.89876   0.92478   0.40274   0.00000  Uiso   1.00
C997   C     0.74046   0.60424   0.45789   0.00000  Uiso   1.00
C998   C     0.62389   0.63759   0.46902   0.00000  Uiso   1.00
C999   C     0.58612   0.60523   0.45009   0.00000  Uiso   1.00
C1000  C     0.60136   0.57290   0.40834   0.00000  Uiso   1.00
C1001  C     0.77678   0.89552   0.53195   0.00000  Uiso   1.00
C1002  C     0.75942   0.55391   0.54299   0.00000  Uiso   1.00
C1003  C     0.72245   0.94570   0.46774   0.00000  Uiso   1.00
C1004  C     0.74040   0.55345   0.45710   0.00000  Uiso   1.00
Cu1005 Cu    0.75000   0.79821   0.50000   0.00000  Uiso   1.00
Cu1006 Cu    0.75000   0.70178   0.50000   0.00000  Uiso   1.00
H1007  H     0.76786   0.62402   0.57549   0.00000  Uiso   1.00
H1008  H     0.50378   0.76358   0.38784   0.00000  Uiso   1.00
H1009  H     0.56221   0.83628   0.33409   0.00000  Uiso   1.00
H1010  H     0.58915   0.79182   0.37141   0.00000  Uiso   1.00
H1011  H     0.55555   0.72525   0.65987   0.00000  Uiso   1.00
H1012  H     0.57845   0.76668   0.61596   0.00000  Uiso   1.00
H1013  H     0.51970   0.76499   0.62572   0.00000  Uiso   1.00
H1014  H     0.98474   0.68325   0.36718   0.00000  Uiso   1.00
H1015  H     0.93135   0.70600   0.38079   0.00000  Uiso   1.00
H1016  H     0.95961   0.59933   0.37311   0.00000  Uiso   1.00
H1017  H     0.90727   0.61761   0.39607   0.00000  Uiso   1.00
H1018  H     0.70198   0.87488   0.44298   0.00000  Uiso   1.00
H1019  H     0.88636   0.65635   0.65249   0.00000  Uiso   1.00
H1020  H     0.90509   0.59596   0.63953   0.00000  Uiso   1.00
H1021  H     0.94041   0.64720   0.62789   0.00000  Uiso   1.00
H1022  H     0.51474   0.83285   0.57547   0.00000  Uiso   1.00
H1023  H     0.95779   0.81637   0.58360   0.00000  Uiso   1.00
H1024  H     0.99179   0.91680   0.55161   0.00000  Uiso   1.00
H1025  H     0.93523   0.90032   0.56231   0.00000  Uiso   1.00
H1026  H     0.95399   0.88186   0.64981   0.00000  Uiso   1.00
H1027  H     0.96743   0.94338   0.63403   0.00000  Uiso   1.00
H1028  H     0.51074   0.89936   0.63939   0.00000  Uiso   1.00
H1029  H     0.73249   0.62325   0.42444   0.00000  Uiso   1.00
H1030  H     0.50388   0.68286   0.58861   0.00000  Uiso   1.00
H1031  H     0.56174   0.67113   0.58259   0.00000  Uiso   1.00
H1032  H     0.98480   0.59853   0.57665   0.00000  Uiso   1.00
H1033  H     0.53828   0.58431   0.55404   0.00000  Uiso   1.00
H1034  H     0.57334   0.59706   0.63370   0.00000  Uiso   1.00
H1035  H     0.52659   0.55725   0.64117   0.00000  Uiso   1.00
H1036  H     0.52317   0.61998   0.65931   0.00000  Uiso   1.00
H1037  H     0.63734   0.87423   0.51568   0.00000  Uiso   1.00
H1038  H     0.57937   0.86124   0.51663   0.00000  Uiso   1.00
H1039  H     0.62529   0.92156   0.43721   0.00000  Uiso   1.00
H1040  H     0.79817   0.87594   0.55690   0.00000  Uiso   1.00
H1041  H     0.56715   0.90938   0.44111   0.00000  Uiso   1.00
H1042  H     0.56662   0.95100   0.52375   0.00000  Uiso   1.00
H1043  H     0.58435   0.99006   0.47516   0.00000  Uiso   1.00
H1044  H     0.62462   0.96510   0.51720   0.00000  Uiso   1.00
H1045  H     0.87411   0.64634   0.54214   0.00000  Uiso   1.00
H1046  H     0.92683   0.63022   0.51663   0.00000  Uiso   1.00
H1047  H     0.83811   0.58528   0.48383   0.00000  Uiso   1.00
H1048  H     0.89203   0.56839   0.46385   0.00000  Uiso   1.00
H1049  H     0.91297   0.54539   0.55017   0.00000  Uiso   1.00
H1050  H     0.86611   0.51166   0.52660   0.00000  Uiso   1.00
H1051  H     0.76638   0.53597   0.57741   0.00000  Uiso   1.00
H1052  H     0.85785   0.56055   0.56935   0.00000  Uiso   1.00
H1053  H     0.84751   0.88180   0.46898   0.00000  Uiso   1.00
H1054  H     0.86849   0.83361   0.43308   0.00000  Uiso   1.00
H1055  H     0.92475   0.91806   0.47643   0.00000  Uiso   1.00
H1056  H     0.94293   0.87226   0.43416   0.00000  Uiso   1.00
H1057  H     0.88779   0.90146   0.37156   0.00000  Uiso   1.00
H1058  H     0.92635   0.94813   0.39056   0.00000  Uiso   1.00
H1059  H     0.87109   0.94828   0.41384   0.00000  Uiso   1.00
H1060  H     0.65229   0.61413   0.47834   0.00000  Uiso   1.00
H1061  H     0.63491   0.66217   0.43919   0.00000  Uiso   1.00
H1062  H     0.69998   0.96360   0.44264   0.00000  Uiso   1.00
H1063  H     0.57424   0.58204   0.48023   0.00000  Uiso   1.00
H1064  H     0.55844   0.62787   0.43649   0.00000  Uiso   1.00
H1065  H     0.61398   0.59527   0.37786   0.00000  Uiso   1.00
H1066  H     0.57328   0.55052   0.39450   0.00000  Uiso   1.00
H1067  H     0.62796   0.54847   0.42140   0.00000  Uiso   1.00
H1068  H     0.73348   0.53516   0.42268   0.00000  Uiso   1.00
H1069  H     0.79986   0.96465   0.55761   0.00000  Uiso   1.00
H1070  H     0.99237   0.82289   0.36819   0.00000  Uiso   1.00
N1071  N     0.75000   0.62934   0.50000   0.00000  Uiso   1.00
N1072  N     0.75000   0.87066   0.50000   0.00000  Uiso   1.00
O1073  O     0.68573   0.79072   0.50000   0.00000  Uiso   1.00
O1074  O     0.96814   0.67261   0.43913   0.00000  Uiso   1.00
O1075  O     0.97914   0.83233   0.51115   0.00000  Uiso   1.00
O1076  O     0.52215   0.66758   0.51780   0.00000  Uiso   1.00
O1077  O     0.61676   0.83012   0.45874   0.00000  Uiso   1.00
O1078  O     0.88192   0.66528   0.46928   0.00000  Uiso   1.00
O1079  O     0.88867   0.83747   0.50812   0.00000  Uiso   1.00
O1080  O     0.61271   0.66249   0.51258   0.00000  Uiso   1.00
O1081  O     0.81427   0.70928   0.50000   0.00000  Uiso   1.00
O1082  O     0.81427   0.79071   0.50000   0.00000  Uiso   1.00
O1083  O     0.68573   0.70928   0.50000   0.00000  Uiso   1.00
O1084  O     0.75000   0.79071   0.42946   0.00000  Uiso   1.00
O1085  O     0.75000   0.70929   0.57054   0.00000  Uiso   1.00
O1086  O     0.75000   0.79071   0.57054   0.00000  Uiso   1.00
O1087  O     0.75000   0.70929   0.42946   0.00000  Uiso   1.00
O1088  O     0.52972   0.82039   0.43156   0.00000  Uiso   1.00
C1089  C     0.16480   0.24968   0.83118   0.00000  Uiso   1.00
C1090  C     0.27743   0.44631   0.86576   0.00000  Uiso   1.00
C1091  C     0.24994   0.24995   0.74015   0.00000  Uiso   1.00
C1092  C     0.25005   0.25005   0.92652   0.00000  Uiso   1.00
C1093  C     0.24988   0.02714   0.83340   0.00000  Uiso   1.00
C1094  C     0.24992   0.47254   0.83342   0.00000  Uiso   1.00
C1095  C     0.24998   0.24992   0.68849   0.00000  Uiso   1.00
C1096  C     0.25002   0.25006   0.97818   0.00000  Uiso   1.00
C1097  C     0.04898   0.28518   0.79415   0.00000  Uiso   1.00
C1098  C     0.44968   0.21000   0.79893   0.00000  Uiso   1.00
C1099  C     0.45465   0.29136   0.83264   0.00000  Uiso   1.00
C1100  C     0.33520   0.25017   0.83180   0.00000  Uiso   1.00
C1101  C     0.04600   0.20736   0.83538   0.00000  Uiso   1.00
C1102  C     0.09401   0.28888   0.80551   0.00000  Uiso   1.00
C1103  C     0.40503   0.20790   0.81086   0.00000  Uiso   1.00
C1104  C     0.40851   0.29345   0.83255   0.00000  Uiso   1.00
C1105  C     0.09215   0.20559   0.83416   0.00000  Uiso   1.00
C1106  C     0.11643   0.24838   0.82453   0.00000  Uiso   1.00
C1107  C     0.38348   0.25041   0.82596   0.00000  Uiso   1.00
C1108  C     0.02409   0.24698   0.81402   0.00000  Uiso   1.00
C1109  C     0.47548   0.24963   0.81472   0.00000  Uiso   1.00
C1110  C     0.01854   0.30029   0.71842   0.00000  Uiso   1.00
C1111  C     0.25969   0.10468   0.87542   0.00000  Uiso   1.00
C1112  C     0.05828   0.30000   0.68415   0.00000  Uiso   1.00
C1113  C     0.05255   0.26196   0.97717   0.00000  Uiso   1.00
C1114  C     0.45493   0.17607   0.72239   0.00000  Uiso   1.00
C1115  C     0.43438   0.12821   0.70499   0.00000  Uiso   1.00
C1116  C     0.41549   0.13225   0.98628   0.00000  Uiso   1.00
C1117  C     0.48057   0.34003   0.89578   0.00000  Uiso   1.00
C1118  C     0.46993   0.39294   0.90658   0.00000  Uiso   1.00
C1119  C     0.47597   0.40495   0.96090   0.00000  Uiso   1.00
C1120  C     0.02825   0.16066   0.90213   0.00000  Uiso   1.00
C1121  C     0.02045   0.10725   0.91379   0.00000  Uiso   1.00
C1122  C     0.22318   0.39493   0.80145   0.00000  Uiso   1.00
C1123  C     0.03681   0.09471   0.96530   0.00000  Uiso   1.00
C1124  C     0.10770   0.36825   0.82522   0.00000  Uiso   1.00
C1125  C     0.09810   0.41433   0.79630   0.00000  Uiso   1.00
C1126  C     0.09315   0.45774   0.83038   0.00000  Uiso   1.00
C1127  C     0.39081   0.13333   0.84191   0.00000  Uiso   1.00
C1128  C     0.37332   0.08296   0.82851   0.00000  Uiso   1.00
C1129  C     0.37792   0.04809   0.87147   0.00000  Uiso   1.00
C1130  C     0.37741   0.35989   0.79622   0.00000  Uiso   1.00
C1131  C     0.41421   0.39381   0.77918   0.00000  Uiso   1.00
C1132  C     0.39876   0.42478   0.73607   0.00000  Uiso   1.00
C1133  C     0.24046   0.10424   0.79122   0.00000  Uiso   1.00
C1134  C     0.12389   0.13759   0.80236   0.00000  Uiso   1.00
C1135  C     0.08612   0.10523   0.78343   0.00000  Uiso   1.00
C1136  C     0.10136   0.07290   0.74167   0.00000  Uiso   1.00
C1137  C     0.27678   0.39552   0.86528   0.00000  Uiso   1.00
C1138  C     0.25942   0.05391   0.87633   0.00000  Uiso   1.00
C1139  C     0.22245   0.44570   0.80107   0.00000  Uiso   1.00
C1140  C     0.24040   0.05345   0.79043   0.00000  Uiso   1.00
Cu1141 Cu    0.25000   0.29821   0.83333   0.00000  Uiso   1.00
Cu1142 Cu    0.25000   0.20178   0.83333   0.00000  Uiso   1.00
H1143  H     0.26786   0.12402   0.90883   0.00000  Uiso   1.00
H1144  H     0.00378   0.26358   0.72118   0.00000  Uiso   1.00
H1145  H     0.06221   0.33628   0.66742   0.00000  Uiso   1.00
H1146  H     0.08915   0.29182   0.70474   0.00000  Uiso   1.00
H1147  H     0.05555   0.22525   0.99320   0.00000  Uiso   1.00
H1148  H     0.07845   0.26668   0.94929   0.00000  Uiso   1.00
H1149  H     0.01970   0.26499   0.95905   0.00000  Uiso   1.00
H1150  H     0.48474   0.18325   0.70051   0.00000  Uiso   1.00
H1151  H     0.43135   0.20600   0.71412   0.00000  Uiso   1.00
H1152  H     0.45961   0.09933   0.70645   0.00000  Uiso   1.00
H1153  H     0.40727   0.11761   0.72941   0.00000  Uiso   1.00
H1154  H     0.20198   0.37488   0.77631   0.00000  Uiso   1.00
H1155  H     0.38636   0.15635   0.98583   0.00000  Uiso   1.00
H1156  H     0.40509   0.09596   0.97286   0.00000  Uiso   1.00
H1157  H     0.44041   0.14720   0.96122   0.00000  Uiso   1.00
H1158  H     0.01474   0.33285   0.90880   0.00000  Uiso   1.00
H1159  H     0.45779   0.31637   0.91693   0.00000  Uiso   1.00
H1160  H     0.49179   0.41680   0.88494   0.00000  Uiso   1.00
H1161  H     0.43523   0.40032   0.89564   0.00000  Uiso   1.00
H1162  H     0.45399   0.38186   0.98314   0.00000  Uiso   1.00
H1163  H     0.46743   0.44338   0.96736   0.00000  Uiso   1.00
H1164  H     0.01074   0.39936   0.97272   0.00000  Uiso   1.00
H1165  H     0.23249   0.12325   0.75777   0.00000  Uiso   1.00
H1166  H     0.00388   0.18286   0.92195   0.00000  Uiso   1.00
H1167  H     0.06174   0.17113   0.91593   0.00000  Uiso   1.00
H1168  H     0.48480   0.09853   0.90998   0.00000  Uiso   1.00
H1169  H     0.03828   0.08431   0.88737   0.00000  Uiso   1.00
H1170  H     0.07334   0.09706   0.96703   0.00000  Uiso   1.00
H1171  H     0.02659   0.05725   0.97450   0.00000  Uiso   1.00
H1172  H     0.02317   0.11998   0.99264   0.00000  Uiso   1.00
H1173  H     0.13734   0.37423   0.84902   0.00000  Uiso   1.00
H1174  H     0.07937   0.36124   0.84996   0.00000  Uiso   1.00
H1175  H     0.12529   0.42156   0.77054   0.00000  Uiso   1.00
H1176  H     0.29817   0.37594   0.89023   0.00000  Uiso   1.00
H1177  H     0.06715   0.40938   0.77444   0.00000  Uiso   1.00
H1178  H     0.06662   0.45100   0.85709   0.00000  Uiso   1.00
H1179  H     0.08435   0.49006   0.80849   0.00000  Uiso   1.00
H1180  H     0.12462   0.46510   0.85054   0.00000  Uiso   1.00
H1181  H     0.37411   0.14634   0.87547   0.00000  Uiso   1.00
H1182  H     0.42683   0.13022   0.84996   0.00000  Uiso   1.00
H1183  H     0.33811   0.08528   0.81717   0.00000  Uiso   1.00
H1184  H     0.39203   0.06839   0.79718   0.00000  Uiso   1.00
H1185  H     0.41297   0.04539   0.88350   0.00000  Uiso   1.00
H1186  H     0.36611   0.01166   0.85993   0.00000  Uiso   1.00
H1187  H     0.26638   0.03597   0.91074   0.00000  Uiso   1.00
H1188  H     0.35785   0.06055   0.90268   0.00000  Uiso   1.00
H1189  H     0.34751   0.38180   0.80232   0.00000  Uiso   1.00
H1190  H     0.36849   0.33361   0.76642   0.00000  Uiso   1.00
H1191  H     0.42475   0.41806   0.80976   0.00000  Uiso   1.00
H1192  H     0.44293   0.37226   0.76750   0.00000  Uiso   1.00
H1193  H     0.38779   0.40146   0.70489   0.00000  Uiso   1.00
H1194  H     0.42635   0.44813   0.72389   0.00000  Uiso   1.00
H1195  H     0.37109   0.44828   0.74717   0.00000  Uiso   1.00
H1196  H     0.15229   0.11413   0.81168   0.00000  Uiso   1.00
H1197  H     0.13491   0.16217   0.77252   0.00000  Uiso   1.00
H1198  H     0.19998   0.46360   0.77597   0.00000  Uiso   1.00
H1199  H     0.07424   0.08204   0.81356   0.00000  Uiso   1.00
H1200  H     0.05844   0.12787   0.76982   0.00000  Uiso   1.00
H1201  H     0.11398   0.09527   0.71119   0.00000  Uiso   1.00
H1202  H     0.07328   0.05052   0.72784   0.00000  Uiso   1.00
H1203  H     0.12796   0.04847   0.75474   0.00000  Uiso   1.00
H1204  H     0.23348   0.03516   0.75602   0.00000  Uiso   1.00
H1205  H     0.29986   0.46465   0.89094   0.00000  Uiso   1.00
H1206  H     0.49237   0.32289   0.70153   0.00000  Uiso   1.00
N1207  N     0.25000   0.12934   0.83333   0.00000  Uiso   1.00
N1208  N     0.25000   0.37066   0.83333   0.00000  Uiso   1.00
O1209  O     0.18573   0.29072   0.83334   0.00000  Uiso   1.00
O1210  O     0.46814   0.17261   0.77246   0.00000  Uiso   1.00
O1211  O     0.47914   0.33233   0.84448   0.00000  Uiso   1.00
O1212  O     0.02215   0.16758   0.85114   0.00000  Uiso   1.00
O1213  O     0.11676   0.33012   0.79207   0.00000  Uiso   1.00
O1214  O     0.38192   0.16528   0.80261   0.00000  Uiso   1.00
O1215  O     0.38867   0.33747   0.84146   0.00000  Uiso   1.00
O1216  O     0.11271   0.16249   0.84592   0.00000  Uiso   1.00
O1217  O     0.31427   0.20928   0.83333   0.00000  Uiso   1.00
O1218  O     0.31427   0.29071   0.83333   0.00000  Uiso   1.00
O1219  O     0.18573   0.20928   0.83334   0.00000  Uiso   1.00
O1220  O     0.25000   0.29071   0.76280   0.00000  Uiso   1.00
O1221  O     0.25000   0.20929   0.90387   0.00000  Uiso   1.00
O1222  O     0.25000   0.29071   0.90387   0.00000  Uiso   1.00
O1223  O     0.25000   0.20929   0.76280   0.00000  Uiso   1.00
O1224  O     0.02972   0.32039   0.76489   0.00000  Uiso   1.00
C1225  C     0.66480   0.24968   0.83118   0.00000  Uiso   1.00
C1226  C     0.77743   0.44631   0.86576   0.00000  Uiso   1.00
C1227  C     0.74994   0.24995   0.74015   0.00000  Uiso   1.00
C1228  C     0.75005   0.25005   0.92652   0.00000  Uiso   1.00
C1229  C     0.74988   0.02714   0.83340   0.00000  Uiso   1.00
C1230  C     0.74992   0.47254   0.83342   0.00000  Uiso   1.00
C1231  C     0.74998   0.24992   0.68849   0.00000  Uiso   1.00
C1232  C     0.75002   0.25006   0.97818   0.00000  Uiso   1.00
C1233  C     0.54898   0.28518   0.79415   0.00000  Uiso   1.00
C1234  C     0.94968   0.21000   0.79893   0.00000  Uiso   1.00
C1235  C     0.95465   0.29136   0.83264   0.00000  Uiso   1.00
C1236  C     0.83520   0.25017   0.83180   0.00000  Uiso   1.00
C1237  C     0.54600   0.20736   0.83538   0.00000  Uiso   1.00
C1238  C     0.59401   0.28888   0.80551   0.00000  Uiso   1.00
C1239  C     0.90503   0.20790   0.81086   0.00000  Uiso   1.00
C1240  C     0.90851   0.29345   0.83255   0.00000  Uiso   1.00
C1241  C     0.59215   0.20559   0.83416   0.00000  Uiso   1.00
C1242  C     0.61643   0.24838   0.82453   0.00000  Uiso   1.00
C1243  C     0.88348   0.25041   0.82596   0.00000  Uiso   1.00
C1244  C     0.52409   0.24698   0.81402   0.00000  Uiso   1.00
C1245  C     0.97548   0.24963   0.81472   0.00000  Uiso   1.00
C1246  C     0.51854   0.30029   0.71842   0.00000  Uiso   1.00
C1247  C     0.75969   0.10468   0.87542   0.00000  Uiso   1.00
C1248  C     0.55828   0.30000   0.68415   0.00000  Uiso   1.00
C1249  C     0.55255   0.26196   0.97717   0.00000  Uiso   1.00
C1250  C     0.95493   0.17607   0.72239   0.00000  Uiso   1.00
C1251  C     0.93438   0.12821   0.70499   0.00000  Uiso   1.00
C1252  C     0.91549   0.13225   0.98628   0.00000  Uiso   1.00
C1253  C     0.98057   0.34003   0.89578   0.00000  Uiso   1.00
C1254  C     0.96993   0.39294   0.90658   0.00000  Uiso   1.00
C1255  C     0.97597   0.40495   0.96090   0.00000  Uiso   1.00
C1256  C     0.52825   0.16066   0.90213   0.00000  Uiso   1.00
C1257  C     0.52045   0.10725   0.91379   0.00000  Uiso   1.00
C1258  C     0.72318   0.39493   0.80145   0.00000  Uiso   1.00
C1259  C     0.53681   0.09471   0.96530   0.00000  Uiso   1.00
C1260  C     0.60770   0.36825   0.82522   0.00000  Uiso   1.00
C1261  C     0.59810   0.41433   0.79630   0.00000  Uiso   1.00
C1262  C     0.59315   0.45774   0.83038   0.00000  Uiso   1.00
C1263  C     0.89081   0.13333   0.84191   0.00000  Uiso   1.00
C1264  C     0.87332   0.08296   0.82851   0.00000  Uiso   1.00
C1265  C     0.87792   0.04809   0.87147   0.00000  Uiso   1.00
C1266  C     0.87741   0.35989   0.79622   0.00000  Uiso   1.00
C1267  C     0.91421   0.39381   0.77918   0.00000  Uiso   1.00
C1268  C     0.89876   0.42478   0.73607   0.00000  Uiso   1.00
C1269  C     0.74046   0.10424   0.79122   0.00000  Uiso   1.00
C1270  C     0.62389   0.13759   0.80236   0.00000  Uiso   1.00
C1271  C     0.58612   0.10523   0.78343   0.00000  Uiso   1.00
C1272  C     0.60136   0.07290   0.74167   0.00000  Uiso   1.00
C1273  C     0.77678   0.39552   0.86528   0.00000  Uiso   1.00
C1274  C     0.75942   0.05391   0.87633   0.00000  Uiso   1.00
C1275  C     0.72245   0.44570   0.80107   0.00000  Uiso   1.00
C1276  C     0.74040   0.05345   0.79043   0.00000  Uiso   1.00
Cu1277 Cu    0.75000   0.29821   0.83333   0.00000  Uiso   1.00
Cu1278 Cu    0.75000   0.20178   0.83333   0.00000  Uiso   1.00
H1279  H     0.76786   0.12402   0.90883   0.00000  Uiso   1.00
H1280  H     0.50378   0.26358   0.72118   0.00000  Uiso   1.00
H1281  H     0.56221   0.33628   0.66742   0.00000  Uiso   1.00
H1282  H     0.58915   0.29182   0.70474   0.00000  Uiso   1.00
H1283  H     0.55555   0.22525   0.99320   0.00000  Uiso   1.00
H1284  H     0.57845   0.26668   0.94929   0.00000  Uiso   1.00
H1285  H     0.51970   0.26499   0.95905   0.00000  Uiso   1.00
H1286  H     0.98474   0.18325   0.70051   0.00000  Uiso   1.00
H1287  H     0.93135   0.20600   0.71412   0.00000  Uiso   1.00
H1288  H     0.95961   0.09933   0.70645   0.00000  Uiso   1.00
H1289  H     0.90727   0.11761   0.72941   0.00000  Uiso   1.00
H1290  H     0.70198   0.37488   0.77631   0.00000  Uiso   1.00
H1291  H     0.88636   0.15635   0.98583   0.00000  Uiso   1.00
H1292  H     0.90509   0.09596   0.97286   0.00000  Uiso   1.00
H1293  H     0.94041   0.14720   0.96122   0.00000  Uiso   1.00
H1294  H     0.51474   0.33285   0.90880   0.00000  Uiso   1.00
H1295  H     0.95779   0.31637   0.91693   0.00000  Uiso   1.00
H1296  H     0.99179   0.41680   0.88494   0.00000  Uiso   1.00
H1297  H     0.93523   0.40032   0.89564   0.00000  Uiso   1.00
H1298  H     0.95399   0.38186   0.98314   0.00000  Uiso   1.00
H1299  H     0.96743   0.44338   0.96736   0.00000  Uiso   1.00
H1300  H     0.51074   0.39936   0.97272   0.00000  Uiso   1.00
H1301  H     0.73249   0.12325   0.75777   0.00000  Uiso   1.00
H1302  H     0.50388   0.18286   0.92195   0.00000  Uiso   1.00
H1303  H     0.56174   0.17113   0.91593   0.00000  Uiso   1.00
H1304  H     0.98480   0.09853   0.90998   0.00000  Uiso   1.00
H1305  H     0.53828   0.08431   0.88737   0.00000  Uiso   1.00
H1306  H     0.57334   0.09706   0.96703   0.00000  Uiso   1.00
H1307  H     0.52659   0.05725   0.97450   0.00000  Uiso   1.00
H1308  H     0.52317   0.11998   0.99264   0.00000  Uiso   1.00
H1309  H     0.63734   0.37423   0.84902   0.00000  Uiso   1.00
H1310  H     0.57937   0.36124   0.84996   0.00000  Uiso   1.00
H1311  H     0.62529   0.42156   0.77054   0.00000  Uiso   1.00
H1312  H     0.79817   0.37594   0.89023   0.00000  Uiso   1.00
H1313  H     0.56715   0.40938   0.77444   0.00000  Uiso   1.00
H1314  H     0.56662   0.45100   0.85709   0.00000  Uiso   1.00
H1315  H     0.58435   0.49006   0.80849   0.00000  Uiso   1.00
H1316  H     0.62462   0.46510   0.85054   0.00000  Uiso   1.00
H1317  H     0.87411   0.14634   0.87547   0.00000  Uiso   1.00
H1318  H     0.92683   0.13022   0.84996   0.00000  Uiso   1.00
H1319  H     0.83811   0.08528   0.81717   0.00000  Uiso   1.00
H1320  H     0.89203   0.06839   0.79718   0.00000  Uiso   1.00
H1321  H     0.91297   0.04539   0.88350   0.00000  Uiso   1.00
H1322  H     0.86611   0.01166   0.85993   0.00000  Uiso   1.00
H1323  H     0.76638   0.03597   0.91074   0.00000  Uiso   1.00
H1324  H     0.85785   0.06055   0.90268   0.00000  Uiso   1.00
H1325  H     0.84751   0.38180   0.80232   0.00000  Uiso   1.00
H1326  H     0.86849   0.33361   0.76642   0.00000  Uiso   1.00
H1327  H     0.92475   0.41806   0.80976   0.00000  Uiso   1.00
H1328  H     0.94293   0.37226   0.76750   0.00000  Uiso   1.00
H1329  H     0.88779   0.40146   0.70489   0.00000  Uiso   1.00
H1330  H     0.92635   0.44813   0.72389   0.00000  Uiso   1.00
H1331  H     0.87109   0.44828   0.74717   0.00000  Uiso   1.00
H1332  H     0.65229   0.11413   0.81168   0.00000  Uiso   1.00
H1333  H     0.63491   0.16217   0.77252   0.00000  Uiso   1.00
H1334  H     0.69998   0.46360   0.77597   0.00000  Uiso   1.00
H1335  H     0.57424   0.08204   0.81356   0.00000  Uiso   1.00
H1336  H     0.55844   0.12787   0.76982   0.00000  Uiso   1.00
H1337  H     0.61398   0.09527   0.71119   0.00000  Uiso   1.00
H1338  H     0.57328   0.05052   0.72784   0.00000  Uiso   1.00
H1339  H     0.62796   0.04847   0.75474   0.00000  Uiso   1.00
H1340  H     0.73348   0.03516   0.75602   0.00000  Uiso   1.00
H1341  H     0.79986   0.46465   0.89094   0.00000  Uiso   1.00
H1342  H     0.99237   0.32289   0.70153   0.00000  Uiso   1.00
N1343  N     0.75000   0.12934   0.83333   0.00000  Uiso   1.00
N1344  N     0.75000   0.37066   0.83333   0.00000  Uiso   1.00
O1345  O     0.68573   0.29072   0.83334   0.00000  Uiso   1.00
O1346  O     0.96814   0.17261   0.77246   0.00000  Uiso   1.00
O1347  O     0.97914   0.33233   0.84448   0.00000  Uiso   1.00
O1348  O     0.52215   0.16758   0.85114   0.00000  Uiso   1.00
O1349  O     0.61676   0.33012   0.79207   0.00000  Uiso   1.00
O1350  O     0.88192   0.16528   0.80261   0.00000  Uiso   1.00
O1351  O     0.88867   0.33747   0.84146   0.00000  Uiso   1.00
O1352  O     0.61271   0.16249   0.84592   0.00000  Uiso   1.00
O1353  O     0.81427   0.20928   0.83333   0.00000  Uiso   1.00
O1354  O     0.81427   0.29071   0.83333   0.00000  Uiso   1.00
O1355  O     0.68573   0.20928   0.83334   0.00000  Uiso   1.00
O1356  O     0.75000   0.29071   0.76280   0.00000  Uiso   1.00
O1357  O     0.75000   0.20929   0.90387   0.00000  Uiso   1.00
O1358  O     0.75000   0.29071   0.90387   0.00000  Uiso   1.00
O1359  O     0.75000   0.20929   0.76280   0.00000  Uiso   1.00
O1360  O     0.52972   0.32039   0.76489   0.00000  Uiso   1.00
C1361  C     0.16480   0.74968   0.83118   0.00000  Uiso   1.00
C1362  C     0.27743   0.94631   0.86576   0.00000  Uiso   1.00
C1363  C     0.24994   0.74995   0.74015   0.00000  Uiso   1.00
C1364  C     0.25005   0.75005   0.92652   0.00000  Uiso   1.00
C1365  C     0.24988   0.52714   0.83340   0.00000  Uiso   1.00
C1366  C     0.24992   0.97254   0.83342   0.00000  Uiso   1.00
C1367  C     0.24998   0.74992   0.68849   0.00000  Uiso   1.00
C1368  C     0.25002   0.75006   0.97818   0.00000  Uiso   1.00
C1369  C     0.04898   0.78518   0.79415   0.00000  Uiso   1.00
C1370  C     0.44968   0.71000   0.79893   0.00000  Uiso   1.00
C1371  C     0.45465   0.79136   0.83264   0.00000  Uiso   1.00
C1372  C     0.33520   0.75017   0.83180   0.00000  Uiso   1.00
C1373  C     0.04600   0.70736   0.83538   0.00000  Uiso   1.00
C1374  C     0.09401   0.78888   0.80551   0.00000  Uiso   1.00
C1375  C     0.40503   0.70790   0.81086   0.00000  Uiso   1.00
C1376  C     0.40851   0.79345   0.83255   0.00000  Uiso   1.00
C1377  C     0.09215   0.70559   0.83416   0.00000  Uiso   1.00
C1378  C     0.11643   0.74838   0.82453   0.00000  Uiso   1.00
C1379  C     0.38348   0.75041   0.82596   0.00000  Uiso   1.00
C1380  C     0.02409   0.74698   0.81402   0.00000  Uiso   1.00
C1381  C     0.47548   0.74963   0.81472   0.00000  Uiso   1.00
C1382  C     0.01854   0.80029   0.71842   0.00000  Uiso   1.00
C1383  C     0.25969   0.60468   0.87542   0.00000  Uiso   1.00
C1384  C     0.05828   0.80000   0.68415   0.00000  Uiso   1.00
C1385  C     0.05255   0.76196   0.97717   0.00000  Uiso   1.00
C1386  C     0.45493   0.67607   0.72239   0.00000  Uiso   1.00
C1387  C     0.43438   0.62821   0.70499   0.00000  Uiso   1.00
C1388  C     0.41549   0.63225   0.98628   0.00000  Uiso   1.00
C1389  C     0.48057   0.84003   0.89578   0.00000  Uiso   1.00
C1390  C     0.46993   0.89294   0.90658   0.00000  Uiso   1.00
C1391  C     0.47597   0.90495   0.96090   0.00000  Uiso   1.00
C1392  C     0.02825   0.66066   0.90213   0.00000  Uiso   1.00
C1393  C     0.02045   0.60725   0.91379   0.00000  Uiso   1.00
C1394  C     0.22318   0.89493   0.80145   0.00000  Uiso   1.00
C1395  C     0.03681   0.59471   0.96530   0.00000  Uiso   1.00
C1396  C     0.10770   0.86825   0.82522   0.00000  Uiso   1.00
C1397  C     0.09810   0.91433   0.79630   0.00000  Uiso   1.00
C1398  C     0.09315   0.95774   0.83038   0.00000  Uiso   1.00
C1399  C     0.39081   0.63333   0.84191   0.00000  Uiso   1.00
C1400  C     0.37332   0.58296   0.82851   0.00000  Uiso   1.00
C1401  C     0.37792   0.54809   0.87147   0.00000  Uiso   1.00
C1402  C     0.37741   0.85989   0.79622   0.00000  Uiso   1.00
C1403  C     0.41421   0.89381   0.77918   0.00000  Uiso   1.00
C1404  C     0.39876   0.92478   0.73607   0.00000  Uiso   1.00
C1405  C     0.24046   0.60424   0.79122   0.00000  Uiso   1.00
C1406  C     0.12389   0.63759   0.80236   0.00000  Uiso   1.00
C1407  C     0.08612   0.60523   0.78343   0.00000  Uiso   1.00
C1408  C     0.10136   0.57290   0.74167   0.00000  Uiso   1.00
C1409  C     0.27678   0.89552   0.86528   0.00000  Uiso   1.00
C1410  C     0.25942   0.55391   0.87633   0.00000  Uiso   1.00
C1411  C     0.22245   0.94570   0.80107   0.00000  Uiso   1.00
C1412  C     0.24040   0.55345   0.79043   0.00000  Uiso   1.00
Cu1413 Cu    0.25000   0.79821   0.83333   0.00000  Uiso   1.00
Cu1414 Cu    0.25000   0.70178   0.83333   0.00000  Uiso   1.00
H1415  H     0.26786   0.62402   0.90883   0.00000  Uiso   1.00
H1416  H     0.00378   0.76358   0.72118   0.00000  Uiso   1.00
H1417  H     0.06221   0.83628   0.66742   0.00000  Uiso   1.00
H1418  H     0.08915   0.79182   0.70474   0.00000  Uiso   1.00
H1419  H     0.05555   0.72525   0.99320   0.00000  Uiso   1.00
H1420  H     0.07845   0.76668   0.94929   0.00000  Uiso   1.00
H1421  H     0.01970   0.76499   0.95905   0.00000  Uiso   1.00
H1422  H     0.48474   0.68325   0.70051   0.00000  Uiso   1.00
H1423  H     0.43135   0.70600   0.71412   0.00000  Uiso   1.00
H1424  H     0.45961   0.59933   0.70645   0.00000  Uiso   1.00
H1425  H     0.40727   0.61761   0.72941   0.00000  Uiso   1.00
H1426  H     0.20198   0.87488   0.77631   0.00000  Uiso   1.00
H1427  H     0.38636   0.65635   0.98583   0.00000  Uiso   1.00
H1428  H     0.40509   0.59596   0.97286   0.00000  Uiso   1.00
H1429  H     0.44041   0.64720   0.96122   0.00000  Uiso   1.00
H1430  H     0.01474   0.83285   0.90880   0.00000  Uiso   1.00
H1431  H     0.45779   0.81637   0.91693   0.00000  Uiso   1.00
H1432  H     0.49179   0.91680   0.88494   0.00000  Uiso   1.00
H1433  H     0.43523   0.90032   0.89564   0.00000  Uiso   1.00
H1434  H     0.45399   0.88186   0.98314   0.00000  Uiso   1.00
H1435  H     0.46743   0.94338   0.96736   0.00000  Uiso   1.00
H1436  H     0.01074   0.89936   0.97272   0.00000  Uiso   1.00
H1437  H     0.23249   0.62325   0.75777   0.00000  Uiso   1.00
H1438  H     0.00388   0.68286   0.92195   0.00000  Uiso   1.00
H1439  H     0.06174   0.67113   0.91593   0.00000  Uiso   1.00
H1440  H     0.48480   0.59853   0.90998   0.00000  Uiso   1.00
H1441  H     0.03828   0.58431   0.88737   0.00000  Uiso   1.00
H1442  H     0.07334   0.59706   0.96703   0.00000  Uiso   1.00
H1443  H     0.02659   0.55725   0.97450   0.00000  Uiso   1.00
H1444  H     0.02317   0.61998   0.99264   0.00000  Uiso   1.00
H1445  H     0.13734   0.87423   0.84902   0.00000  Uiso   1.00
H1446  H     0.07937   0.86124   0.84996   0.00000  Uiso   1.00
H1447  H     0.12529   0.92156   0.77054   0.00000  Uiso   1.00
H1448  H     0.29817   0.87594   0.89023   0.00000  Uiso   1.00
H1449  H     0.06715   0.90938   0.77444   0.00000  Uiso   1.00
H1450  H     0.06662   0.95100   0.85709   0.00000  Uiso   1.00
H1451  H     0.08435   0.99006   0.80849   0.00000  Uiso   1.00
H1452  H     0.12462   0.96510   0.85054   0.00000  Uiso   1.00
H1453  H     0.37411   0.64634   0.87547   0.00000  Uiso   1.00
H1454  H     0.42683   0.63022   0.84996   0.00000  Uiso   1.00
H1455  H     0.33811   0.58528   0.81717   0.00000  Uiso   1.00
H1456  H     0.39203   0.56839   0.79718   0.00000  Uiso   1.00
H1457  H     0.41297   0.54539   0.88350   0.00000  Uiso   1.00
H1458  H     0.36611   0.51166   0.85993   0.00000  Uiso   1.00
H1459  H     0.26638   0.53597   0.91074   0.00000  Uiso   1.00
H1460  H     0.35785   0.56055   0.90268   0.00000  Uiso   1.00
H1461  H     0.34751   0.88180   0.80232   0.00000  Uiso   1.00
H1462  H     0.36849   0.83361   0.76642   0.00000  Uiso   1.00
H1463  H     0.42475   0.91806   0.80976   0.00000  Uiso   1.00
H1464  H     0.44293   0.87226   0.76750   0.00000  Uiso   1.00
H1465  H     0.38779   0.90146   0.70489   0.00000  Uiso   1.00
H1466  H     0.42635   0.94813   0.72389   0.00000  Uiso   1.00
H1467  H     0.37109   0.94828   0.74717   0.00000  Uiso   1.00
H1468  H     0.15229   0.61413   0.81168   0.00000  Uiso   1.00
H1469  H     0.13491   0.66217   0.77252   0.00000  Uiso   1.00
H1470  H     0.19998   0.96360   0.77597   0.00000  Uiso   1.00
H1471  H     0.07424   0.58204   0.81356   0.00000  Uiso   1.00
H1472  H     0.05844   0.62787   0.76982   0.00000  Uiso   1.00
H1473  H     0.11398   0.59527   0.71119   0.00000  Uiso   1.00
H1474  H     0.07328   0.55052   0.72784   0.00000  Uiso   1.00
H1475  H     0.12796   0.54847   0.75474   0.00000  Uiso   1.00
H1476  H     0.23348   0.53516   0.75602   0.00000  Uiso   1.00
H1477  H     0.29986   0.96465   0.89094   0.00000  Uiso   1.00
H1478  H     0.49237   0.82289   0.70153   0.00000  Uiso   1.00
N1479  N     0.25000   0.62934   0.83333   0.00000  Uiso   1.00
N1480  N     0.25000   0.87066   0.83333   0.00000  Uiso   1.00
O1481  O     0.18573   0.79072   0.83334   0.00000  Uiso   1.00
O1482  O     0.46814   0.67261   0.77246   0.00000  Uiso   1.00
O1483  O     0.47914   0.83233   0.84448   0.00000  Uiso   1.00
O1484  O     0.02215   0.66758   0.85114   0.00000  Uiso   1.00
O1485  O     0.11676   0.83012   0.79207   0.00000  Uiso   1.00
O1486  O     0.38192   0.66528   0.80261   0.00000  Uiso   1.00
O1487  O     0.38867   0.83747   0.84146   0.00000  Uiso   1.00
O1488  O     0.11271   0.66249   0.84592   0.00000  Uiso   1.00
O1489  O     0.31427   0.70928   0.83333   0.00000  Uiso   1.00
O1490  O     0.31427   0.79071   0.83333   0.00000  Uiso   1.00
O1491  O     0.18573   0.70928   0.83334   0.00000  Uiso   1.00
O1492  O     0.25000   0.79071   0.76280   0.00000  Uiso   1.00
O1493  O     0.25000   0.70929   0.90387   0.00000  Uiso   1.00
O1494  O     0.25000   0.79071   0.90387   0.00000  Uiso   1.00
O1495  O     0.25000   0.70929   0.76280   0.00000  Uiso   1.00
O1496  O     0.02972   0.82039   0.76489   0.00000  Uiso   1.00
C1497  C     0.66480   0.74968   0.83118   0.00000  Uiso   1.00
C1498  C     0.77743   0.94631   0.86576   0.00000  Uiso   1.00
C1499  C     0.74994   0.74995   0.74015   0.00000  Uiso   1.00
C1500  C     0.75005   0.75005   0.92652   0.00000  Uiso   1.00
C1501  C     0.74988   0.52714   0.83340   0.00000  Uiso   1.00
C1502  C     0.74992   0.97254   0.83342   0.00000  Uiso   1.00
C1503  C     0.74998   0.74992   0.68849   0.00000  Uiso   1.00
C1504  C     0.75002   0.75006   0.97818   0.00000  Uiso   1.00
C1505  C     0.54898   0.78518   0.79415   0.00000  Uiso   1.00
C1506  C     0.94968   0.71000   0.79893   0.00000  Uiso   1.00
C1507  C     0.95465   0.79136   0.83264   0.00000  Uiso   1.00
C1508  C     0.83520   0.75017   0.83180   0.00000  Uiso   1.00
C1509  C     0.54600   0.70736   0.83538   0.00000  Uiso   1.00
C1510  C     0.59401   0.78888   0.80551   0.00000  Uiso   1.00
C1511  C     0.90503   0.70790   0.81086   0.00000  Uiso   1.00
C1512  C     0.90851   0.79345   0.83255   0.00000  Uiso   1.00
C1513  C     0.59215   0.70559   0.83416   0.00000  Uiso   1.00
C1514  C     0.61643   0.74838   0.82453   0.00000  Uiso   1.00
C1515  C     0.88348   0.75041   0.82596   0.00000  Uiso   1.00
C1516  C     0.52409   0.74698   0.81402   0.00000  Uiso   1.00
C1517  C     0.97548   0.74963   0.81472   0.00000  Uiso   1.00
C1518  C     0.51854   0.80029   0.71842   0.00000  Uiso   1.00
C1519  C     0.75969   0.60468   0.87542   0.00000  Uiso   1.00
C1520  C     0.55828   0.80000   0.68415   0.00000  Uiso   1.00
C1521  C     0.55255   0.76196   0.97717   0.00000  Uiso   1.00
C1522  C     0.95493   0.67607   0.72239   0.00000  Uiso   1.00
C1523  C     0.93438   0.62821   0.70499   0.00000  Uiso   1.00
C1524  C     0.91549   0.63225   0.98628   0.00000  Uiso   1.00
C1525  C     0.98057   0.84003   0.89578   0.00000  Uiso   1.00
C1526  C     0.96993   0.89294   0.90658   0.00000  Uiso   1.00
C1527  C     0.97597   0.90495   0.96090   0.00000  Uiso   1.00
C1528  C     0.52825   0.66066   0.90213   0.00000  Uiso   1.00
C1529  C     0.52045   0.60725   0.91379   0.00000  Uiso   1.00
C1530  C     0.72318   0.89493   0.80145   0.00000  Uiso   1.00
C1531  C     0.53681   0.59471   0.96530   0.00000  Uiso   1.00
C1532  C     0.60770   0.86825   0.82522   0.00000  Uiso   1.00
C1533  C     0.59810   0.91433   0.79630   0.00000  Uiso   1.00
C1534  C     0.59315   0.95774   0.83038   0.00000  Uiso   1.00
C1535  C     0.89081   0.63333   0.84191   0.00000  Uiso   1.00
C1536  C     0.87332   0.58296   0.82851   0.00000  Uiso   1.00
C1537  C     0.87792   0.54809   0.87147   0.00000  Uiso   1.00
C1538  C     0.87741   0.85989   0.79622   0.00000  Uiso   1.00
C1539  C     0.91421   0.89381   0.77918   0.00000  Uiso   1.00
C1540  C     0.89876   0.92478   0.73607   0.00000  Uiso   1.00
C1541  C     0.74046   0.60424   0.79122   0.00000  Uiso   1.00
C1542  C     0.62389   0.63759   0.80236   0.00000  Uiso   1.00
C1543  C     0.58612   0.60523   0.78343   0.00000  Uiso   1.00
C1544  C     0.60136   0.57290   0.74167   0.00000  Uiso   1.00
C1545  C     0.77678   0.89552   0.86528   0.00000  Uiso   1.00
C1546  C     0.75942   0.55391   0.87633   0.00000  Uiso   1.00
C1547  C     0.72245   0.94570   0.80107   0.00000  Uiso   1.00
C1548  C     0.74040   0.55345   0.79043   0.00000  Uiso   1.00
Cu1549 Cu    0.75000   0.79821   0.83333   0.00000  Uiso   1.00
Cu1550 Cu    0.75000   0.70178   0.83333   0.00000  Uiso   1.00
H1551  H     0.76786   0.62402   0.90883   0.00000  Uiso   1.00
H1552  H     0.50378   0.76358   0.72118   0.00000  Uiso   1.00
H1553  H     0.56221   0.83628   0.66742   0.00000  Uiso   1.00
H1554  H     0.58915   0.79182   0.70474   0.00000  Uiso   1.00
H1555  H     0.55555   0.72525   0.99320   0.00000  Uiso   1.00
H1556  H     0.57845   0.76668   0.94929   0.00000  Uiso   1.00
H1557  H     0.51970   0.76499   0.95905   0.00000  Uiso   1.00
H1558  H     0.98474   0.68325   0.70051   0.00000  Uiso   1.00
H1559  H     0.93135   0.70600   0.71412   0.00000  Uiso   1.00
H1560  H     0.95961   0.59933   0.70645   0.00000  Uiso   1.00
H1561  H     0.90727   0.61761   0.72941   0.00000  Uiso   1.00
H1562  H     0.70198   0.87488   0.77631   0.00000  Uiso   1.00
H1563  H     0.88636   0.65635   0.98583   0.00000  Uiso   1.00
H1564  H     0.90509   0.59596   0.97286   0.00000  Uiso   1.00
H1565  H     0.94041   0.64720   0.96122   0.00000  Uiso   1.00
H1566  H     0.51474   0.83285   0.90880   0.00000  Uiso   1.00
H1567  H     0.95779   0.81637   0.91693   0.00000  Uiso   1.00
H1568  H     0.99179   0.91680   0.88494   0.00000  Uiso   1.00
H1569  H     0.93523   0.90032   0.89564   0.00000  Uiso   1.00
H1570  H     0.95399   0.88186   0.98314   0.00000  Uiso   1.00
H1571  H     0.96743   0.94338   0.96736   0.00000  Uiso   1.00
H1572  H     0.51074   0.89936   0.97272   0.00000  Uiso   1.00
H1573  H     0.73249   0.62325   0.75777   0.00000  Uiso   1.00
H1574  H     0.50388   0.68286   0.92195   0.00000  Uiso   1.00
H1575  H     0.56174   0.67113   0.91593   0.00000  Uiso   1.00
H1576  H     0.98480   0.59853   0.90998   0.00000  Uiso   1.00
H1577  H     0.53828   0.58431   0.88737   0.00000  Uiso   1.00
H1578  H     0.57334   0.59706   0.96703   0.00000  Uiso   1.00
H1579  H     0.52659   0.55725   0.97450   0.00000  Uiso   1.00
H1580  H     0.52317   0.61998   0.99264   0.00000  Uiso   1.00
H1581  H     0.63734   0.87423   0.84902   0.00000  Uiso   1.00
H1582  H     0.57937   0.86124   0.84996   0.00000  Uiso   1.00
H1583  H     0.62529   0.92156   0.77054   0.00000  Uiso   1.00
H1584  H     0.79817   0.87594   0.89023   0.00000  Uiso   1.00
H1585  H     0.56715   0.90938   0.77444   0.00000  Uiso   1.00
H1586  H     0.56662   0.95100   0.85709   0.00000  Uiso   1.00
H1587  H     0.58435   0.99006   0.80849   0.00000  Uiso   1.00
H1588  H     0.62462   0.96510   0.85054   0.00000  Uiso   1.00
H1589  H     0.87411   0.64634   0.87547   0.00000  Uiso   1.00
H1590  H     0.92683   0.63022   0.84996   0.00000  Uiso   1.00
H1591  H     0.83811   0.58528   0.81717   0.00000  Uiso   1.00
H1592  H     0.89203   0.56839   0.79718   0.00000  Uiso   1.00
H1593  H     0.91297   0.54539   0.88350   0.00000  Uiso   1.00
H1594  H     0.86611   0.51166   0.85993   0.00000  Uiso   1.00
H1595  H     0.76638   0.53597   0.91074   0.00000  Uiso   1.00
H1596  H     0.85785   0.56055   0.90268   0.00000  Uiso   1.00
H1597  H     0.84751   0.88180   0.80232   0.00000  Uiso   1.00
H1598  H     0.86849   0.83361   0.76642   0.00000  Uiso   1.00
H1599  H     0.92475   0.91806   0.80976   0.00000  Uiso   1.00
H1600  H     0.94293   0.87226   0.76750   0.00000  Uiso   1.00
H1601  H     0.88779   0.90146   0.70489   0.00000  Uiso   1.00
H1602  H     0.92635   0.94813   0.72389   0.00000  Uiso   1.00
H1603  H     0.87109   0.94828   0.74717   0.00000  Uiso   1.00
H1604  H     0.65229   0.61413   0.81168   0.00000  Uiso   1.00
H1605  H     0.63491   0.66217   0.77252   0.00000  Uiso   1.00
H1606  H     0.69998   0.96360   0.77597   0.00000  Uiso   1.00
H1607  H     0.57424   0.58204   0.81356   0.00000  Uiso   1.00
H1608  H     0.55844   0.62787   0.76982   0.00000  Uiso   1.00
H1609  H     0.61398   0.59527   0.71119   0.00000  Uiso   1.00
H1610  H     0.57328   0.55052   0.72784   0.00000  Uiso   1.00
H1611  H     0.62796   0.54847   0.75474   0.00000  Uiso   1.00
H1612  H     0.73348   0.53516   0.75602   0.00000  Uiso   1.00
H1613  H     0.79986   0.96465   0.89094   0.00000  Uiso   1.00
H1614  H     0.99237   0.82289   0.70153   0.00000  Uiso   1.00
N1615  N     0.75000   0.62934   0.83333   0.00000  Uiso   1.00
N1616  N     0.75000   0.87066   0.83333   0.00000  Uiso   1.00
O1617  O     0.68573   0.79072   0.83334   0.00000  Uiso   1.00
O1618  O     0.96814   0.67261   0.77246   0.00000  Uiso   1.00
O1619  O     0.97914   0.83233   0.84448   0.00000  Uiso   1.00
O1620  O     0.52215   0.66758   0.85114   0.00000  Uiso   1.00
O1621  O     0.61676   0.83012   0.79207   0.00000  Uiso   1.00
O1622  O     0.88192   0.66528   0.80261   0.00000  Uiso   1.00
O1623  O     0.88867   0.83747   0.84146   0.00000  Uiso   1.00
O1624  O     0.61271   0.66249   0.84592   0.00000  Uiso   1.00
O1625  O     0.81427   0.70928   0.83333   0.00000  Uiso   1.00
O1626  O     0.81427   0.79071   0.83333   0.00000  Uiso   1.00
O1627  O     0.68573   0.70928   0.83334   0.00000  Uiso   1.00
O1628  O     0.75000   0.79071   0.76280   0.00000  Uiso   1.00
O1629  O     0.75000   0.70929   0.90387   0.00000  Uiso   1.00
O1630  O     0.75000   0.79071   0.90387   0.00000  Uiso   1.00
O1631  O     0.75000   0.70929   0.76280   0.00000  Uiso   1.00
O1632  O     0.52972   0.82039   0.76489   0.00000  Uiso   1.00
loop_
_geom_bond_atom_site_label_1
_geom_bond_atom_site_label_2
_geom_bond_distance
_geom_bond_site_symmetry_2
_ccdc_geom_bond_type
C1     C18     1.476   .     S
C1     O131    1.290   .     A
C1     O121    1.298   .     A
C2     C6      1.410   .     A
C2     H117    1.081   .     S
C2     C49     1.405   .     A
C3     C7      1.409   .     S
C3     O135    1.285   .     A
C3     O132    1.284   .     A
C4     C8      1.409   .     S
C4     O134    1.285   .     A
C4     O133    1.284   .     A
C5     C52     1.408   .     A
C5     C50     1.408   .     A
C5     C278    1.511   1_545 S
C6     C51     1.410   .     A
C6     C277    1.511   .     S
C7     C1096   1.191   1_554 S
C8     C551    1.191   .     S
C9     C20     1.410   .     A
C9     C14     1.399   .     A
C9     O136    1.387   .     S
C10    C15     1.400   .     A
C10    C21     1.405   .     A
C10    O122    1.386   .     S
C11    C21     1.410   .     A
C11    C16     1.402   .     A
C11    O123    1.385   .     S
C12    O130    1.294   .     A
C12    O129    1.295   .     A
C12    C19     1.477   .     S
C13    O124    1.387   .     S
C13    C20     1.409   .     A
C13    C17     1.403   .     A
C14    O125    1.384   .     S
C14    C18     1.411   .     A
C15    C19     1.413   .     A
C15    O126    1.384   .     S
C16    C19     1.418   .     A
C16    O127    1.385   .     S
C17    C18     1.418   .     A
C17    O128    1.386   .     S
C20    C157    1.478   1_455 S
C21    C156    1.478   .     S
C22    H56     1.111   .     S
C22    O136    1.417   .     S
C22    C24     1.539   .     S
C22    H254    1.109   1_455 S
C23    N119    1.366   .     A
C23    C50     1.405   .     A
C23    H55     1.079   .     S
C24    H57     1.111   .     S
C24    H58     1.109   .     S
C24    C1113   1.526   1_554 S
C25    H60     1.111   .     S
C25    H61     1.109   .     S
C25    H59     1.111   .     S
C25    C568    1.526   .     S
C26    H63     1.119   .     S
C26    C27     1.530   .     S
C26    H62     1.110   .     S
C26    O122    1.420   .     S
C27    H65     1.106   .     S
C27    H64     1.111   .     S
C27    C1116   1.526   1_554 S
C28    H68     1.110   .     S
C28    H69     1.107   .     S
C28    H67     1.111   .     S
C28    C571    1.526   .     S
C29    C30     1.530   .     S
C29    O123    1.415   .     S
C29    H71     1.118   .     S
C29    H206    1.110   .     S
C30    C31     1.525   .     S
C30    H73     1.110   .     S
C30    H72     1.112   .     S
C31    H74     1.110   .     S
C31    H75     1.110   .     S
C31    H212    1.110   .     S
C32    O124    1.414   .     S
C32    C33     1.530   .     S
C32    H79     1.114   .     S
C32    H78     1.111   .     S
C33    C35     1.524   .     S
C33    H81     1.109   .     S
C33    H216    1.110   1_455 S
C34    H66     1.081   .     S
C34    C51     1.405   .     A
C34    N120    1.363   .     A
C35    H82     1.110   .     S
C35    H83     1.111   .     S
C35    H84     1.108   .     S
C36    O125    1.418   .     S
C36    C37     1.529   .     S
C36    H86     1.119   .     S
C36    H85     1.111   .     S
C37    C38     1.526   .     S
C37    H87     1.111   .     S
C37    H89     1.111   .     S
C38    H92     1.111   .     S
C38    H91     1.109   .     S
C38    H90     1.111   .     S
C39    H93     1.114   .     S
C39    O126    1.415   .     S
C39    C40     1.529   .     S
C39    H94     1.115   .     S
C40    H96     1.110   .     S
C40    C41     1.526   .     S
C40    H95     1.110   .     S
C41    H100    1.111   .     S
C41    H97     1.111   .     S
C41    H98     1.110   .     S
C42    H102    1.117   .     S
C42    O127    1.421   .     S
C42    C43     1.533   .     S
C42    H101    1.109   .     S
C43    H104    1.110   .     S
C43    H103    1.110   .     S
C43    C44     1.526   .     S
C44    H105    1.111   .     S
C44    H107    1.111   .     S
C44    H106    1.110   .     S
C45    N119    1.366   .     A
C45    C52     1.405   .     A
C45    H77     1.079   .     S
C46    O128    1.419   .     S
C46    H108    1.109   .     S
C46    C47     1.532   .     S
C46    H109    1.117   .     S
C47    H111    1.108   .     S
C47    H112    1.111   .     S
C47    C48     1.526   .     S
C48    H114    1.110   .     S
C48    H115    1.111   .     S
C48    H113    1.110   .     S
C49    N120    1.363   .     A
C49    H88     1.082   .     S
C50    H99     1.082   .     S
C51    H110    1.082   .     S
C52    H116    1.082   .     S
Cu53   N120    2.004   .     S
Cu53   Cu54    2.668   .     S
Cu53   O132    1.934   .     S
Cu53   O134    1.936   .     S
Cu53   O121    1.960   .     S
Cu53   O130    1.963   .     S
Cu54   O131    1.963   .     S
Cu54   N119    2.004   .     S
Cu54   O133    1.934   .     S
Cu54   O129    1.960   .     S
Cu54   O135    1.936   .     S
H70    C165    1.110   1_455 S
H76    C167    1.110   1_455 S
H80    C169    1.110   .     S
H118   C158    1.109   .     S
C137   C154    1.476   .     S
C137   O267    1.290   .     A
C137   O257    1.298   .     A
C138   C142    1.410   .     A
C138   H253    1.081   .     S
C138   C185    1.405   .     A
C139   C143    1.409   .     S
C139   O271    1.285   .     A
C139   O268    1.284   .     A
C140   C144    1.409   .     S
C140   O270    1.285   .     A
C140   O269    1.284   .     A
C141   C188    1.408   .     A
C141   C186    1.408   .     A
C141   C414    1.511   1_545 S
C142   C187    1.410   .     A
C142   C413    1.511   .     S
C143   C1232   1.191   1_554 S
C144   C687    1.191   .     S
C145   C156    1.410   .     A
C145   C150    1.399   .     A
C145   O272    1.387   .     S
C146   C151    1.400   .     A
C146   C157    1.405   .     A
C146   O258    1.386   .     S
C147   C157    1.410   .     A
C147   C152    1.402   .     A
C147   O259    1.385   .     S
C148   O266    1.294   .     A
C148   O265    1.295   .     A
C148   C155    1.477   .     S
C149   O260    1.387   .     S
C149   C156    1.409   .     A
C149   C153    1.403   .     A
C150   O261    1.384   .     S
C150   C154    1.411   .     A
C151   C155    1.413   .     A
C151   O262    1.384   .     S
C152   C155    1.418   .     A
C152   O263    1.385   .     S
C153   C154    1.418   .     A
C153   O264    1.386   .     S
C157   C20     1.478   1_655 S
C158   H192    1.111   .     S
C158   O272    1.417   .     S
C158   C160    1.539   .     S
C159   N255    1.366   .     A
C159   C186    1.405   .     A
C159   H191    1.079   .     S
C160   H193    1.111   .     S
C160   H194    1.109   .     S
C160   C1249   1.526   1_554 S
C161   H196    1.111   .     S
C161   H197    1.109   .     S
C161   H195    1.111   .     S
C161   C704    1.526   .     S
C162   H199    1.119   .     S
C162   C163    1.530   .     S
C162   H198    1.110   .     S
C162   O258    1.420   .     S
C163   H201    1.106   .     S
C163   H200    1.111   .     S
C163   C1252   1.526   1_554 S
C164   H204    1.110   .     S
C164   H205    1.107   .     S
C164   H203    1.111   .     S
C164   C707    1.526   .     S
C165   C166    1.530   .     S
C165   O259    1.415   .     S
C165   H207    1.118   .     S
C165   H70     1.110   1_655 S
C166   C167    1.525   .     S
C166   H209    1.110   .     S
C166   H208    1.112   .     S
C167   H210    1.110   .     S
C167   H211    1.110   .     S
C167   H76     1.110   1_655 S
C168   O260    1.414   .     S
C168   C169    1.530   .     S
C168   H215    1.114   .     S
C168   H214    1.111   .     S
C169   C171    1.524   .     S
C169   H217    1.109   .     S
C170   H202    1.081   .     S
C170   C187    1.405   .     A
C170   N256    1.363   .     A
C171   H218    1.110   .     S
C171   H219    1.111   .     S
C171   H220    1.108   .     S
C172   O261    1.418   .     S
C172   C173    1.529   .     S
C172   H222    1.119   .     S
C172   H221    1.111   .     S
C173   C174    1.526   .     S
C173   H223    1.111   .     S
C173   H225    1.111   .     S
C174   H228    1.111   .     S
C174   H227    1.109   .     S
C174   H226    1.111   .     S
C175   H229    1.114   .     S
C175   O262    1.415   .     S
C175   C176    1.529   .     S
C175   H230    1.115   .     S
C176   H232    1.110   .     S
C176   C177    1.526   .     S
C176   H231    1.110   .     S
C177   H236    1.111   .     S
C177   H233    1.111   .     S
C177   H234    1.110   .     S
C178   H238    1.117   .     S
C178   O263    1.421   .     S
C178   C179    1.533   .     S
C178   H237    1.109   .     S
C179   H240    1.110   .     S
C179   H239    1.110   .     S
C179   C180    1.526   .     S
C180   H241    1.111   .     S
C180   H243    1.111   .     S
C180   H242    1.110   .     S
C181   N255    1.366   .     A
C181   C188    1.405   .     A
C181   H213    1.079   .     S
C182   O264    1.419   .     S
C182   H244    1.109   .     S
C182   C183    1.532   .     S
C182   H245    1.117   .     S
C183   H247    1.108   .     S
C183   H248    1.111   .     S
C183   C184    1.526   .     S
C184   H250    1.110   .     S
C184   H251    1.111   .     S
C184   H249    1.110   .     S
C185   N256    1.363   .     A
C185   H224    1.082   .     S
C186   H235    1.082   .     S
C187   H246    1.082   .     S
C188   H252    1.082   .     S
Cu189  N256    2.004   .     S
Cu189  Cu190   2.668   .     S
Cu189  O268    1.934   .     S
Cu189  O270    1.936   .     S
Cu189  O257    1.960   .     S
Cu189  O266    1.963   .     S
Cu190  O267    1.963   .     S
Cu190  N255    2.004   .     S
Cu190  O269    1.934   .     S
Cu190  O265    1.960   .     S
Cu190  O271    1.936   .     S
H216   C33     1.110   1_655 S
H254   C22     1.109   1_655 S
C273   C290    1.476   .     S
C273   O403    1.290   .     A
C273   O393    1.298   .     A
C274   C278    1.410   .     A
C274   H389    1.081   .     S
C274   C321    1.405   .     A
C275   C279    1.409   .     S
C275   O407    1.285   .     A
C275   O404    1.284   .     A
C276   C280    1.409   .     S
C276   O406    1.285   .     A
C276   O405    1.284   .     A
C277   C324    1.408   .     A
C277   C322    1.408   .     A
C278   C323    1.410   .     A
C278   C5      1.511   1_565 S
C279   C1368   1.191   1_554 S
C280   C823    1.191   .     S
C281   C292    1.410   .     A
C281   C286    1.399   .     A
C281   O408    1.387   .     S
C282   C287    1.400   .     A
C282   C293    1.405   .     A
C282   O394    1.386   .     S
C283   C293    1.410   .     A
C283   C288    1.402   .     A
C283   O395    1.385   .     S
C284   O402    1.294   .     A
C284   O401    1.295   .     A
C284   C291    1.477   .     S
C285   O396    1.387   .     S
C285   C292    1.409   .     A
C285   C289    1.403   .     A
C286   O397    1.384   .     S
C286   C290    1.411   .     A
C287   C291    1.413   .     A
C287   O398    1.384   .     S
C288   C291    1.418   .     A
C288   O399    1.385   .     S
C289   C290    1.418   .     A
C289   O400    1.386   .     S
C292   C429    1.478   1_455 S
C293   C428    1.478   .     S
C294   H328    1.111   .     S
C294   O408    1.417   .     S
C294   C296    1.539   .     S
C294   H526    1.109   1_455 S
C295   N391    1.366   .     A
C295   C322    1.405   .     A
C295   H327    1.079   .     S
C296   H329    1.111   .     S
C296   H330    1.109   .     S
C296   C1385   1.526   1_554 S
C297   H332    1.111   .     S
C297   H333    1.109   .     S
C297   H331    1.111   .     S
C297   C840    1.526   .     S
C298   H335    1.119   .     S
C298   C299    1.530   .     S
C298   H334    1.110   .     S
C298   O394    1.420   .     S
C299   H337    1.106   .     S
C299   H336    1.111   .     S
C299   C1388   1.526   1_554 S
C300   H340    1.110   .     S
C300   H341    1.107   .     S
C300   H339    1.111   .     S
C300   C843    1.526   .     S
C301   C302    1.530   .     S
C301   O395    1.415   .     S
C301   H343    1.118   .     S
C301   H478    1.110   .     S
C302   C303    1.525   .     S
C302   H345    1.110   .     S
C302   H344    1.112   .     S
C303   H346    1.110   .     S
C303   H347    1.110   .     S
C303   H484    1.110   .     S
C304   O396    1.414   .     S
C304   C305    1.530   .     S
C304   H351    1.114   .     S
C304   H350    1.111   .     S
C305   C307    1.524   .     S
C305   H353    1.109   .     S
C305   H488    1.110   1_455 S
C306   H338    1.081   .     S
C306   C323    1.405   .     A
C306   N392    1.363   .     A
C307   H354    1.110   .     S
C307   H355    1.111   .     S
C307   H356    1.108   .     S
C308   O397    1.418   .     S
C308   C309    1.529   .     S
C308   H358    1.119   .     S
C308   H357    1.111   .     S
C309   C310    1.526   .     S
C309   H359    1.111   .     S
C309   H361    1.111   .     S
C310   H364    1.111   .     S
C310   H363    1.109   .     S
C310   H362    1.111   .     S
C311   H365    1.114   .     S
C311   O398    1.415   .     S
C311   C312    1.529   .     S
C311   H366    1.115   .     S
C312   H368    1.110   .     S
C312   C313    1.526   .     S
C312   H367    1.110   .     S
C313   H372    1.111   .     S
C313   H369    1.111   .     S
C313   H370    1.110   .     S
C314   H374    1.117   .     S
C314   O399    1.421   .     S
C314   C315    1.533   .     S
C314   H373    1.109   .     S
C315   H376    1.110   .     S
C315   H375    1.110   .     S
C315   C316    1.526   .     S
C316   H377    1.111   .     S
C316   H379    1.111   .     S
C316   H378    1.110   .     S
C317   N391    1.366   .     A
C317   C324    1.405   .     A
C317   H349    1.079   .     S
C318   O400    1.419   .     S
C318   H380    1.109   .     S
C318   C319    1.532   .     S
C318   H381    1.117   .     S
C319   H383    1.108   .     S
C319   H384    1.111   .     S
C319   C320    1.526   .     S
C320   H386    1.110   .     S
C320   H387    1.111   .     S
C320   H385    1.110   .     S
C321   N392    1.363   .     A
C321   H360    1.082   .     S
C322   H371    1.082   .     S
C323   H382    1.082   .     S
C324   H388    1.082   .     S
Cu325  N392    2.004   .     S
Cu325  Cu326   2.668   .     S
Cu325  O404    1.934   .     S
Cu325  O406    1.936   .     S
Cu325  O393    1.960   .     S
Cu325  O402    1.963   .     S
Cu326  O403    1.963   .     S
Cu326  N391    2.004   .     S
Cu326  O405    1.934   .     S
Cu326  O401    1.960   .     S
Cu326  O407    1.936   .     S
H342   C437    1.110   1_455 S
H348   C439    1.110   1_455 S
H352   C441    1.110   .     S
H390   C430    1.109   .     S
C409   C426    1.476   .     S
C409   O539    1.290   .     A
C409   O529    1.298   .     A
C410   C414    1.410   .     A
C410   H525    1.081   .     S
C410   C457    1.405   .     A
C411   C415    1.409   .     S
C411   O543    1.285   .     A
C411   O540    1.284   .     A
C412   C416    1.409   .     S
C412   O542    1.285   .     A
C412   O541    1.284   .     A
C413   C460    1.408   .     A
C413   C458    1.408   .     A
C414   C459    1.410   .     A
C414   C141    1.511   1_565 S
C415   C1504   1.191   1_554 S
C416   C959    1.191   .     S
C417   C428    1.410   .     A
C417   C422    1.399   .     A
C417   O544    1.387   .     S
C418   C423    1.400   .     A
C418   C429    1.405   .     A
C418   O530    1.386   .     S
C419   C429    1.410   .     A
C419   C424    1.402   .     A
C419   O531    1.385   .     S
C420   O538    1.294   .     A
C420   O537    1.295   .     A
C420   C427    1.477   .     S
C421   O532    1.387   .     S
C421   C428    1.409   .     A
C421   C425    1.403   .     A
C422   O533    1.384   .     S
C422   C426    1.411   .     A
C423   C427    1.413   .     A
C423   O534    1.384   .     S
C424   C427    1.418   .     A
C424   O535    1.385   .     S
C425   C426    1.418   .     A
C425   O536    1.386   .     S
C429   C292    1.478   1_655 S
C430   H464    1.111   .     S
C430   O544    1.417   .     S
C430   C432    1.539   .     S
C431   N527    1.366   .     A
C431   C458    1.405   .     A
C431   H463    1.079   .     S
C432   H465    1.111   .     S
C432   H466    1.109   .     S
C432   C1521   1.526   1_554 S
C433   H468    1.111   .     S
C433   H469    1.109   .     S
C433   H467    1.111   .     S
C433   C976    1.526   .     S
C434   H471    1.119   .     S
C434   C435    1.530   .     S
C434   H470    1.110   .     S
C434   O530    1.420   .     S
C435   H473    1.106   .     S
C435   H472    1.111   .     S
C435   C1524   1.526   1_554 S
C436   H476    1.110   .     S
C436   H477    1.107   .     S
C436   H475    1.111   .     S
C436   C979    1.526   .     S
C437   C438    1.530   .     S
C437   O531    1.415   .     S
C437   H479    1.118   .     S
C437   H342    1.110   1_655 S
C438   C439    1.525   .     S
C438   H481    1.110   .     S
C438   H480    1.112   .     S
C439   H482    1.110   .     S
C439   H483    1.110   .     S
C439   H348    1.110   1_655 S
C440   O532    1.414   .     S
C440   C441    1.530   .     S
C440   H487    1.114   .     S
C440   H486    1.111   .     S
C441   C443    1.524   .     S
C441   H489    1.109   .     S
C442   H474    1.081   .     S
C442   C459    1.405   .     A
C442   N528    1.363   .     A
C443   H490    1.110   .     S
C443   H491    1.111   .     S
C443   H492    1.108   .     S
C444   O533    1.418   .     S
C444   C445    1.529   .     S
C444   H494    1.119   .     S
C444   H493    1.111   .     S
C445   C446    1.526   .     S
C445   H495    1.111   .     S
C445   H497    1.111   .     S
C446   H500    1.111   .     S
C446   H499    1.109   .     S
C446   H498    1.111   .     S
C447   H501    1.114   .     S
C447   O534    1.415   .     S
C447   C448    1.529   .     S
C447   H502    1.115   .     S
C448   H504    1.110   .     S
C448   C449    1.526   .     S
C448   H503    1.110   .     S
C449   H508    1.111   .     S
C449   H505    1.111   .     S
C449   H506    1.110   .     S
C450   H510    1.117   .     S
C450   O535    1.421   .     S
C450   C451    1.533   .     S
C450   H509    1.109   .     S
C451   H512    1.110   .     S
C451   H511    1.110   .     S
C451   C452    1.526   .     S
C452   H513    1.111   .     S
C452   H515    1.111   .     S
C452   H514    1.110   .     S
C453   N527    1.366   .     A
C453   C460    1.405   .     A
C453   H485    1.079   .     S
C454   O536    1.419   .     S
C454   H516    1.109   .     S
C454   C455    1.532   .     S
C454   H517    1.117   .     S
C455   H519    1.108   .     S
C455   H520    1.111   .     S
C455   C456    1.526   .     S
C456   H522    1.110   .     S
C456   H523    1.111   .     S
C456   H521    1.110   .     S
C457   N528    1.363   .     A
C457   H496    1.082   .     S
C458   H507    1.082   .     S
C459   H518    1.082   .     S
C460   H524    1.082   .     S
Cu461  N528    2.004   .     S
Cu461  Cu462   2.668   .     S
Cu461  O540    1.934   .     S
Cu461  O542    1.936   .     S
Cu461  O529    1.960   .     S
Cu461  O538    1.963   .     S
Cu462  O539    1.963   .     S
Cu462  N527    2.004   .     S
Cu462  O541    1.934   .     S
Cu462  O537    1.960   .     S
Cu462  O543    1.936   .     S
H488   C305    1.110   1_655 S
H526   C294    1.109   1_655 S
C545   C562    1.476   .     S
C545   O675    1.290   .     A
C545   O665    1.298   .     A
C546   C550    1.410   .     A
C546   H661    1.081   .     S
C546   C593    1.405   .     A
C547   C551    1.409   .     S
C547   O679    1.285   .     A
C547   O676    1.284   .     A
C548   C552    1.409   .     S
C548   O678    1.285   .     A
C548   O677    1.284   .     A
C549   C596    1.408   .     A
C549   C594    1.408   .     A
C549   C822    1.511   1_545 S
C550   C595    1.410   .     A
C550   C821    1.511   .     S
C552   C1095   1.191   .     S
C553   C564    1.410   .     A
C553   C558    1.399   .     A
C553   O680    1.387   .     S
C554   C559    1.400   .     A
C554   C565    1.405   .     A
C554   O666    1.386   .     S
C555   C565    1.410   .     A
C555   C560    1.402   .     A
C555   O667    1.385   .     S
C556   O674    1.294   .     A
C556   O673    1.295   .     A
C556   C563    1.477   .     S
C557   O668    1.387   .     S
C557   C564    1.409   .     A
C557   C561    1.403   .     A
C558   O669    1.384   .     S
C558   C562    1.411   .     A
C559   C563    1.413   .     A
C559   O670    1.384   .     S
C560   C563    1.418   .     A
C560   O671    1.385   .     S
C561   C562    1.418   .     A
C561   O672    1.386   .     S
C564   C701    1.478   1_455 S
C565   C700    1.478   .     S
C566   H600    1.111   .     S
C566   O680    1.417   .     S
C566   C568    1.539   .     S
C566   H798    1.109   1_455 S
C567   N663    1.366   .     A
C567   C594    1.405   .     A
C567   H599    1.079   .     S
C568   H601    1.111   .     S
C568   H602    1.109   .     S
C569   H604    1.111   .     S
C569   H605    1.109   .     S
C569   H603    1.111   .     S
C569   C1112   1.526   .     S
C570   H607    1.119   .     S
C570   C571    1.530   .     S
C570   H606    1.110   .     S
C570   O666    1.420   .     S
C571   H609    1.106   .     S
C571   H608    1.111   .     S
C572   H612    1.110   .     S
C572   H613    1.107   .     S
C572   H611    1.111   .     S
C572   C1115   1.526   .     S
C573   C574    1.530   .     S
C573   O667    1.415   .     S
C573   H615    1.118   .     S
C573   H750    1.110   .     S
C574   C575    1.525   .     S
C574   H617    1.110   .     S
C574   H616    1.112   .     S
C575   H618    1.110   .     S
C575   H619    1.110   .     S
C575   H756    1.110   .     S
C576   O668    1.414   .     S
C576   C577    1.530   .     S
C576   H623    1.114   .     S
C576   H622    1.111   .     S
C577   C579    1.524   .     S
C577   H625    1.109   .     S
C577   H760    1.110   1_455 S
C578   H610    1.081   .     S
C578   C595    1.405   .     A
C578   N664    1.363   .     A
C579   H626    1.110   .     S
C579   H627    1.111   .     S
C579   H628    1.108   .     S
C580   O669    1.418   .     S
C580   C581    1.529   .     S
C580   H630    1.119   .     S
C580   H629    1.111   .     S
C581   C582    1.526   .     S
C581   H631    1.111   .     S
C581   H633    1.111   .     S
C582   H636    1.111   .     S
C582   H635    1.109   .     S
C582   H634    1.111   .     S
C583   H637    1.114   .     S
C583   O670    1.415   .     S
C583   C584    1.529   .     S
C583   H638    1.115   .     S
C584   H640    1.110   .     S
C584   C585    1.526   .     S
C584   H639    1.110   .     S
C585   H644    1.111   .     S
C585   H641    1.111   .     S
C585   H642    1.110   .     S
C586   H646    1.117   .     S
C586   O671    1.421   .     S
C586   C587    1.533   .     S
C586   H645    1.109   .     S
C587   H648    1.110   .     S
C587   H647    1.110   .     S
C587   C588    1.526   .     S
C588   H649    1.111   .     S
C588   H651    1.111   .     S
C588   H650    1.110   .     S
C589   N663    1.366   .     A
C589   C596    1.405   .     A
C589   H621    1.079   .     S
C590   O672    1.419   .     S
C590   H652    1.109   .     S
C590   C591    1.532   .     S
C590   H653    1.117   .     S
C591   H655    1.108   .     S
C591   H656    1.111   .     S
C591   C592    1.526   .     S
C592   H658    1.110   .     S
C592   H659    1.111   .     S
C592   H657    1.110   .     S
C593   N664    1.363   .     A
C593   H632    1.082   .     S
C594   H643    1.082   .     S
C595   H654    1.082   .     S
C596   H660    1.082   .     S
Cu597  N664    2.004   .     S
Cu597  Cu598   2.668   .     S
Cu597  O676    1.934   .     S
Cu597  O678    1.936   .     S
Cu597  O665    1.960   .     S
Cu597  O674    1.963   .     S
Cu598  O675    1.963   .     S
Cu598  N663    2.004   .     S
Cu598  O677    1.934   .     S
Cu598  O673    1.960   .     S
Cu598  O679    1.936   .     S
H614   C709    1.110   1_455 S
H620   C711    1.110   1_455 S
H624   C713    1.110   .     S
H662   C702    1.109   .     S
C681   C698    1.476   .     S
C681   O811    1.290   .     A
C681   O801    1.298   .     A
C682   C686    1.410   .     A
C682   H797    1.081   .     S
C682   C729    1.405   .     A
C683   C687    1.409   .     S
C683   O815    1.285   .     A
C683   O812    1.284   .     A
C684   C688    1.409   .     S
C684   O814    1.285   .     A
C684   O813    1.284   .     A
C685   C732    1.408   .     A
C685   C730    1.408   .     A
C685   C958    1.511   1_545 S
C686   C731    1.410   .     A
C686   C957    1.511   .     S
C688   C1231   1.191   .     S
C689   C700    1.410   .     A
C689   C694    1.399   .     A
C689   O816    1.387   .     S
C690   C695    1.400   .     A
C690   C701    1.405   .     A
C690   O802    1.386   .     S
C691   C701    1.410   .     A
C691   C696    1.402   .     A
C691   O803    1.385   .     S
C692   O810    1.294   .     A
C692   O809    1.295   .     A
C692   C699    1.477   .     S
C693   O804    1.387   .     S
C693   C700    1.409   .     A
C693   C697    1.403   .     A
C694   O805    1.384   .     S
C694   C698    1.411   .     A
C695   C699    1.413   .     A
C695   O806    1.384   .     S
C696   C699    1.418   .     A
C696   O807    1.385   .     S
C697   C698    1.418   .     A
C697   O808    1.386   .     S
C701   C564    1.478   1_655 S
C702   H736    1.111   .     S
C702   O816    1.417   .     S
C702   C704    1.539   .     S
C703   N799    1.366   .     A
C703   C730    1.405   .     A
C703   H735    1.079   .     S
C704   H737    1.111   .     S
C704   H738    1.109   .     S
C705   H740    1.111   .     S
C705   H741    1.109   .     S
C705   H739    1.111   .     S
C705   C1248   1.526   .     S
C706   H743    1.119   .     S
C706   C707    1.530   .     S
C706   H742    1.110   .     S
C706   O802    1.420   .     S
C707   H745    1.106   .     S
C707   H744    1.111   .     S
C708   H748    1.110   .     S
C708   H749    1.107   .     S
C708   H747    1.111   .     S
C708   C1251   1.526   .     S
C709   C710    1.530   .     S
C709   O803    1.415   .     S
C709   H751    1.118   .     S
C709   H614    1.110   1_655 S
C710   C711    1.525   .     S
C710   H753    1.110   .     S
C710   H752    1.112   .     S
C711   H754    1.110   .     S
C711   H755    1.110   .     S
C711   H620    1.110   1_655 S
C712   O804    1.414   .     S
C712   C713    1.530   .     S
C712   H759    1.114   .     S
C712   H758    1.111   .     S
C713   C715    1.524   .     S
C713   H761    1.109   .     S
C714   H746    1.081   .     S
C714   C731    1.405   .     A
C714   N800    1.363   .     A
C715   H762    1.110   .     S
C715   H763    1.111   .     S
C715   H764    1.108   .     S
C716   O805    1.418   .     S
C716   C717    1.529   .     S
C716   H766    1.119   .     S
C716   H765    1.111   .     S
C717   C718    1.526   .     S
C717   H767    1.111   .     S
C717   H769    1.111   .     S
C718   H772    1.111   .     S
C718   H771    1.109   .     S
C718   H770    1.111   .     S
C719   H773    1.114   .     S
C719   O806    1.415   .     S
C719   C720    1.529   .     S
C719   H774    1.115   .     S
C720   H776    1.110   .     S
C720   C721    1.526   .     S
C720   H775    1.110   .     S
C721   H780    1.111   .     S
C721   H777    1.111   .     S
C721   H778    1.110   .     S
C722   H782    1.117   .     S
C722   O807    1.421   .     S
C722   C723    1.533   .     S
C722   H781    1.109   .     S
C723   H784    1.110   .     S
C723   H783    1.110   .     S
C723   C724    1.526   .     S
C724   H785    1.111   .     S
C724   H787    1.111   .     S
C724   H786    1.110   .     S
C725   N799    1.366   .     A
C725   C732    1.405   .     A
C725   H757    1.079   .     S
C726   O808    1.419   .     S
C726   H788    1.109   .     S
C726   C727    1.532   .     S
C726   H789    1.117   .     S
C727   H791    1.108   .     S
C727   H792    1.111   .     S
C727   C728    1.526   .     S
C728   H794    1.110   .     S
C728   H795    1.111   .     S
C728   H793    1.110   .     S
C729   N800    1.363   .     A
C729   H768    1.082   .     S
C730   H779    1.082   .     S
C731   H790    1.082   .     S
C732   H796    1.082   .     S
Cu733  N800    2.004   .     S
Cu733  Cu734   2.668   .     S
Cu733  O812    1.934   .     S
Cu733  O814    1.936   .     S
Cu733  O801    1.960   .     S
Cu733  O810    1.963   .     S
Cu734  O811    1.963   .     S
Cu734  N799    2.004   .     S
Cu734  O813    1.934   .     S
Cu734  O809    1.960   .     S
Cu734  O815    1.936   .     S
H760   C577    1.110   1_655 S
H798   C566    1.109   1_655 S
C817   C834    1.476   .     S
C817   O947    1.290   .     A
C817   O937    1.298   .     A
C818   C822    1.410   .     A
C818   H933    1.081   .     S
C818   C865    1.405   .     A
C819   C823    1.409   .     S
C819   O951    1.285   .     A
C819   O948    1.284   .     A
C820   C824    1.409   .     S
C820   O950    1.285   .     A
C820   O949    1.284   .     A
C821   C868    1.408   .     A
C821   C866    1.408   .     A
C822   C867    1.410   .     A
C822   C549    1.511   1_565 S
C824   C1367   1.191   .     S
C825   C836    1.410   .     A
C825   C830    1.399   .     A
C825   O952    1.387   .     S
C826   C831    1.400   .     A
C826   C837    1.405   .     A
C826   O938    1.386   .     S
C827   C837    1.410   .     A
C827   C832    1.402   .     A
C827   O939    1.385   .     S
C828   O946    1.294   .     A
C828   O945    1.295   .     A
C828   C835    1.477   .     S
C829   O940    1.387   .     S
C829   C836    1.409   .     A
C829   C833    1.403   .     A
C830   O941    1.384   .     S
C830   C834    1.411   .     A
C831   C835    1.413   .     A
C831   O942    1.384   .     S
C832   C835    1.418   .     A
C832   O943    1.385   .     S
C833   C834    1.418   .     A
C833   O944    1.386   .     S
C836   C973    1.478   1_455 S
C837   C972    1.478   .     S
C838   H872    1.111   .     S
C838   O952    1.417   .     S
C838   C840    1.539   .     S
C838   H1070   1.109   1_455 S
C839   N935    1.366   .     A
C839   C866    1.405   .     A
C839   H871    1.079   .     S
C840   H873    1.111   .     S
C840   H874    1.109   .     S
C841   H876    1.111   .     S
C841   H877    1.109   .     S
C841   H875    1.111   .     S
C841   C1384   1.526   .     S
C842   H879    1.119   .     S
C842   C843    1.530   .     S
C842   H878    1.110   .     S
C842   O938    1.420   .     S
C843   H881    1.106   .     S
C843   H880    1.111   .     S
C844   H884    1.110   .     S
C844   H885    1.107   .     S
C844   H883    1.111   .     S
C844   C1387   1.526   .     S
C845   C846    1.530   .     S
C845   O939    1.415   .     S
C845   H887    1.118   .     S
C845   H1022   1.110   .     S
C846   C847    1.525   .     S
C846   H889    1.110   .     S
C846   H888    1.112   .     S
C847   H890    1.110   .     S
C847   H891    1.110   .     S
C847   H1028   1.110   .     S
C848   O940    1.414   .     S
C848   C849    1.530   .     S
C848   H895    1.114   .     S
C848   H894    1.111   .     S
C849   C851    1.524   .     S
C849   H897    1.109   .     S
C849   H1032   1.110   1_455 S
C850   H882    1.081   .     S
C850   C867    1.405   .     A
C850   N936    1.363   .     A
C851   H898    1.110   .     S
C851   H899    1.111   .     S
C851   H900    1.108   .     S
C852   O941    1.418   .     S
C852   C853    1.529   .     S
C852   H902    1.119   .     S
C852   H901    1.111   .     S
C853   C854    1.526   .     S
C853   H903    1.111   .     S
C853   H905    1.111   .     S
C854   H908    1.111   .     S
C854   H907    1.109   .     S
C854   H906    1.111   .     S
C855   H909    1.114   .     S
C855   O942    1.415   .     S
C855   C856    1.529   .     S
C855   H910    1.115   .     S
C856   H912    1.110   .     S
C856   C857    1.526   .     S
C856   H911    1.110   .     S
C857   H916    1.111   .     S
C857   H913    1.111   .     S
C857   H914    1.110   .     S
C858   H918    1.117   .     S
C858   O943    1.421   .     S
C858   C859    1.533   .     S
C858   H917    1.109   .     S
C859   H920    1.110   .     S
C859   H919    1.110   .     S
C859   C860    1.526   .     S
C860   H921    1.111   .     S
C860   H923    1.111   .     S
C860   H922    1.110   .     S
C861   N935    1.366   .     A
C861   C868    1.405   .     A
C861   H893    1.079   .     S
C862   O944    1.419   .     S
C862   H924    1.109   .     S
C862   C863    1.532   .     S
C862   H925    1.117   .     S
C863   H927    1.108   .     S
C863   H928    1.111   .     S
C863   C864    1.526   .     S
C864   H930    1.110   .     S
C864   H931    1.111   .     S
C864   H929    1.110   .     S
C865   N936    1.363   .     A
C865   H904    1.082   .     S
C866   H915    1.082   .     S
C867   H926    1.082   .     S
C868   H932    1.082   .     S
Cu869  N936    2.004   .     S
Cu869  Cu870   2.668   .     S
Cu869  O948    1.934   .     S
Cu869  O950    1.936   .     S
Cu869  O937    1.960   .     S
Cu869  O946    1.963   .     S
Cu870  O947    1.963   .     S
Cu870  N935    2.004   .     S
Cu870  O949    1.934   .     S
Cu870  O945    1.960   .     S
Cu870  O951    1.936   .     S
H886   C981    1.110   1_455 S
H892   C983    1.110   1_455 S
H896   C985    1.110   .     S
H934   C974    1.109   .     S
C953   C970    1.476   .     S
C953   O1083   1.290   .     A
C953   O1073   1.298   .     A
C954   C958    1.410   .     A
C954   H1069   1.081   .     S
C954   C1001   1.405   .     A
C955   C959    1.409   .     S
C955   O1087   1.285   .     A
C955   O1084   1.284   .     A
C956   C960    1.409   .     S
C956   O1086   1.285   .     A
C956   O1085   1.284   .     A
C957   C1004   1.408   .     A
C957   C1002   1.408   .     A
C958   C1003   1.410   .     A
C958   C685    1.511   1_565 S
C960   C1503   1.191   .     S
C961   C972    1.410   .     A
C961   C966    1.399   .     A
C961   O1088   1.387   .     S
C962   C967    1.400   .     A
C962   C973    1.405   .     A
C962   O1074   1.386   .     S
C963   C973    1.410   .     A
C963   C968    1.402   .     A
C963   O1075   1.385   .     S
C964   O1082   1.294   .     A
C964   O1081   1.295   .     A
C964   C971    1.477   .     S
C965   O1076   1.387   .     S
C965   C972    1.409   .     A
C965   C969    1.403   .     A
C966   O1077   1.384   .     S
C966   C970    1.411   .     A
C967   C971    1.413   .     A
C967   O1078   1.384   .     S
C968   C971    1.418   .     A
C968   O1079   1.385   .     S
C969   C970    1.418   .     A
C969   O1080   1.386   .     S
C973   C836    1.478   1_655 S
C974   H1008   1.111   .     S
C974   O1088   1.417   .     S
C974   C976    1.539   .     S
C975   N1071   1.366   .     A
C975   C1002   1.405   .     A
C975   H1007   1.079   .     S
C976   H1009   1.111   .     S
C976   H1010   1.109   .     S
C977   H1012   1.111   .     S
C977   H1013   1.109   .     S
C977   H1011   1.111   .     S
C977   C1520   1.526   .     S
C978   H1015   1.119   .     S
C978   C979    1.530   .     S
C978   H1014   1.110   .     S
C978   O1074   1.420   .     S
C979   H1017   1.106   .     S
C979   H1016   1.111   .     S
C980   H1020   1.110   .     S
C980   H1021   1.107   .     S
C980   H1019   1.111   .     S
C980   C1523   1.526   .     S
C981   C982    1.530   .     S
C981   O1075   1.415   .     S
C981   H1023   1.118   .     S
C981   H886    1.110   1_655 S
C982   C983    1.525   .     S
C982   H1025   1.110   .     S
C982   H1024   1.112   .     S
C983   H1026   1.110   .     S
C983   H1027   1.110   .     S
C983   H892    1.110   1_655 S
C984   O1076   1.414   .     S
C984   C985    1.530   .     S
C984   H1031   1.114   .     S
C984   H1030   1.111   .     S
C985   C987    1.524   .     S
C985   H1033   1.109   .     S
C986   H1018   1.081   .     S
C986   C1003   1.405   .     A
C986   N1072   1.363   .     A
C987   H1034   1.110   .     S
C987   H1035   1.111   .     S
C987   H1036   1.108   .     S
C988   O1077   1.418   .     S
C988   C989    1.529   .     S
C988   H1038   1.119   .     S
C988   H1037   1.111   .     S
C989   C990    1.526   .     S
C989   H1039   1.111   .     S
C989   H1041   1.111   .     S
C990   H1044   1.111   .     S
C990   H1043   1.109   .     S
C990   H1042   1.111   .     S
C991   H1045   1.114   .     S
C991   O1078   1.415   .     S
C991   C992    1.529   .     S
C991   H1046   1.115   .     S
C992   H1048   1.110   .     S
C992   C993    1.526   .     S
C992   H1047   1.110   .     S
C993   H1052   1.111   .     S
C993   H1049   1.111   .     S
C993   H1050   1.110   .     S
C994   H1054   1.117   .     S
C994   O1079   1.421   .     S
C994   C995    1.533   .     S
C994   H1053   1.109   .     S
C995   H1056   1.110   .     S
C995   H1055   1.110   .     S
C995   C996    1.526   .     S
C996   H1057   1.111   .     S
C996   H1059   1.111   .     S
C996   H1058   1.110   .     S
C997   N1071   1.366   .     A
C997   C1004   1.405   .     A
C997   H1029   1.079   .     S
C998   O1080   1.419   .     S
C998   H1060   1.109   .     S
C998   C999    1.532   .     S
C998   H1061   1.117   .     S
C999   H1063   1.108   .     S
C999   H1064   1.111   .     S
C999   C1000   1.526   .     S
C1000  H1066   1.110   .     S
C1000  H1067   1.111   .     S
C1000  H1065   1.110   .     S
C1001  N1072   1.363   .     A
C1001  H1040   1.082   .     S
C1002  H1051   1.082   .     S
C1003  H1062   1.082   .     S
C1004  H1068   1.082   .     S
Cu1005 N1072   2.004   .     S
Cu1005 Cu1006  2.668   .     S
Cu1005 O1084   1.934   .     S
Cu1005 O1086   1.936   .     S
Cu1005 O1073   1.960   .     S
Cu1005 O1082   1.963   .     S
Cu1006 O1083   1.963   .     S
Cu1006 N1071   2.004   .     S
Cu1006 O1085   1.934   .     S
Cu1006 O1081   1.960   .     S
Cu1006 O1087   1.936   .     S
H1032  C849    1.110   1_655 S
H1070  C838    1.109   1_655 S
C1089  C1106   1.476   .     S
C1089  O1219   1.290   .     A
C1089  O1209   1.298   .     A
C1090  C1094   1.410   .     A
C1090  H1205   1.081   .     S
C1090  C1137   1.405   .     A
C1091  C1095   1.409   .     S
C1091  O1223   1.285   .     A
C1091  O1220   1.284   .     A
C1092  C1096   1.409   .     S
C1092  O1222   1.285   .     A
C1092  O1221   1.284   .     A
C1093  C1140   1.408   .     A
C1093  C1138   1.408   .     A
C1093  C1366   1.511   1_545 S
C1094  C1139   1.410   .     A
C1094  C1365   1.511   .     S
C1096  C7      1.191   1_556 S
C1097  C1108   1.410   .     A
C1097  C1102   1.399   .     A
C1097  O1224   1.387   .     S
C1098  C1103   1.400   .     A
C1098  C1109   1.405   .     A
C1098  O1210   1.386   .     S
C1099  C1109   1.410   .     A
C1099  C1104   1.402   .     A
C1099  O1211   1.385   .     S
C1100  O1218   1.294   .     A
C1100  O1217   1.295   .     A
C1100  C1107   1.477   .     S
C1101  O1212   1.387   .     S
C1101  C1108   1.409   .     A
C1101  C1105   1.403   .     A
C1102  O1213   1.384   .     S
C1102  C1106   1.411   .     A
C1103  C1107   1.413   .     A
C1103  O1214   1.384   .     S
C1104  C1107   1.418   .     A
C1104  O1215   1.385   .     S
C1105  C1106   1.418   .     A
C1105  O1216   1.386   .     S
C1108  C1245   1.478   1_455 S
C1109  C1244   1.478   .     S
C1110  H1144   1.111   .     S
C1110  O1224   1.417   .     S
C1110  C1112   1.539   .     S
C1110  H1342   1.109   1_455 S
C1111  N1207   1.366   .     A
C1111  C1138   1.405   .     A
C1111  H1143   1.079   .     S
C1112  H1145   1.111   .     S
C1112  H1146   1.109   .     S
C1113  H1148   1.111   .     S
C1113  H1149   1.109   .     S
C1113  H1147   1.111   .     S
C1113  C24     1.526   1_556 S
C1114  H1151   1.119   .     S
C1114  C1115   1.530   .     S
C1114  H1150   1.110   .     S
C1114  O1210   1.420   .     S
C1115  H1153   1.106   .     S
C1115  H1152   1.111   .     S
C1116  H1156   1.110   .     S
C1116  H1157   1.107   .     S
C1116  H1155   1.111   .     S
C1116  C27     1.526   1_556 S
C1117  C1118   1.530   .     S
C1117  O1211   1.415   .     S
C1117  H1159   1.118   .     S
C1117  H1294   1.110   .     S
C1118  C1119   1.525   .     S
C1118  H1161   1.110   .     S
C1118  H1160   1.112   .     S
C1119  H1162   1.110   .     S
C1119  H1163   1.110   .     S
C1119  H1300   1.110   .     S
C1120  O1212   1.414   .     S
C1120  C1121   1.530   .     S
C1120  H1167   1.114   .     S
C1120  H1166   1.111   .     S
C1121  C1123   1.524   .     S
C1121  H1169   1.109   .     S
C1121  H1304   1.110   1_455 S
C1122  H1154   1.081   .     S
C1122  C1139   1.405   .     A
C1122  N1208   1.363   .     A
C1123  H1170   1.110   .     S
C1123  H1171   1.111   .     S
C1123  H1172   1.108   .     S
C1124  O1213   1.418   .     S
C1124  C1125   1.529   .     S
C1124  H1174   1.119   .     S
C1124  H1173   1.111   .     S
C1125  C1126   1.526   .     S
C1125  H1175   1.111   .     S
C1125  H1177   1.111   .     S
C1126  H1180   1.111   .     S
C1126  H1179   1.109   .     S
C1126  H1178   1.111   .     S
C1127  H1181   1.114   .     S
C1127  O1214   1.415   .     S
C1127  C1128   1.529   .     S
C1127  H1182   1.115   .     S
C1128  H1184   1.110   .     S
C1128  C1129   1.526   .     S
C1128  H1183   1.110   .     S
C1129  H1188   1.111   .     S
C1129  H1185   1.111   .     S
C1129  H1186   1.110   .     S
C1130  H1190   1.117   .     S
C1130  O1215   1.421   .     S
C1130  C1131   1.533   .     S
C1130  H1189   1.109   .     S
C1131  H1192   1.110   .     S
C1131  H1191   1.110   .     S
C1131  C1132   1.526   .     S
C1132  H1193   1.111   .     S
C1132  H1195   1.111   .     S
C1132  H1194   1.110   .     S
C1133  N1207   1.366   .     A
C1133  C1140   1.405   .     A
C1133  H1165   1.079   .     S
C1134  O1216   1.419   .     S
C1134  H1196   1.109   .     S
C1134  C1135   1.532   .     S
C1134  H1197   1.117   .     S
C1135  H1199   1.108   .     S
C1135  H1200   1.111   .     S
C1135  C1136   1.526   .     S
C1136  H1202   1.110   .     S
C1136  H1203   1.111   .     S
C1136  H1201   1.110   .     S
C1137  N1208   1.363   .     A
C1137  H1176   1.082   .     S
C1138  H1187   1.082   .     S
C1139  H1198   1.082   .     S
C1140  H1204   1.082   .     S
Cu1141 N1208   2.004   .     S
Cu1141 Cu1142  2.668   .     S
Cu1141 O1220   1.934   .     S
Cu1141 O1222   1.936   .     S
Cu1141 O1209   1.960   .     S
Cu1141 O1218   1.963   .     S
Cu1142 O1219   1.963   .     S
Cu1142 N1207   2.004   .     S
Cu1142 O1221   1.934   .     S
Cu1142 O1217   1.960   .     S
Cu1142 O1223   1.936   .     S
H1158  C1253   1.110   1_455 S
H1164  C1255   1.110   1_455 S
H1168  C1257   1.110   .     S
H1206  C1246   1.109   .     S
C1225  C1242   1.476   .     S
C1225  O1355   1.290   .     A
C1225  O1345   1.298   .     A
C1226  C1230   1.410   .     A
C1226  H1341   1.081   .     S
C1226  C1273   1.405   .     A
C1227  C1231   1.409   .     S
C1227  O1359   1.285   .     A
C1227  O1356   1.284   .     A
C1228  C1232   1.409   .     S
C1228  O1358   1.285   .     A
C1228  O1357   1.284   .     A
C1229  C1276   1.408   .     A
C1229  C1274   1.408   .     A
C1229  C1502   1.511   1_545 S
C1230  C1275   1.410   .     A
C1230  C1501   1.511   .     S
C1232  C143    1.191   1_556 S
C1233  C1244   1.410   .     A
C1233  C1238   1.399   .     A
C1233  O1360   1.387   .     S
C1234  C1239   1.400   .     A
C1234  C1245   1.405   .     A
C1234  O1346   1.386   .     S
C1235  C1245   1.410   .     A
C1235  C1240   1.402   .     A
C1235  O1347   1.385   .     S
C1236  O1354   1.294   .     A
C1236  O1353   1.295   .     A
C1236  C1243   1.477   .     S
C1237  O1348   1.387   .     S
C1237  C1244   1.409   .     A
C1237  C1241   1.403   .     A
C1238  O1349   1.384   .     S
C1238  C1242   1.411   .     A
C1239  C1243   1.413   .     A
C1239  O1350   1.384   .     S
C1240  C1243   1.418   .     A
C1240  O1351   1.385   .     S
C1241  C1242   1.418   .     A
C1241  O1352   1.386   .     S
C1245  C1108   1.478   1_655 S
C1246  H1280   1.111   .     S
C1246  O1360   1.417   .     S
C1246  C1248   1.539   .     S
C1247  N1343   1.366   .     A
C1247  C1274   1.405   .     A
C1247  H1279   1.079   .     S
C1248  H1281   1.111   .     S
C1248  H1282   1.109   .     S
C1249  H1284   1.111   .     S
C1249  H1285   1.109   .     S
C1249  H1283   1.111   .     S
C1249  C160    1.526   1_556 S
C1250  H1287   1.119   .     S
C1250  C1251   1.530   .     S
C1250  H1286   1.110   .     S
C1250  O1346   1.420   .     S
C1251  H1289   1.106   .     S
C1251  H1288   1.111   .     S
C1252  H1292   1.110   .     S
C1252  H1293   1.107   .     S
C1252  H1291   1.111   .     S
C1252  C163    1.526   1_556 S
C1253  C1254   1.530   .     S
C1253  O1347   1.415   .     S
C1253  H1295   1.118   .     S
C1253  H1158   1.110   1_655 S
C1254  C1255   1.525   .     S
C1254  H1297   1.110   .     S
C1254  H1296   1.112   .     S
C1255  H1298   1.110   .     S
C1255  H1299   1.110   .     S
C1255  H1164   1.110   1_655 S
C1256  O1348   1.414   .     S
C1256  C1257   1.530   .     S
C1256  H1303   1.114   .     S
C1256  H1302   1.111   .     S
C1257  C1259   1.524   .     S
C1257  H1305   1.109   .     S
C1258  H1290   1.081   .     S
C1258  C1275   1.405   .     A
C1258  N1344   1.363   .     A
C1259  H1306   1.110   .     S
C1259  H1307   1.111   .     S
C1259  H1308   1.108   .     S
C1260  O1349   1.418   .     S
C1260  C1261   1.529   .     S
C1260  H1310   1.119   .     S
C1260  H1309   1.111   .     S
C1261  C1262   1.526   .     S
C1261  H1311   1.111   .     S
C1261  H1313   1.111   .     S
C1262  H1316   1.111   .     S
C1262  H1315   1.109   .     S
C1262  H1314   1.111   .     S
C1263  H1317   1.114   .     S
C1263  O1350   1.415   .     S
C1263  C1264   1.529   .     S
C1263  H1318   1.115   .     S
C1264  H1320   1.110   .     S
C1264  C1265   1.526   .     S
C1264  H1319   1.110   .     S
C1265  H1324   1.111   .     S
C1265  H1321   1.111   .     S
C1265  H1322   1.110   .     S
C1266  H1326   1.117   .     S
C1266  O1351   1.421   .     S
C1266  C1267   1.533   .     S
C1266  H1325   1.109   .     S
C1267  H1328   1.110   .     S
C1267  H1327   1.110   .     S
C1267  C1268   1.526   .     S
C1268  H1329   1.111   .     S
C1268  H1331   1.111   .     S
C1268  H1330   1.110   .     S
C1269  N1343   1.366   .     A
C1269  C1276   1.405   .     A
C1269  H1301   1.079   .     S
C1270  O1352   1.419   .     S
C1270  H1332   1.109   .     S
C1270  C1271   1.532   .     S
C1270  H1333   1.117   .     S
C1271  H1335   1.108   .     S
C1271  H1336   1.111   .     S
C1271  C1272   1.526   .     S
C1272  H1338   1.110   .     S
C1272  H1339   1.111   .     S
C1272  H1337   1.110   .     S
C1273  N1344   1.363   .     A
C1273  H1312   1.082   .     S
C1274  H1323   1.082   .     S
C1275  H1334   1.082   .     S
C1276  H1340   1.082   .     S
Cu1277 N1344   2.004   .     S
Cu1277 Cu1278  2.668   .     S
Cu1277 O1356   1.934   .     S
Cu1277 O1358   1.936   .     S
Cu1277 O1345   1.960   .     S
Cu1277 O1354   1.963   .     S
Cu1278 O1355   1.963   .     S
Cu1278 N1343   2.004   .     S
Cu1278 O1357   1.934   .     S
Cu1278 O1353   1.960   .     S
Cu1278 O1359   1.936   .     S
H1304  C1121   1.110   1_655 S
H1342  C1110   1.109   1_655 S
C1361  C1378   1.476   .     S
C1361  O1491   1.290   .     A
C1361  O1481   1.298   .     A
C1362  C1366   1.410   .     A
C1362  H1477   1.081   .     S
C1362  C1409   1.405   .     A
C1363  C1367   1.409   .     S
C1363  O1495   1.285   .     A
C1363  O1492   1.284   .     A
C1364  C1368   1.409   .     S
C1364  O1494   1.285   .     A
C1364  O1493   1.284   .     A
C1365  C1412   1.408   .     A
C1365  C1410   1.408   .     A
C1366  C1411   1.410   .     A
C1366  C1093   1.511   1_565 S
C1368  C279    1.191   1_556 S
C1369  C1380   1.410   .     A
C1369  C1374   1.399   .     A
C1369  O1496   1.387   .     S
C1370  C1375   1.400   .     A
C1370  C1381   1.405   .     A
C1370  O1482   1.386   .     S
C1371  C1381   1.410   .     A
C1371  C1376   1.402   .     A
C1371  O1483   1.385   .     S
C1372  O1490   1.294   .     A
C1372  O1489   1.295   .     A
C1372  C1379   1.477   .     S
C1373  O1484   1.387   .     S
C1373  C1380   1.409   .     A
C1373  C1377   1.403   .     A
C1374  O1485   1.384   .     S
C1374  C1378   1.411   .     A
C1375  C1379   1.413   .     A
C1375  O1486   1.384   .     S
C1376  C1379   1.418   .     A
C1376  O1487   1.385   .     S
C1377  C1378   1.418   .     A
C1377  O1488   1.386   .     S
C1380  C1517   1.478   1_455 S
C1381  C1516   1.478   .     S
C1382  H1416   1.111   .     S
C1382  O1496   1.417   .     S
C1382  C1384   1.539   .     S
C1382  H1614   1.109   1_455 S
C1383  N1479   1.366   .     A
C1383  C1410   1.405   .     A
C1383  H1415   1.079   .     S
C1384  H1417   1.111   .     S
C1384  H1418   1.109   .     S
C1385  H1420   1.111   .     S
C1385  H1421   1.109   .     S
C1385  H1419   1.111   .     S
C1385  C296    1.526   1_556 S
C1386  H1423   1.119   .     S
C1386  C1387   1.530   .     S
C1386  H1422   1.110   .     S
C1386  O1482   1.420   .     S
C1387  H1425   1.106   .     S
C1387  H1424   1.111   .     S
C1388  H1428   1.110   .     S
C1388  H1429   1.107   .     S
C1388  H1427   1.111   .     S
C1388  C299    1.526   1_556 S
C1389  C1390   1.530   .     S
C1389  O1483   1.415   .     S
C1389  H1431   1.118   .     S
C1389  H1566   1.110   .     S
C1390  C1391   1.525   .     S
C1390  H1433   1.110   .     S
C1390  H1432   1.112   .     S
C1391  H1434   1.110   .     S
C1391  H1435   1.110   .     S
C1391  H1572   1.110   .     S
C1392  O1484   1.414   .     S
C1392  C1393   1.530   .     S
C1392  H1439   1.114   .     S
C1392  H1438   1.111   .     S
C1393  C1395   1.524   .     S
C1393  H1441   1.109   .     S
C1393  H1576   1.110   1_455 S
C1394  H1426   1.081   .     S
C1394  C1411   1.405   .     A
C1394  N1480   1.363   .     A
C1395  H1442   1.110   .     S
C1395  H1443   1.111   .     S
C1395  H1444   1.108   .     S
C1396  O1485   1.418   .     S
C1396  C1397   1.529   .     S
C1396  H1446   1.119   .     S
C1396  H1445   1.111   .     S
C1397  C1398   1.526   .     S
C1397  H1447   1.111   .     S
C1397  H1449   1.111   .     S
C1398  H1452   1.111   .     S
C1398  H1451   1.109   .     S
C1398  H1450   1.111   .     S
C1399  H1453   1.114   .     S
C1399  O1486   1.415   .     S
C1399  C1400   1.529   .     S
C1399  H1454   1.115   .     S
C1400  H1456   1.110   .     S
C1400  C1401   1.526   .     S
C1400  H1455   1.110   .     S
C1401  H1460   1.111   .     S
C1401  H1457   1.111   .     S
C1401  H1458   1.110   .     S
C1402  H1462   1.117   .     S
C1402  O1487   1.421   .     S
C1402  C1403   1.533   .     S
C1402  H1461   1.109   .     S
C1403  H1464   1.110   .     S
C1403  H1463   1.110   .     S
C1403  C1404   1.526   .     S
C1404  H1465   1.111   .     S
C1404  H1467   1.111   .     S
C1404  H1466   1.110   .     S
C1405  N1479   1.366   .     A
C1405  C1412   1.405   .     A
C1405  H1437   1.079   .     S
C1406  O1488   1.419   .     S
C1406  H1468   1.109   .     S
C1406  C1407   1.532   .     S
C1406  H1469   1.117   .     S
C1407  H1471   1.108   .     S
C1407  H1472   1.111   .     S
C1407  C1408   1.526   .     S
C1408  H1474   1.110   .     S
C1408  H1475   1.111   .     S
C1408  H1473   1.110   .     S
C1409  N1480   1.363   .     A
C1409  H1448   1.082   .     S
C1410  H1459   1.082   .     S
C1411  H1470   1.082   .     S
C1412  H1476   1.082   .     S
Cu1413 N1480   2.004   .     S
Cu1413 Cu1414  2.668   .     S
Cu1413 O1492   1.934   .     S
Cu1413 O1494   1.936   .     S
Cu1413 O1481   1.960   .     S
Cu1413 O1490   1.963   .     S
Cu1414 O1491   1.963   .     S
Cu1414 N1479   2.004   .     S
Cu1414 O1493   1.934   .     S
Cu1414 O1489   1.960   .     S
Cu1414 O1495   1.936   .     S
H1430  C1525   1.110   1_455 S
H1436  C1527   1.110   1_455 S
H1440  C1529   1.110   .     S
H1478  C1518   1.109   .     S
C1497  C1514   1.476   .     S
C1497  O1627   1.290   .     A
C1497  O1617   1.298   .     A
C1498  C1502   1.410   .     A
C1498  H1613   1.081   .     S
C1498  C1545   1.405   .     A
C1499  C1503   1.409   .     S
C1499  O1631   1.285   .     A
C1499  O1628   1.284   .     A
C1500  C1504   1.409   .     S
C1500  O1630   1.285   .     A
C1500  O1629   1.284   .     A
C1501  C1548   1.408   .     A
C1501  C1546   1.408   .     A
C1502  C1547   1.410   .     A
C1502  C1229   1.511   1_565 S
C1504  C415    1.191   1_556 S
C1505  C1516   1.410   .     A
C1505  C1510   1.399   .     A
C1505  O1632   1.387   .     S
C1506  C1511   1.400   .     A
C1506  C1517   1.405   .     A
C1506  O1618   1.386   .     S
C1507  C1517   1.410   .     A
C1507  C1512   1.402   .     A
C1507  O1619   1.385   .     S
C1508  O1626   1.294   .     A
C1508  O1625   1.295   .     A
C1508  C1515   1.477   .     S
C1509  O1620   1.387   .     S
C1509  C1516   1.409   .     A
C1509  C1513   1.403   .     A
C1510  O1621   1.384   .     S
C1510  C1514   1.411   .     A
C1511  C1515   1.413   .     A
C1511  O1622   1.384   .     S
C1512  C1515   1.418   .     A
C1512  O1623   1.385   .     S
C1513  C1514   1.418   .     A
C1513  O1624   1.386   .     S
C1517  C1380   1.478   1_655 S
C1518  H1552   1.111   .     S
C1518  O1632   1.417   .     S
C1518  C1520   1.539   .     S
C1519  N1615   1.366   .     A
C1519  C1546   1.405   .     A
C1519  H1551   1.079   .     S
C1520  H1553   1.111   .     S
C1520  H1554   1.109   .     S
C1521  H1556   1.111   .     S
C1521  H1557   1.109   .     S
C1521  H1555   1.111   .     S
C1521  C432    1.526   1_556 S
C1522  H1559   1.119   .     S
C1522  C1523   1.530   .     S
C1522  H1558   1.110   .     S
C1522  O1618   1.420   .     S
C1523  H1561   1.106   .     S
C1523  H1560   1.111   .     S
C1524  H1564   1.110   .     S
C1524  H1565   1.107   .     S
C1524  H1563   1.111   .     S
C1524  C435    1.526   1_556 S
C1525  C1526   1.530   .     S
C1525  O1619   1.415   .     S
C1525  H1567   1.118   .     S
C1525  H1430   1.110   1_655 S
C1526  C1527   1.525   .     S
C1526  H1569   1.110   .     S
C1526  H1568   1.112   .     S
C1527  H1570   1.110   .     S
C1527  H1571   1.110   .     S
C1527  H1436   1.110   1_655 S
C1528  O1620   1.414   .     S
C1528  C1529   1.530   .     S
C1528  H1575   1.114   .     S
C1528  H1574   1.111   .     S
C1529  C1531   1.524   .     S
C1529  H1577   1.109   .     S
C1530  H1562   1.081   .     S
C1530  C1547   1.405   .     A
C1530  N1616   1.363   .     A
C1531  H1578   1.110   .     S
C1531  H1579   1.111   .     S
C1531  H1580   1.108   .     S
C1532  O1621   1.418   .     S
C1532  C1533   1.529   .     S
C1532  H1582   1.119   .     S
C1532  H1581   1.111   .     S
C1533  C1534   1.526   .     S
C1533  H1583   1.111   .     S
C1533  H1585   1.111   .     S
C1534  H1588   1.111   .     S
C1534  H1587   1.109   .     S
C1534  H1586   1.111   .     S
C1535  H1589   1.114   .     S
C1535  O1622   1.415   .     S
C1535  C1536   1.529   .     S
C1535  H1590   1.115   .     S
C1536  H1592   1.110   .     S
C1536  C1537   1.526   .     S
C1536  H1591   1.110   .     S
C1537  H1596   1.111   .     S
C1537  H1593   1.111   .     S
C1537  H1594   1.110   .     S
C1538  H1598   1.117   .     S
C1538  O1623   1.421   .     S
C1538  C1539   1.533   .     S
C1538  H1597   1.109   .     S
C1539  H1600   1.110   .     S
C1539  H1599   1.110   .     S
C1539  C1540   1.526   .     S
C1540  H1601   1.111   .     S
C1540  H1603   1.111   .     S
C1540  H1602   1.110   .     S
C1541  N1615   1.366   .     A
C1541  C1548   1.405   .     A
C1541  H1573   1.079   .     S
C1542  O1624   1.419   .     S
C1542  H1604   1.109   .     S
C1542  C1543   1.532   .     S
C1542  H1605   1.117   .     S
C1543  H1607   1.108   .     S
C1543  H1608   1.111   .     S
C1543  C1544   1.526   .     S
C1544  H1610   1.110   .     S
C1544  H1611   1.111   .     S
C1544  H1609   1.110   .     S
C1545  N1616   1.363   .     A
C1545  H1584   1.082   .     S
C1546  H1595   1.082   .     S
C1547  H1606   1.082   .     S
C1548  H1612   1.082   .     S
Cu1549 N1616   2.004   .     S
Cu1549 Cu1550  2.668   .     S
Cu1549 O1628   1.934   .     S
Cu1549 O1630   1.936   .     S
Cu1549 O1617   1.960   .     S
Cu1549 O1626   1.963   .     S
Cu1550 O1627   1.963   .     S
Cu1550 N1615   2.004   .     S
Cu1550 O1629   1.934   .     S
Cu1550 O1625   1.960   .     S
Cu1550 O1631   1.936   .     S
H1576  C1393   1.110   1_655 S
H1614  C1382   1.109   1_655 S
