data_str_m2_o10_o18_pcu_sym.157
_audit_creation_date              2020-01-03
_audit_creation_method            'Materials Studio'
_symmetry_space_group_name_H-M    'P1'
_symmetry_Int_Tables_number       1
_symmetry_cell_setting            triclinic
loop_
_symmetry_equiv_pos_as_xyz
  x,y,z
_cell_length_a                    22.2434
_cell_length_b                    26.2221
_cell_length_c                    31.5859
_cell_angle_alpha                 94.0365
_cell_angle_beta                  75.2011
_cell_angle_gamma                 102.4665
loop_
_atom_site_label
_atom_site_type_symbol
_atom_site_fract_x
_atom_site_fract_y
_atom_site_fract_z
_atom_site_U_iso_or_equiv
_atom_site_adp_type
_atom_site_occupancy
C1     C     0.18029   0.26633   0.25271   0.00000  Uiso   1.00
C2     C     0.15304   0.06700   0.24729   0.00000  Uiso   1.00
C3     C     0.10009   0.11805   0.03431   0.00000  Uiso   1.00
C4     C     0.23325   0.21529   0.46569   0.00000  Uiso   1.00
C5     C     0.05323   0.11446   0.01143   0.00000  Uiso   1.00
C6     C     0.28010   0.21888   0.48857   0.00000  Uiso   1.00
C7     C     0.18216   0.32096   0.26066   0.00000  Uiso   1.00
C8     C     0.15118   0.01238   0.23934   0.00000  Uiso   1.00
C9     C     0.12805   0.16279   0.33320   0.00000  Uiso   1.00
C10    C     0.20529   0.17054   0.16680   0.00000  Uiso   1.00
C11    C     0.10474   0.15811   0.38096   0.00000  Uiso   1.00
C12    C     0.22859   0.17523   0.11905   0.00000  Uiso   1.00
C13    C     0.02279   0.12595   0.44512   0.00000  Uiso   1.00
C14    C     0.31054   0.20739   0.05489   0.00000  Uiso   1.00
C15    C     0.04080   0.13818   0.40079   0.00000  Uiso   1.00
C16    C     0.29254   0.19516   0.09921   0.00000  Uiso   1.00
C17    C     0.14884   0.17013   0.40671   0.00000  Uiso   1.00
C18    C     0.18450   0.16321   0.09329   0.00000  Uiso   1.00
C19    C     0.13044   0.16375   0.45220   0.00000  Uiso   1.00
C20    C     0.20290   0.16958   0.04780   0.00000  Uiso   1.00
C21    C     0.06793   0.13638   0.47033   0.00000  Uiso   1.00
C22    C     0.26541   0.19696   0.02967   0.00000  Uiso   1.00
C23    C     0.17437   0.17843   0.47902   0.00000  Uiso   1.00
C24    C     0.15897   0.15491   0.02098   0.00000  Uiso   1.00
Cu25   Cu    0.10737   0.16108   0.24517   0.00000  Uiso   1.00
Cu26   Cu    0.22596   0.17225   0.25484   0.00000  Uiso   1.00
H27    H     0.00711   0.08920   0.02344   0.00000  Uiso   1.00
H28    H     0.32623   0.24414   0.47657   0.00000  Uiso   1.00
H29    H     0.13483   0.15207   0.10947   0.00000  Uiso   1.00
H30    H     0.19851   0.18127   0.39053   0.00000  Uiso   1.00
H31    H     0.32750   0.20481   0.11845   0.00000  Uiso   1.00
H32    H     0.00583   0.12853   0.38155   0.00000  Uiso   1.00
H33    H     0.30761   0.10631   0.45923   0.00000  Uiso   1.00
H34    H     0.02573   0.22703   0.04078   0.00000  Uiso   1.00
H35    H     0.00146   0.20502   0.28420   0.00000  Uiso   1.00
H36    H     0.33187   0.12831   0.21581   0.00000  Uiso   1.00
N37    N     0.31506   0.18068   0.26212   0.00000  Uiso   1.00
N38    N     0.01827   0.15265   0.23788   0.00000  Uiso   1.00
O39    O     0.12815   0.23809   0.24686   0.00000  Uiso   1.00
O40    O     0.20518   0.09524   0.25314   0.00000  Uiso   1.00
O41    O     0.22829   0.24753   0.25503   0.00000  Uiso   1.00
O42    O     0.10504   0.08580   0.24498   0.00000  Uiso   1.00
O43    O     0.08851   0.15930   0.30855   0.00000  Uiso   1.00
O44    O     0.24482   0.17403   0.19146   0.00000  Uiso   1.00
O45    O     0.18866   0.16874   0.31671   0.00000  Uiso   1.00
O46    O     0.14468   0.16460   0.18329   0.00000  Uiso   1.00
C47    C     0.08792   0.07591   0.06760   0.00000  Uiso   1.00
H48    H     0.13246   0.06965   0.07410   0.00000  Uiso   1.00
H49    H     0.05453   0.08526   0.09838   0.00000  Uiso   1.00
H50    H     0.06591   0.03780   0.05477   0.00000  Uiso   1.00
C51    C     0.24542   0.25742   0.43239   0.00000  Uiso   1.00
H52    H     0.27881   0.24807   0.40161   0.00000  Uiso   1.00
H53    H     0.20088   0.26369   0.42589   0.00000  Uiso   1.00
H54    H     0.26743   0.29553   0.44522   0.00000  Uiso   1.00
C55    C     0.21330   0.01266   0.29681   0.00000  Uiso   1.00
H56    H     0.22310   0.31621   0.31605   0.00000  Uiso   1.00
H57    H     0.25946   0.03891   0.28258   0.00000  Uiso   1.00
H58    H     0.18142   0.03466   0.32033   0.00000  Uiso   1.00
C59    C     0.12001   0.32066   0.20320   0.00000  Uiso   1.00
H60    H     0.11020   0.01712   0.18396   0.00000  Uiso   1.00
H61    H     0.15189   0.29867   0.17968   0.00000  Uiso   1.00
H62    H     0.07386   0.29443   0.21743   0.00000  Uiso   1.00
C63    C     0.51362   0.26633   0.25271   0.00000  Uiso   1.00
C64    C     0.48638   0.06700   0.24729   0.00000  Uiso   1.00
C65    C     0.43342   0.11805   0.03431   0.00000  Uiso   1.00
C66    C     0.56658   0.21529   0.46569   0.00000  Uiso   1.00
C67    C     0.38657   0.11446   0.01143   0.00000  Uiso   1.00
C68    C     0.61344   0.21888   0.48857   0.00000  Uiso   1.00
C69    C     0.51549   0.32096   0.26066   0.00000  Uiso   1.00
C70    C     0.48451   0.01238   0.23934   0.00000  Uiso   1.00
C71    C     0.46138   0.16279   0.33320   0.00000  Uiso   1.00
C72    C     0.53862   0.17054   0.16680   0.00000  Uiso   1.00
C73    C     0.43808   0.15811   0.38096   0.00000  Uiso   1.00
C74    C     0.56192   0.17523   0.11905   0.00000  Uiso   1.00
C75    C     0.35613   0.12595   0.44512   0.00000  Uiso   1.00
C76    C     0.64388   0.20739   0.05489   0.00000  Uiso   1.00
C77    C     0.37413   0.13818   0.40079   0.00000  Uiso   1.00
C78    C     0.62587   0.19516   0.09921   0.00000  Uiso   1.00
C79    C     0.48217   0.17013   0.40671   0.00000  Uiso   1.00
C80    C     0.51783   0.16321   0.09329   0.00000  Uiso   1.00
C81    C     0.46377   0.16375   0.45220   0.00000  Uiso   1.00
C82    C     0.53623   0.16958   0.04780   0.00000  Uiso   1.00
C83    C     0.40126   0.13638   0.47033   0.00000  Uiso   1.00
C84    C     0.59874   0.19696   0.02967   0.00000  Uiso   1.00
C85    C     0.50770   0.17843   0.47902   0.00000  Uiso   1.00
C86    C     0.49230   0.15491   0.02098   0.00000  Uiso   1.00
Cu87   Cu    0.44071   0.16108   0.24517   0.00000  Uiso   1.00
Cu88   Cu    0.55929   0.17225   0.25484   0.00000  Uiso   1.00
H89    H     0.34044   0.08920   0.02344   0.00000  Uiso   1.00
H90    H     0.65956   0.24414   0.47657   0.00000  Uiso   1.00
H91    H     0.46816   0.15207   0.10947   0.00000  Uiso   1.00
H92    H     0.53184   0.18127   0.39053   0.00000  Uiso   1.00
H93    H     0.66084   0.20481   0.11845   0.00000  Uiso   1.00
H94    H     0.33916   0.12853   0.38155   0.00000  Uiso   1.00
H95    H     0.64094   0.10631   0.45923   0.00000  Uiso   1.00
H96    H     0.35906   0.22703   0.04078   0.00000  Uiso   1.00
H97    H     0.33480   0.20502   0.28420   0.00000  Uiso   1.00
H98    H     0.66520   0.12831   0.21581   0.00000  Uiso   1.00
N99    N     0.64839   0.18068   0.26212   0.00000  Uiso   1.00
N100   N     0.35161   0.15265   0.23788   0.00000  Uiso   1.00
O101   O     0.46148   0.23809   0.24686   0.00000  Uiso   1.00
O102   O     0.53852   0.09524   0.25314   0.00000  Uiso   1.00
O103   O     0.56163   0.24753   0.25503   0.00000  Uiso   1.00
O104   O     0.43837   0.08580   0.24498   0.00000  Uiso   1.00
O105   O     0.42185   0.15930   0.30855   0.00000  Uiso   1.00
O106   O     0.57815   0.17403   0.19146   0.00000  Uiso   1.00
O107   O     0.52199   0.16874   0.31671   0.00000  Uiso   1.00
O108   O     0.47801   0.16460   0.18329   0.00000  Uiso   1.00
C109   C     0.42126   0.07591   0.06760   0.00000  Uiso   1.00
H110   H     0.46580   0.06965   0.07410   0.00000  Uiso   1.00
H111   H     0.38786   0.08526   0.09838   0.00000  Uiso   1.00
H112   H     0.39925   0.03780   0.05477   0.00000  Uiso   1.00
C113   C     0.57875   0.25742   0.43239   0.00000  Uiso   1.00
H114   H     0.61214   0.24807   0.40161   0.00000  Uiso   1.00
H115   H     0.53421   0.26369   0.42589   0.00000  Uiso   1.00
H116   H     0.60077   0.29553   0.44522   0.00000  Uiso   1.00
C117   C     0.54663   0.01266   0.29681   0.00000  Uiso   1.00
H118   H     0.55644   0.31621   0.31605   0.00000  Uiso   1.00
H119   H     0.59280   0.03891   0.28258   0.00000  Uiso   1.00
H120   H     0.51475   0.03466   0.32033   0.00000  Uiso   1.00
C121   C     0.45335   0.32066   0.20320   0.00000  Uiso   1.00
H122   H     0.44354   0.01712   0.18396   0.00000  Uiso   1.00
H123   H     0.48522   0.29867   0.17968   0.00000  Uiso   1.00
H124   H     0.40719   0.29443   0.21743   0.00000  Uiso   1.00
C125   C     0.84696   0.26633   0.25271   0.00000  Uiso   1.00
C126   C     0.81971   0.06700   0.24729   0.00000  Uiso   1.00
C127   C     0.76676   0.11805   0.03431   0.00000  Uiso   1.00
C128   C     0.89991   0.21529   0.46569   0.00000  Uiso   1.00
C129   C     0.71990   0.11446   0.01143   0.00000  Uiso   1.00
C130   C     0.94677   0.21888   0.48857   0.00000  Uiso   1.00
C131   C     0.84882   0.32096   0.26066   0.00000  Uiso   1.00
C132   C     0.81785   0.01238   0.23934   0.00000  Uiso   1.00
C133   C     0.79471   0.16279   0.33320   0.00000  Uiso   1.00
C134   C     0.87195   0.17054   0.16680   0.00000  Uiso   1.00
C135   C     0.77141   0.15811   0.38096   0.00000  Uiso   1.00
C136   C     0.89526   0.17523   0.11905   0.00000  Uiso   1.00
C137   C     0.68946   0.12595   0.44512   0.00000  Uiso   1.00
C138   C     0.97721   0.20739   0.05489   0.00000  Uiso   1.00
C139   C     0.70746   0.13818   0.40079   0.00000  Uiso   1.00
C140   C     0.95920   0.19516   0.09921   0.00000  Uiso   1.00
C141   C     0.81550   0.17013   0.40671   0.00000  Uiso   1.00
C142   C     0.85117   0.16321   0.09329   0.00000  Uiso   1.00
C143   C     0.79710   0.16375   0.45220   0.00000  Uiso   1.00
C144   C     0.86956   0.16958   0.04780   0.00000  Uiso   1.00
C145   C     0.73459   0.13638   0.47033   0.00000  Uiso   1.00
C146   C     0.93208   0.19696   0.02967   0.00000  Uiso   1.00
C147   C     0.84104   0.17843   0.47902   0.00000  Uiso   1.00
C148   C     0.82563   0.15491   0.02098   0.00000  Uiso   1.00
Cu149  Cu    0.77404   0.16108   0.24517   0.00000  Uiso   1.00
Cu150  Cu    0.89263   0.17225   0.25484   0.00000  Uiso   1.00
H151   H     0.67377   0.08920   0.02344   0.00000  Uiso   1.00
H152   H     0.99290   0.24414   0.47657   0.00000  Uiso   1.00
H153   H     0.80149   0.15207   0.10947   0.00000  Uiso   1.00
H154   H     0.86517   0.18127   0.39053   0.00000  Uiso   1.00
H155   H     0.99417   0.20481   0.11845   0.00000  Uiso   1.00
H156   H     0.67250   0.12853   0.38155   0.00000  Uiso   1.00
H157   H     0.97427   0.10631   0.45923   0.00000  Uiso   1.00
H158   H     0.69239   0.22703   0.04078   0.00000  Uiso   1.00
H159   H     0.66813   0.20502   0.28420   0.00000  Uiso   1.00
H160   H     0.99854   0.12831   0.21581   0.00000  Uiso   1.00
N161   N     0.98173   0.18068   0.26212   0.00000  Uiso   1.00
N162   N     0.68494   0.15265   0.23788   0.00000  Uiso   1.00
O163   O     0.79482   0.23809   0.24686   0.00000  Uiso   1.00
O164   O     0.87185   0.09524   0.25314   0.00000  Uiso   1.00
O165   O     0.89496   0.24753   0.25503   0.00000  Uiso   1.00
O166   O     0.77171   0.08580   0.24498   0.00000  Uiso   1.00
O167   O     0.75518   0.15930   0.30855   0.00000  Uiso   1.00
O168   O     0.91149   0.17403   0.19146   0.00000  Uiso   1.00
O169   O     0.85532   0.16874   0.31671   0.00000  Uiso   1.00
O170   O     0.81134   0.16460   0.18329   0.00000  Uiso   1.00
C171   C     0.75459   0.07591   0.06760   0.00000  Uiso   1.00
H172   H     0.79913   0.06965   0.07410   0.00000  Uiso   1.00
H173   H     0.72120   0.08526   0.09838   0.00000  Uiso   1.00
H174   H     0.73258   0.03780   0.05477   0.00000  Uiso   1.00
C175   C     0.91209   0.25742   0.43239   0.00000  Uiso   1.00
H176   H     0.94548   0.24807   0.40161   0.00000  Uiso   1.00
H177   H     0.86755   0.26369   0.42589   0.00000  Uiso   1.00
H178   H     0.93410   0.29553   0.44522   0.00000  Uiso   1.00
C179   C     0.87997   0.01266   0.29681   0.00000  Uiso   1.00
H180   H     0.88977   0.31621   0.31605   0.00000  Uiso   1.00
H181   H     0.92613   0.03891   0.28258   0.00000  Uiso   1.00
H182   H     0.84808   0.03466   0.32033   0.00000  Uiso   1.00
C183   C     0.78668   0.32066   0.20320   0.00000  Uiso   1.00
H184   H     0.77687   0.01712   0.18396   0.00000  Uiso   1.00
H185   H     0.81856   0.29867   0.17968   0.00000  Uiso   1.00
H186   H     0.74052   0.29443   0.21743   0.00000  Uiso   1.00
C187   C     0.18029   0.59966   0.25271   0.00000  Uiso   1.00
C188   C     0.15304   0.40034   0.24729   0.00000  Uiso   1.00
C189   C     0.10009   0.45138   0.03431   0.00000  Uiso   1.00
C190   C     0.23325   0.54862   0.46569   0.00000  Uiso   1.00
C191   C     0.05323   0.44779   0.01143   0.00000  Uiso   1.00
C192   C     0.28010   0.55221   0.48857   0.00000  Uiso   1.00
C193   C     0.18216   0.65429   0.26066   0.00000  Uiso   1.00
C194   C     0.15118   0.34571   0.23934   0.00000  Uiso   1.00
C195   C     0.12805   0.49612   0.33320   0.00000  Uiso   1.00
C196   C     0.20529   0.50388   0.16680   0.00000  Uiso   1.00
C197   C     0.10474   0.49144   0.38096   0.00000  Uiso   1.00
C198   C     0.22859   0.50856   0.11905   0.00000  Uiso   1.00
C199   C     0.02279   0.45928   0.44512   0.00000  Uiso   1.00
C200   C     0.31054   0.54073   0.05489   0.00000  Uiso   1.00
C201   C     0.04080   0.47151   0.40079   0.00000  Uiso   1.00
C202   C     0.29254   0.52849   0.09921   0.00000  Uiso   1.00
C203   C     0.14884   0.50346   0.40671   0.00000  Uiso   1.00
C204   C     0.18450   0.49654   0.09329   0.00000  Uiso   1.00
C205   C     0.13044   0.49709   0.45220   0.00000  Uiso   1.00
C206   C     0.20290   0.50292   0.04780   0.00000  Uiso   1.00
C207   C     0.06793   0.46971   0.47033   0.00000  Uiso   1.00
C208   C     0.26541   0.53029   0.02967   0.00000  Uiso   1.00
C209   C     0.17437   0.51176   0.47902   0.00000  Uiso   1.00
C210   C     0.15897   0.48824   0.02098   0.00000  Uiso   1.00
Cu211  Cu    0.10737   0.49441   0.24517   0.00000  Uiso   1.00
Cu212  Cu    0.22596   0.50559   0.25484   0.00000  Uiso   1.00
H213   H     0.00711   0.42253   0.02344   0.00000  Uiso   1.00
H214   H     0.32623   0.57747   0.47657   0.00000  Uiso   1.00
H215   H     0.13483   0.48540   0.10947   0.00000  Uiso   1.00
H216   H     0.19851   0.51460   0.39053   0.00000  Uiso   1.00
H217   H     0.32750   0.53814   0.11845   0.00000  Uiso   1.00
H218   H     0.00583   0.46186   0.38155   0.00000  Uiso   1.00
H219   H     0.30761   0.43964   0.45923   0.00000  Uiso   1.00
H220   H     0.02573   0.56037   0.04078   0.00000  Uiso   1.00
H221   H     0.00146   0.53836   0.28420   0.00000  Uiso   1.00
H222   H     0.33187   0.46164   0.21581   0.00000  Uiso   1.00
N223   N     0.31506   0.51401   0.26212   0.00000  Uiso   1.00
N224   N     0.01827   0.48599   0.23788   0.00000  Uiso   1.00
O225   O     0.12815   0.57142   0.24686   0.00000  Uiso   1.00
O226   O     0.20518   0.42858   0.25314   0.00000  Uiso   1.00
O227   O     0.22829   0.58086   0.25503   0.00000  Uiso   1.00
O228   O     0.10504   0.41914   0.24498   0.00000  Uiso   1.00
O229   O     0.08851   0.49263   0.30855   0.00000  Uiso   1.00
O230   O     0.24482   0.50737   0.19146   0.00000  Uiso   1.00
O231   O     0.18866   0.50207   0.31671   0.00000  Uiso   1.00
O232   O     0.14468   0.49793   0.18329   0.00000  Uiso   1.00
C233   C     0.08792   0.40925   0.06760   0.00000  Uiso   1.00
H234   H     0.13246   0.40298   0.07410   0.00000  Uiso   1.00
H235   H     0.05453   0.41859   0.09838   0.00000  Uiso   1.00
H236   H     0.06591   0.37113   0.05477   0.00000  Uiso   1.00
C237   C     0.24542   0.59075   0.43239   0.00000  Uiso   1.00
H238   H     0.27881   0.58140   0.40161   0.00000  Uiso   1.00
H239   H     0.20088   0.59702   0.42589   0.00000  Uiso   1.00
H240   H     0.26743   0.62887   0.44522   0.00000  Uiso   1.00
C241   C     0.21330   0.34600   0.29681   0.00000  Uiso   1.00
H242   H     0.22310   0.64954   0.31605   0.00000  Uiso   1.00
H243   H     0.25946   0.37224   0.28258   0.00000  Uiso   1.00
H244   H     0.18142   0.36799   0.32033   0.00000  Uiso   1.00
C245   C     0.12001   0.65400   0.20320   0.00000  Uiso   1.00
H246   H     0.11020   0.35045   0.18396   0.00000  Uiso   1.00
H247   H     0.15189   0.63200   0.17968   0.00000  Uiso   1.00
H248   H     0.07386   0.62776   0.21743   0.00000  Uiso   1.00
C249   C     0.51362   0.59966   0.25271   0.00000  Uiso   1.00
C250   C     0.48638   0.40034   0.24729   0.00000  Uiso   1.00
C251   C     0.43342   0.45138   0.03431   0.00000  Uiso   1.00
C252   C     0.56658   0.54862   0.46569   0.00000  Uiso   1.00
C253   C     0.38657   0.44779   0.01143   0.00000  Uiso   1.00
C254   C     0.61344   0.55221   0.48857   0.00000  Uiso   1.00
C255   C     0.51549   0.65429   0.26066   0.00000  Uiso   1.00
C256   C     0.48451   0.34571   0.23934   0.00000  Uiso   1.00
C257   C     0.46138   0.49612   0.33320   0.00000  Uiso   1.00
C258   C     0.53862   0.50388   0.16680   0.00000  Uiso   1.00
C259   C     0.43808   0.49144   0.38096   0.00000  Uiso   1.00
C260   C     0.56192   0.50856   0.11905   0.00000  Uiso   1.00
C261   C     0.35613   0.45928   0.44512   0.00000  Uiso   1.00
C262   C     0.64388   0.54073   0.05489   0.00000  Uiso   1.00
C263   C     0.37413   0.47151   0.40079   0.00000  Uiso   1.00
C264   C     0.62587   0.52849   0.09921   0.00000  Uiso   1.00
C265   C     0.48217   0.50346   0.40671   0.00000  Uiso   1.00
C266   C     0.51783   0.49654   0.09329   0.00000  Uiso   1.00
C267   C     0.46377   0.49709   0.45220   0.00000  Uiso   1.00
C268   C     0.53623   0.50292   0.04780   0.00000  Uiso   1.00
C269   C     0.40126   0.46971   0.47033   0.00000  Uiso   1.00
C270   C     0.59874   0.53029   0.02967   0.00000  Uiso   1.00
C271   C     0.50770   0.51176   0.47902   0.00000  Uiso   1.00
C272   C     0.49230   0.48824   0.02098   0.00000  Uiso   1.00
Cu273  Cu    0.44071   0.49441   0.24517   0.00000  Uiso   1.00
Cu274  Cu    0.55929   0.50559   0.25484   0.00000  Uiso   1.00
H275   H     0.34044   0.42253   0.02344   0.00000  Uiso   1.00
H276   H     0.65956   0.57747   0.47657   0.00000  Uiso   1.00
H277   H     0.46816   0.48540   0.10947   0.00000  Uiso   1.00
H278   H     0.53184   0.51460   0.39053   0.00000  Uiso   1.00
H279   H     0.66084   0.53814   0.11845   0.00000  Uiso   1.00
H280   H     0.33916   0.46186   0.38155   0.00000  Uiso   1.00
H281   H     0.64094   0.43964   0.45923   0.00000  Uiso   1.00
H282   H     0.35906   0.56037   0.04078   0.00000  Uiso   1.00
H283   H     0.33480   0.53836   0.28420   0.00000  Uiso   1.00
H284   H     0.66520   0.46164   0.21581   0.00000  Uiso   1.00
N285   N     0.64839   0.51401   0.26212   0.00000  Uiso   1.00
N286   N     0.35161   0.48599   0.23788   0.00000  Uiso   1.00
O287   O     0.46148   0.57142   0.24686   0.00000  Uiso   1.00
O288   O     0.53852   0.42858   0.25314   0.00000  Uiso   1.00
O289   O     0.56163   0.58086   0.25503   0.00000  Uiso   1.00
O290   O     0.43837   0.41914   0.24498   0.00000  Uiso   1.00
O291   O     0.42185   0.49263   0.30855   0.00000  Uiso   1.00
O292   O     0.57815   0.50737   0.19146   0.00000  Uiso   1.00
O293   O     0.52199   0.50207   0.31671   0.00000  Uiso   1.00
O294   O     0.47801   0.49793   0.18329   0.00000  Uiso   1.00
C295   C     0.42126   0.40925   0.06760   0.00000  Uiso   1.00
H296   H     0.46580   0.40298   0.07410   0.00000  Uiso   1.00
H297   H     0.38786   0.41859   0.09838   0.00000  Uiso   1.00
H298   H     0.39925   0.37113   0.05477   0.00000  Uiso   1.00
C299   C     0.57875   0.59075   0.43239   0.00000  Uiso   1.00
H300   H     0.61214   0.58140   0.40161   0.00000  Uiso   1.00
H301   H     0.53421   0.59702   0.42589   0.00000  Uiso   1.00
H302   H     0.60077   0.62887   0.44522   0.00000  Uiso   1.00
C303   C     0.54663   0.34600   0.29681   0.00000  Uiso   1.00
H304   H     0.55644   0.64954   0.31605   0.00000  Uiso   1.00
H305   H     0.59280   0.37224   0.28258   0.00000  Uiso   1.00
H306   H     0.51475   0.36799   0.32033   0.00000  Uiso   1.00
C307   C     0.45335   0.65400   0.20320   0.00000  Uiso   1.00
H308   H     0.44354   0.35045   0.18396   0.00000  Uiso   1.00
H309   H     0.48522   0.63200   0.17968   0.00000  Uiso   1.00
H310   H     0.40719   0.62776   0.21743   0.00000  Uiso   1.00
C311   C     0.84696   0.59966   0.25271   0.00000  Uiso   1.00
C312   C     0.81971   0.40034   0.24729   0.00000  Uiso   1.00
C313   C     0.76676   0.45138   0.03431   0.00000  Uiso   1.00
C314   C     0.89991   0.54862   0.46569   0.00000  Uiso   1.00
C315   C     0.71990   0.44779   0.01143   0.00000  Uiso   1.00
C316   C     0.94677   0.55221   0.48857   0.00000  Uiso   1.00
C317   C     0.84882   0.65429   0.26066   0.00000  Uiso   1.00
C318   C     0.81785   0.34571   0.23934   0.00000  Uiso   1.00
C319   C     0.79471   0.49612   0.33320   0.00000  Uiso   1.00
C320   C     0.87195   0.50388   0.16680   0.00000  Uiso   1.00
C321   C     0.77141   0.49144   0.38096   0.00000  Uiso   1.00
C322   C     0.89526   0.50856   0.11905   0.00000  Uiso   1.00
C323   C     0.68946   0.45928   0.44512   0.00000  Uiso   1.00
C324   C     0.97721   0.54073   0.05489   0.00000  Uiso   1.00
C325   C     0.70746   0.47151   0.40079   0.00000  Uiso   1.00
C326   C     0.95920   0.52849   0.09921   0.00000  Uiso   1.00
C327   C     0.81550   0.50346   0.40671   0.00000  Uiso   1.00
C328   C     0.85117   0.49654   0.09329   0.00000  Uiso   1.00
C329   C     0.79710   0.49709   0.45220   0.00000  Uiso   1.00
C330   C     0.86956   0.50292   0.04780   0.00000  Uiso   1.00
C331   C     0.73459   0.46971   0.47033   0.00000  Uiso   1.00
C332   C     0.93208   0.53029   0.02967   0.00000  Uiso   1.00
C333   C     0.84104   0.51176   0.47902   0.00000  Uiso   1.00
C334   C     0.82563   0.48824   0.02098   0.00000  Uiso   1.00
Cu335  Cu    0.77404   0.49441   0.24517   0.00000  Uiso   1.00
Cu336  Cu    0.89263   0.50559   0.25484   0.00000  Uiso   1.00
H337   H     0.67377   0.42253   0.02344   0.00000  Uiso   1.00
H338   H     0.99290   0.57747   0.47657   0.00000  Uiso   1.00
H339   H     0.80149   0.48540   0.10947   0.00000  Uiso   1.00
H340   H     0.86517   0.51460   0.39053   0.00000  Uiso   1.00
H341   H     0.99417   0.53814   0.11845   0.00000  Uiso   1.00
H342   H     0.67250   0.46186   0.38155   0.00000  Uiso   1.00
H343   H     0.97427   0.43964   0.45923   0.00000  Uiso   1.00
H344   H     0.69239   0.56037   0.04078   0.00000  Uiso   1.00
H345   H     0.66813   0.53836   0.28420   0.00000  Uiso   1.00
H346   H     0.99854   0.46164   0.21581   0.00000  Uiso   1.00
N347   N     0.98173   0.51401   0.26212   0.00000  Uiso   1.00
N348   N     0.68494   0.48599   0.23788   0.00000  Uiso   1.00
O349   O     0.79482   0.57142   0.24686   0.00000  Uiso   1.00
O350   O     0.87185   0.42858   0.25314   0.00000  Uiso   1.00
O351   O     0.89496   0.58086   0.25503   0.00000  Uiso   1.00
O352   O     0.77171   0.41914   0.24498   0.00000  Uiso   1.00
O353   O     0.75518   0.49263   0.30855   0.00000  Uiso   1.00
O354   O     0.91149   0.50737   0.19146   0.00000  Uiso   1.00
O355   O     0.85532   0.50207   0.31671   0.00000  Uiso   1.00
O356   O     0.81134   0.49793   0.18329   0.00000  Uiso   1.00
C357   C     0.75459   0.40925   0.06760   0.00000  Uiso   1.00
H358   H     0.79913   0.40298   0.07410   0.00000  Uiso   1.00
H359   H     0.72120   0.41859   0.09838   0.00000  Uiso   1.00
H360   H     0.73258   0.37113   0.05477   0.00000  Uiso   1.00
C361   C     0.91209   0.59075   0.43239   0.00000  Uiso   1.00
H362   H     0.94548   0.58140   0.40161   0.00000  Uiso   1.00
H363   H     0.86755   0.59702   0.42589   0.00000  Uiso   1.00
H364   H     0.93410   0.62887   0.44522   0.00000  Uiso   1.00
C365   C     0.87997   0.34600   0.29681   0.00000  Uiso   1.00
H366   H     0.88977   0.64954   0.31605   0.00000  Uiso   1.00
H367   H     0.92613   0.37224   0.28258   0.00000  Uiso   1.00
H368   H     0.84808   0.36799   0.32033   0.00000  Uiso   1.00
C369   C     0.78668   0.65400   0.20320   0.00000  Uiso   1.00
H370   H     0.77687   0.35045   0.18396   0.00000  Uiso   1.00
H371   H     0.81856   0.63200   0.17968   0.00000  Uiso   1.00
H372   H     0.74052   0.62776   0.21743   0.00000  Uiso   1.00
C373   C     0.18029   0.93300   0.25271   0.00000  Uiso   1.00
C374   C     0.15304   0.73367   0.24729   0.00000  Uiso   1.00
C375   C     0.10009   0.78472   0.03431   0.00000  Uiso   1.00
C376   C     0.23325   0.88195   0.46569   0.00000  Uiso   1.00
C377   C     0.05323   0.78112   0.01143   0.00000  Uiso   1.00
C378   C     0.28010   0.88555   0.48857   0.00000  Uiso   1.00
C379   C     0.18216   0.98762   0.26066   0.00000  Uiso   1.00
C380   C     0.15118   0.67904   0.23934   0.00000  Uiso   1.00
C381   C     0.12805   0.82946   0.33320   0.00000  Uiso   1.00
C382   C     0.20529   0.83721   0.16680   0.00000  Uiso   1.00
C383   C     0.10474   0.82478   0.38096   0.00000  Uiso   1.00
C384   C     0.22859   0.84189   0.11905   0.00000  Uiso   1.00
C385   C     0.02279   0.79261   0.44512   0.00000  Uiso   1.00
C386   C     0.31054   0.87406   0.05489   0.00000  Uiso   1.00
C387   C     0.04080   0.80484   0.40079   0.00000  Uiso   1.00
C388   C     0.29254   0.86183   0.09921   0.00000  Uiso   1.00
C389   C     0.14884   0.83679   0.40671   0.00000  Uiso   1.00
C390   C     0.18450   0.82988   0.09329   0.00000  Uiso   1.00
C391   C     0.13044   0.83042   0.45220   0.00000  Uiso   1.00
C392   C     0.20290   0.83625   0.04780   0.00000  Uiso   1.00
C393   C     0.06793   0.80305   0.47033   0.00000  Uiso   1.00
C394   C     0.26541   0.86363   0.02967   0.00000  Uiso   1.00
C395   C     0.17437   0.84510   0.47902   0.00000  Uiso   1.00
C396   C     0.15897   0.82158   0.02098   0.00000  Uiso   1.00
Cu397  Cu    0.10737   0.82775   0.24517   0.00000  Uiso   1.00
Cu398  Cu    0.22596   0.83892   0.25484   0.00000  Uiso   1.00
H399   H     0.00711   0.75586   0.02344   0.00000  Uiso   1.00
H400   H     0.32623   0.91081   0.47657   0.00000  Uiso   1.00
H401   H     0.13483   0.81873   0.10947   0.00000  Uiso   1.00
H402   H     0.19851   0.84793   0.39053   0.00000  Uiso   1.00
H403   H     0.32750   0.87148   0.11845   0.00000  Uiso   1.00
H404   H     0.00583   0.79519   0.38155   0.00000  Uiso   1.00
H405   H     0.30761   0.77297   0.45923   0.00000  Uiso   1.00
H406   H     0.02573   0.89370   0.04078   0.00000  Uiso   1.00
H407   H     0.00146   0.87169   0.28420   0.00000  Uiso   1.00
H408   H     0.33187   0.79498   0.21581   0.00000  Uiso   1.00
N409   N     0.31506   0.84735   0.26212   0.00000  Uiso   1.00
N410   N     0.01827   0.81932   0.23788   0.00000  Uiso   1.00
O411   O     0.12815   0.90476   0.24686   0.00000  Uiso   1.00
O412   O     0.20518   0.76191   0.25314   0.00000  Uiso   1.00
O413   O     0.22829   0.91420   0.25503   0.00000  Uiso   1.00
O414   O     0.10504   0.75247   0.24498   0.00000  Uiso   1.00
O415   O     0.08851   0.82597   0.30855   0.00000  Uiso   1.00
O416   O     0.24482   0.84070   0.19146   0.00000  Uiso   1.00
O417   O     0.18866   0.83540   0.31671   0.00000  Uiso   1.00
O418   O     0.14468   0.83126   0.18329   0.00000  Uiso   1.00
C419   C     0.08792   0.74258   0.06760   0.00000  Uiso   1.00
H420   H     0.13246   0.73632   0.07410   0.00000  Uiso   1.00
H421   H     0.05453   0.75192   0.09838   0.00000  Uiso   1.00
H422   H     0.06591   0.70447   0.05477   0.00000  Uiso   1.00
C423   C     0.24542   0.92409   0.43239   0.00000  Uiso   1.00
H424   H     0.27881   0.91474   0.40161   0.00000  Uiso   1.00
H425   H     0.20088   0.93035   0.42589   0.00000  Uiso   1.00
H426   H     0.26743   0.96220   0.44522   0.00000  Uiso   1.00
C427   C     0.21330   0.67933   0.29681   0.00000  Uiso   1.00
H428   H     0.22310   0.98288   0.31605   0.00000  Uiso   1.00
H429   H     0.25946   0.70558   0.28258   0.00000  Uiso   1.00
H430   H     0.18142   0.70133   0.32033   0.00000  Uiso   1.00
C431   C     0.12001   0.98733   0.20320   0.00000  Uiso   1.00
H432   H     0.11020   0.68378   0.18396   0.00000  Uiso   1.00
H433   H     0.15189   0.96533   0.17968   0.00000  Uiso   1.00
H434   H     0.07386   0.96109   0.21743   0.00000  Uiso   1.00
C435   C     0.51362   0.93300   0.25271   0.00000  Uiso   1.00
C436   C     0.48638   0.73367   0.24729   0.00000  Uiso   1.00
C437   C     0.43342   0.78472   0.03431   0.00000  Uiso   1.00
C438   C     0.56658   0.88195   0.46569   0.00000  Uiso   1.00
C439   C     0.38657   0.78112   0.01143   0.00000  Uiso   1.00
C440   C     0.61344   0.88555   0.48857   0.00000  Uiso   1.00
C441   C     0.51549   0.98762   0.26066   0.00000  Uiso   1.00
C442   C     0.48451   0.67904   0.23934   0.00000  Uiso   1.00
C443   C     0.46138   0.82946   0.33320   0.00000  Uiso   1.00
C444   C     0.53862   0.83721   0.16680   0.00000  Uiso   1.00
C445   C     0.43808   0.82478   0.38096   0.00000  Uiso   1.00
C446   C     0.56192   0.84189   0.11905   0.00000  Uiso   1.00
C447   C     0.35613   0.79261   0.44512   0.00000  Uiso   1.00
C448   C     0.64388   0.87406   0.05489   0.00000  Uiso   1.00
C449   C     0.37413   0.80484   0.40079   0.00000  Uiso   1.00
C450   C     0.62587   0.86183   0.09921   0.00000  Uiso   1.00
C451   C     0.48217   0.83679   0.40671   0.00000  Uiso   1.00
C452   C     0.51783   0.82988   0.09329   0.00000  Uiso   1.00
C453   C     0.46377   0.83042   0.45220   0.00000  Uiso   1.00
C454   C     0.53623   0.83625   0.04780   0.00000  Uiso   1.00
C455   C     0.40126   0.80305   0.47033   0.00000  Uiso   1.00
C456   C     0.59874   0.86363   0.02967   0.00000  Uiso   1.00
C457   C     0.50770   0.84510   0.47902   0.00000  Uiso   1.00
C458   C     0.49230   0.82158   0.02098   0.00000  Uiso   1.00
Cu459  Cu    0.44071   0.82775   0.24517   0.00000  Uiso   1.00
Cu460  Cu    0.55929   0.83892   0.25484   0.00000  Uiso   1.00
H461   H     0.34044   0.75586   0.02344   0.00000  Uiso   1.00
H462   H     0.65956   0.91081   0.47657   0.00000  Uiso   1.00
H463   H     0.46816   0.81873   0.10947   0.00000  Uiso   1.00
H464   H     0.53184   0.84793   0.39053   0.00000  Uiso   1.00
H465   H     0.66084   0.87148   0.11845   0.00000  Uiso   1.00
H466   H     0.33916   0.79519   0.38155   0.00000  Uiso   1.00
H467   H     0.64094   0.77297   0.45923   0.00000  Uiso   1.00
H468   H     0.35906   0.89370   0.04078   0.00000  Uiso   1.00
H469   H     0.33480   0.87169   0.28420   0.00000  Uiso   1.00
H470   H     0.66520   0.79498   0.21581   0.00000  Uiso   1.00
N471   N     0.64839   0.84735   0.26212   0.00000  Uiso   1.00
N472   N     0.35161   0.81932   0.23788   0.00000  Uiso   1.00
O473   O     0.46148   0.90476   0.24686   0.00000  Uiso   1.00
O474   O     0.53852   0.76191   0.25314   0.00000  Uiso   1.00
O475   O     0.56163   0.91420   0.25503   0.00000  Uiso   1.00
O476   O     0.43837   0.75247   0.24498   0.00000  Uiso   1.00
O477   O     0.42185   0.82597   0.30855   0.00000  Uiso   1.00
O478   O     0.57815   0.84070   0.19146   0.00000  Uiso   1.00
O479   O     0.52199   0.83540   0.31671   0.00000  Uiso   1.00
O480   O     0.47801   0.83126   0.18329   0.00000  Uiso   1.00
C481   C     0.42126   0.74258   0.06760   0.00000  Uiso   1.00
H482   H     0.46580   0.73632   0.07410   0.00000  Uiso   1.00
H483   H     0.38786   0.75192   0.09838   0.00000  Uiso   1.00
H484   H     0.39925   0.70447   0.05477   0.00000  Uiso   1.00
C485   C     0.57875   0.92409   0.43239   0.00000  Uiso   1.00
H486   H     0.61214   0.91474   0.40161   0.00000  Uiso   1.00
H487   H     0.53421   0.93035   0.42589   0.00000  Uiso   1.00
H488   H     0.60077   0.96220   0.44522   0.00000  Uiso   1.00
C489   C     0.54663   0.67933   0.29681   0.00000  Uiso   1.00
H490   H     0.55644   0.98288   0.31605   0.00000  Uiso   1.00
H491   H     0.59280   0.70558   0.28258   0.00000  Uiso   1.00
H492   H     0.51475   0.70133   0.32033   0.00000  Uiso   1.00
C493   C     0.45335   0.98733   0.20320   0.00000  Uiso   1.00
H494   H     0.44354   0.68378   0.18396   0.00000  Uiso   1.00
H495   H     0.48522   0.96533   0.17968   0.00000  Uiso   1.00
H496   H     0.40719   0.96109   0.21743   0.00000  Uiso   1.00
C497   C     0.84696   0.93300   0.25271   0.00000  Uiso   1.00
C498   C     0.81971   0.73367   0.24729   0.00000  Uiso   1.00
C499   C     0.76676   0.78472   0.03431   0.00000  Uiso   1.00
C500   C     0.89991   0.88195   0.46569   0.00000  Uiso   1.00
C501   C     0.71990   0.78112   0.01143   0.00000  Uiso   1.00
C502   C     0.94677   0.88555   0.48857   0.00000  Uiso   1.00
C503   C     0.84882   0.98762   0.26066   0.00000  Uiso   1.00
C504   C     0.81785   0.67904   0.23934   0.00000  Uiso   1.00
C505   C     0.79471   0.82946   0.33320   0.00000  Uiso   1.00
C506   C     0.87195   0.83721   0.16680   0.00000  Uiso   1.00
C507   C     0.77141   0.82478   0.38096   0.00000  Uiso   1.00
C508   C     0.89526   0.84189   0.11905   0.00000  Uiso   1.00
C509   C     0.68946   0.79261   0.44512   0.00000  Uiso   1.00
C510   C     0.97721   0.87406   0.05489   0.00000  Uiso   1.00
C511   C     0.70746   0.80484   0.40079   0.00000  Uiso   1.00
C512   C     0.95920   0.86183   0.09921   0.00000  Uiso   1.00
C513   C     0.81550   0.83679   0.40671   0.00000  Uiso   1.00
C514   C     0.85117   0.82988   0.09329   0.00000  Uiso   1.00
C515   C     0.79710   0.83042   0.45220   0.00000  Uiso   1.00
C516   C     0.86956   0.83625   0.04780   0.00000  Uiso   1.00
C517   C     0.73459   0.80305   0.47033   0.00000  Uiso   1.00
C518   C     0.93208   0.86363   0.02967   0.00000  Uiso   1.00
C519   C     0.84104   0.84510   0.47902   0.00000  Uiso   1.00
C520   C     0.82563   0.82158   0.02098   0.00000  Uiso   1.00
Cu521  Cu    0.77404   0.82775   0.24517   0.00000  Uiso   1.00
Cu522  Cu    0.89263   0.83892   0.25484   0.00000  Uiso   1.00
H523   H     0.67377   0.75586   0.02344   0.00000  Uiso   1.00
H524   H     0.99290   0.91081   0.47657   0.00000  Uiso   1.00
H525   H     0.80149   0.81873   0.10947   0.00000  Uiso   1.00
H526   H     0.86517   0.84793   0.39053   0.00000  Uiso   1.00
H527   H     0.99417   0.87148   0.11845   0.00000  Uiso   1.00
H528   H     0.67250   0.79519   0.38155   0.00000  Uiso   1.00
H529   H     0.97427   0.77297   0.45923   0.00000  Uiso   1.00
H530   H     0.69239   0.89370   0.04078   0.00000  Uiso   1.00
H531   H     0.66813   0.87169   0.28420   0.00000  Uiso   1.00
H532   H     0.99854   0.79498   0.21581   0.00000  Uiso   1.00
N533   N     0.98173   0.84735   0.26212   0.00000  Uiso   1.00
N534   N     0.68494   0.81932   0.23788   0.00000  Uiso   1.00
O535   O     0.79482   0.90476   0.24686   0.00000  Uiso   1.00
O536   O     0.87185   0.76191   0.25314   0.00000  Uiso   1.00
O537   O     0.89496   0.91420   0.25503   0.00000  Uiso   1.00
O538   O     0.77171   0.75247   0.24498   0.00000  Uiso   1.00
O539   O     0.75518   0.82597   0.30855   0.00000  Uiso   1.00
O540   O     0.91149   0.84070   0.19146   0.00000  Uiso   1.00
O541   O     0.85532   0.83540   0.31671   0.00000  Uiso   1.00
O542   O     0.81134   0.83126   0.18329   0.00000  Uiso   1.00
C543   C     0.75459   0.74258   0.06760   0.00000  Uiso   1.00
H544   H     0.79913   0.73632   0.07410   0.00000  Uiso   1.00
H545   H     0.72120   0.75192   0.09838   0.00000  Uiso   1.00
H546   H     0.73258   0.70447   0.05477   0.00000  Uiso   1.00
C547   C     0.91209   0.92409   0.43239   0.00000  Uiso   1.00
H548   H     0.94548   0.91474   0.40161   0.00000  Uiso   1.00
H549   H     0.86755   0.93035   0.42589   0.00000  Uiso   1.00
H550   H     0.93410   0.96220   0.44522   0.00000  Uiso   1.00
C551   C     0.87997   0.67933   0.29681   0.00000  Uiso   1.00
H552   H     0.88977   0.98288   0.31605   0.00000  Uiso   1.00
H553   H     0.92613   0.70558   0.28258   0.00000  Uiso   1.00
H554   H     0.84808   0.70133   0.32033   0.00000  Uiso   1.00
C555   C     0.78668   0.98733   0.20320   0.00000  Uiso   1.00
H556   H     0.77687   0.68378   0.18396   0.00000  Uiso   1.00
H557   H     0.81856   0.96533   0.17968   0.00000  Uiso   1.00
H558   H     0.74052   0.96109   0.21743   0.00000  Uiso   1.00
C559   C     0.18029   0.26633   0.75271   0.00000  Uiso   1.00
C560   C     0.15304   0.06700   0.74729   0.00000  Uiso   1.00
C561   C     0.10009   0.11805   0.53431   0.00000  Uiso   1.00
C562   C     0.23325   0.21529   0.96569   0.00000  Uiso   1.00
C563   C     0.05323   0.11446   0.51143   0.00000  Uiso   1.00
C564   C     0.28010   0.21888   0.98857   0.00000  Uiso   1.00
C565   C     0.18216   0.32096   0.76066   0.00000  Uiso   1.00
C566   C     0.15118   0.01238   0.73934   0.00000  Uiso   1.00
C567   C     0.12805   0.16279   0.83320   0.00000  Uiso   1.00
C568   C     0.20529   0.17054   0.66680   0.00000  Uiso   1.00
C569   C     0.10474   0.15811   0.88096   0.00000  Uiso   1.00
C570   C     0.22859   0.17523   0.61905   0.00000  Uiso   1.00
C571   C     0.02279   0.12595   0.94512   0.00000  Uiso   1.00
C572   C     0.31054   0.20739   0.55489   0.00000  Uiso   1.00
C573   C     0.04080   0.13818   0.90079   0.00000  Uiso   1.00
C574   C     0.29254   0.19516   0.59921   0.00000  Uiso   1.00
C575   C     0.14884   0.17013   0.90671   0.00000  Uiso   1.00
C576   C     0.18450   0.16321   0.59329   0.00000  Uiso   1.00
C577   C     0.13044   0.16375   0.95220   0.00000  Uiso   1.00
C578   C     0.20290   0.16958   0.54780   0.00000  Uiso   1.00
C579   C     0.06793   0.13638   0.97033   0.00000  Uiso   1.00
C580   C     0.26541   0.19696   0.52967   0.00000  Uiso   1.00
C581   C     0.17437   0.17843   0.97902   0.00000  Uiso   1.00
C582   C     0.15897   0.15491   0.52098   0.00000  Uiso   1.00
Cu583  Cu    0.10737   0.16108   0.74517   0.00000  Uiso   1.00
Cu584  Cu    0.22596   0.17225   0.75484   0.00000  Uiso   1.00
H585   H     0.00711   0.08920   0.52344   0.00000  Uiso   1.00
H586   H     0.32623   0.24414   0.97657   0.00000  Uiso   1.00
H587   H     0.13483   0.15207   0.60947   0.00000  Uiso   1.00
H588   H     0.19851   0.18127   0.89053   0.00000  Uiso   1.00
H589   H     0.32750   0.20481   0.61845   0.00000  Uiso   1.00
H590   H     0.00583   0.12853   0.88155   0.00000  Uiso   1.00
H591   H     0.30761   0.10631   0.95923   0.00000  Uiso   1.00
H592   H     0.02573   0.22703   0.54078   0.00000  Uiso   1.00
H593   H     0.00146   0.20502   0.78420   0.00000  Uiso   1.00
H594   H     0.33187   0.12831   0.71581   0.00000  Uiso   1.00
N595   N     0.31506   0.18068   0.76212   0.00000  Uiso   1.00
N596   N     0.01827   0.15265   0.73788   0.00000  Uiso   1.00
O597   O     0.12815   0.23809   0.74686   0.00000  Uiso   1.00
O598   O     0.20518   0.09524   0.75314   0.00000  Uiso   1.00
O599   O     0.22829   0.24753   0.75503   0.00000  Uiso   1.00
O600   O     0.10504   0.08580   0.74498   0.00000  Uiso   1.00
O601   O     0.08851   0.15930   0.80855   0.00000  Uiso   1.00
O602   O     0.24482   0.17403   0.69146   0.00000  Uiso   1.00
O603   O     0.18866   0.16874   0.81671   0.00000  Uiso   1.00
O604   O     0.14468   0.16460   0.68329   0.00000  Uiso   1.00
C605   C     0.08792   0.07591   0.56760   0.00000  Uiso   1.00
H606   H     0.13246   0.06965   0.57410   0.00000  Uiso   1.00
H607   H     0.05453   0.08526   0.59838   0.00000  Uiso   1.00
H608   H     0.06591   0.03780   0.55477   0.00000  Uiso   1.00
C609   C     0.24542   0.25742   0.93239   0.00000  Uiso   1.00
H610   H     0.27881   0.24807   0.90161   0.00000  Uiso   1.00
H611   H     0.20088   0.26369   0.92589   0.00000  Uiso   1.00
H612   H     0.26743   0.29553   0.94522   0.00000  Uiso   1.00
C613   C     0.21330   0.01266   0.79681   0.00000  Uiso   1.00
H614   H     0.22310   0.31621   0.81605   0.00000  Uiso   1.00
H615   H     0.25946   0.03891   0.78258   0.00000  Uiso   1.00
H616   H     0.18142   0.03466   0.82033   0.00000  Uiso   1.00
C617   C     0.12001   0.32066   0.70320   0.00000  Uiso   1.00
H618   H     0.11020   0.01712   0.68396   0.00000  Uiso   1.00
H619   H     0.15189   0.29867   0.67968   0.00000  Uiso   1.00
H620   H     0.07386   0.29443   0.71743   0.00000  Uiso   1.00
C621   C     0.51362   0.26633   0.75271   0.00000  Uiso   1.00
C622   C     0.48638   0.06700   0.74729   0.00000  Uiso   1.00
C623   C     0.43342   0.11805   0.53431   0.00000  Uiso   1.00
C624   C     0.56658   0.21529   0.96569   0.00000  Uiso   1.00
C625   C     0.38657   0.11446   0.51143   0.00000  Uiso   1.00
C626   C     0.61344   0.21888   0.98857   0.00000  Uiso   1.00
C627   C     0.51549   0.32096   0.76066   0.00000  Uiso   1.00
C628   C     0.48451   0.01238   0.73934   0.00000  Uiso   1.00
C629   C     0.46138   0.16279   0.83320   0.00000  Uiso   1.00
C630   C     0.53862   0.17054   0.66680   0.00000  Uiso   1.00
C631   C     0.43808   0.15811   0.88096   0.00000  Uiso   1.00
C632   C     0.56192   0.17523   0.61905   0.00000  Uiso   1.00
C633   C     0.35613   0.12595   0.94512   0.00000  Uiso   1.00
C634   C     0.64388   0.20739   0.55489   0.00000  Uiso   1.00
C635   C     0.37413   0.13818   0.90079   0.00000  Uiso   1.00
C636   C     0.62587   0.19516   0.59921   0.00000  Uiso   1.00
C637   C     0.48217   0.17013   0.90671   0.00000  Uiso   1.00
C638   C     0.51783   0.16321   0.59329   0.00000  Uiso   1.00
C639   C     0.46377   0.16375   0.95220   0.00000  Uiso   1.00
C640   C     0.53623   0.16958   0.54780   0.00000  Uiso   1.00
C641   C     0.40126   0.13638   0.97033   0.00000  Uiso   1.00
C642   C     0.59874   0.19696   0.52967   0.00000  Uiso   1.00
C643   C     0.50770   0.17843   0.97902   0.00000  Uiso   1.00
C644   C     0.49230   0.15491   0.52098   0.00000  Uiso   1.00
Cu645  Cu    0.44071   0.16108   0.74517   0.00000  Uiso   1.00
Cu646  Cu    0.55929   0.17225   0.75484   0.00000  Uiso   1.00
H647   H     0.34044   0.08920   0.52344   0.00000  Uiso   1.00
H648   H     0.65956   0.24414   0.97657   0.00000  Uiso   1.00
H649   H     0.46816   0.15207   0.60947   0.00000  Uiso   1.00
H650   H     0.53184   0.18127   0.89053   0.00000  Uiso   1.00
H651   H     0.66084   0.20481   0.61845   0.00000  Uiso   1.00
H652   H     0.33916   0.12853   0.88155   0.00000  Uiso   1.00
H653   H     0.64094   0.10631   0.95923   0.00000  Uiso   1.00
H654   H     0.35906   0.22703   0.54078   0.00000  Uiso   1.00
H655   H     0.33480   0.20502   0.78420   0.00000  Uiso   1.00
H656   H     0.66520   0.12831   0.71581   0.00000  Uiso   1.00
N657   N     0.64839   0.18068   0.76212   0.00000  Uiso   1.00
N658   N     0.35161   0.15265   0.73788   0.00000  Uiso   1.00
O659   O     0.46148   0.23809   0.74686   0.00000  Uiso   1.00
O660   O     0.53852   0.09524   0.75314   0.00000  Uiso   1.00
O661   O     0.56163   0.24753   0.75503   0.00000  Uiso   1.00
O662   O     0.43837   0.08580   0.74498   0.00000  Uiso   1.00
O663   O     0.42185   0.15930   0.80855   0.00000  Uiso   1.00
O664   O     0.57815   0.17403   0.69146   0.00000  Uiso   1.00
O665   O     0.52199   0.16874   0.81671   0.00000  Uiso   1.00
O666   O     0.47801   0.16460   0.68329   0.00000  Uiso   1.00
C667   C     0.42126   0.07591   0.56760   0.00000  Uiso   1.00
H668   H     0.46580   0.06965   0.57410   0.00000  Uiso   1.00
H669   H     0.38786   0.08526   0.59838   0.00000  Uiso   1.00
H670   H     0.39925   0.03780   0.55477   0.00000  Uiso   1.00
C671   C     0.57875   0.25742   0.93239   0.00000  Uiso   1.00
H672   H     0.61214   0.24807   0.90161   0.00000  Uiso   1.00
H673   H     0.53421   0.26369   0.92589   0.00000  Uiso   1.00
H674   H     0.60077   0.29553   0.94522   0.00000  Uiso   1.00
C675   C     0.54663   0.01266   0.79681   0.00000  Uiso   1.00
H676   H     0.55644   0.31621   0.81605   0.00000  Uiso   1.00
H677   H     0.59280   0.03891   0.78258   0.00000  Uiso   1.00
H678   H     0.51475   0.03466   0.82033   0.00000  Uiso   1.00
C679   C     0.45335   0.32066   0.70320   0.00000  Uiso   1.00
H680   H     0.44354   0.01712   0.68396   0.00000  Uiso   1.00
H681   H     0.48522   0.29867   0.67968   0.00000  Uiso   1.00
H682   H     0.40719   0.29443   0.71743   0.00000  Uiso   1.00
C683   C     0.84696   0.26633   0.75271   0.00000  Uiso   1.00
C684   C     0.81971   0.06700   0.74729   0.00000  Uiso   1.00
C685   C     0.76676   0.11805   0.53431   0.00000  Uiso   1.00
C686   C     0.89991   0.21529   0.96569   0.00000  Uiso   1.00
C687   C     0.71990   0.11446   0.51143   0.00000  Uiso   1.00
C688   C     0.94677   0.21888   0.98857   0.00000  Uiso   1.00
C689   C     0.84882   0.32096   0.76066   0.00000  Uiso   1.00
C690   C     0.81785   0.01238   0.73934   0.00000  Uiso   1.00
C691   C     0.79471   0.16279   0.83320   0.00000  Uiso   1.00
C692   C     0.87195   0.17054   0.66680   0.00000  Uiso   1.00
C693   C     0.77141   0.15811   0.88096   0.00000  Uiso   1.00
C694   C     0.89526   0.17523   0.61905   0.00000  Uiso   1.00
C695   C     0.68946   0.12595   0.94512   0.00000  Uiso   1.00
C696   C     0.97721   0.20739   0.55489   0.00000  Uiso   1.00
C697   C     0.70746   0.13818   0.90079   0.00000  Uiso   1.00
C698   C     0.95920   0.19516   0.59921   0.00000  Uiso   1.00
C699   C     0.81550   0.17013   0.90671   0.00000  Uiso   1.00
C700   C     0.85117   0.16321   0.59329   0.00000  Uiso   1.00
C701   C     0.79710   0.16375   0.95220   0.00000  Uiso   1.00
C702   C     0.86956   0.16958   0.54780   0.00000  Uiso   1.00
C703   C     0.73459   0.13638   0.97033   0.00000  Uiso   1.00
C704   C     0.93208   0.19696   0.52967   0.00000  Uiso   1.00
C705   C     0.84104   0.17843   0.97902   0.00000  Uiso   1.00
C706   C     0.82563   0.15491   0.52098   0.00000  Uiso   1.00
Cu707  Cu    0.77404   0.16108   0.74517   0.00000  Uiso   1.00
Cu708  Cu    0.89263   0.17225   0.75484   0.00000  Uiso   1.00
H709   H     0.67377   0.08920   0.52344   0.00000  Uiso   1.00
H710   H     0.99290   0.24414   0.97657   0.00000  Uiso   1.00
H711   H     0.80149   0.15207   0.60947   0.00000  Uiso   1.00
H712   H     0.86517   0.18127   0.89053   0.00000  Uiso   1.00
H713   H     0.99417   0.20481   0.61845   0.00000  Uiso   1.00
H714   H     0.67250   0.12853   0.88155   0.00000  Uiso   1.00
H715   H     0.97427   0.10631   0.95923   0.00000  Uiso   1.00
H716   H     0.69239   0.22703   0.54078   0.00000  Uiso   1.00
H717   H     0.66813   0.20502   0.78420   0.00000  Uiso   1.00
H718   H     0.99854   0.12831   0.71581   0.00000  Uiso   1.00
N719   N     0.98173   0.18068   0.76212   0.00000  Uiso   1.00
N720   N     0.68494   0.15265   0.73788   0.00000  Uiso   1.00
O721   O     0.79482   0.23809   0.74686   0.00000  Uiso   1.00
O722   O     0.87185   0.09524   0.75314   0.00000  Uiso   1.00
O723   O     0.89496   0.24753   0.75503   0.00000  Uiso   1.00
O724   O     0.77171   0.08580   0.74498   0.00000  Uiso   1.00
O725   O     0.75518   0.15930   0.80855   0.00000  Uiso   1.00
O726   O     0.91149   0.17403   0.69146   0.00000  Uiso   1.00
O727   O     0.85532   0.16874   0.81671   0.00000  Uiso   1.00
O728   O     0.81134   0.16460   0.68329   0.00000  Uiso   1.00
C729   C     0.75459   0.07591   0.56760   0.00000  Uiso   1.00
H730   H     0.79913   0.06965   0.57410   0.00000  Uiso   1.00
H731   H     0.72120   0.08526   0.59838   0.00000  Uiso   1.00
H732   H     0.73258   0.03780   0.55477   0.00000  Uiso   1.00
C733   C     0.91209   0.25742   0.93239   0.00000  Uiso   1.00
H734   H     0.94548   0.24807   0.90161   0.00000  Uiso   1.00
H735   H     0.86755   0.26369   0.92589   0.00000  Uiso   1.00
H736   H     0.93410   0.29553   0.94522   0.00000  Uiso   1.00
C737   C     0.87997   0.01266   0.79681   0.00000  Uiso   1.00
H738   H     0.88977   0.31621   0.81605   0.00000  Uiso   1.00
H739   H     0.92613   0.03891   0.78258   0.00000  Uiso   1.00
H740   H     0.84808   0.03466   0.82033   0.00000  Uiso   1.00
C741   C     0.78668   0.32066   0.70320   0.00000  Uiso   1.00
H742   H     0.77687   0.01712   0.68396   0.00000  Uiso   1.00
H743   H     0.81856   0.29867   0.67968   0.00000  Uiso   1.00
H744   H     0.74052   0.29443   0.71743   0.00000  Uiso   1.00
C745   C     0.18029   0.59966   0.75271   0.00000  Uiso   1.00
C746   C     0.15304   0.40034   0.74729   0.00000  Uiso   1.00
C747   C     0.10009   0.45138   0.53431   0.00000  Uiso   1.00
C748   C     0.23325   0.54862   0.96569   0.00000  Uiso   1.00
C749   C     0.05323   0.44779   0.51143   0.00000  Uiso   1.00
C750   C     0.28010   0.55221   0.98857   0.00000  Uiso   1.00
C751   C     0.18216   0.65429   0.76066   0.00000  Uiso   1.00
C752   C     0.15118   0.34571   0.73934   0.00000  Uiso   1.00
C753   C     0.12805   0.49612   0.83320   0.00000  Uiso   1.00
C754   C     0.20529   0.50388   0.66680   0.00000  Uiso   1.00
C755   C     0.10474   0.49144   0.88096   0.00000  Uiso   1.00
C756   C     0.22859   0.50856   0.61905   0.00000  Uiso   1.00
C757   C     0.02279   0.45928   0.94512   0.00000  Uiso   1.00
C758   C     0.31054   0.54073   0.55489   0.00000  Uiso   1.00
C759   C     0.04080   0.47151   0.90079   0.00000  Uiso   1.00
C760   C     0.29254   0.52849   0.59921   0.00000  Uiso   1.00
C761   C     0.14884   0.50346   0.90671   0.00000  Uiso   1.00
C762   C     0.18450   0.49654   0.59329   0.00000  Uiso   1.00
C763   C     0.13044   0.49709   0.95220   0.00000  Uiso   1.00
C764   C     0.20290   0.50292   0.54780   0.00000  Uiso   1.00
C765   C     0.06793   0.46971   0.97033   0.00000  Uiso   1.00
C766   C     0.26541   0.53029   0.52967   0.00000  Uiso   1.00
C767   C     0.17437   0.51176   0.97902   0.00000  Uiso   1.00
C768   C     0.15897   0.48824   0.52098   0.00000  Uiso   1.00
Cu769  Cu    0.10737   0.49441   0.74517   0.00000  Uiso   1.00
Cu770  Cu    0.22596   0.50559   0.75484   0.00000  Uiso   1.00
H771   H     0.00711   0.42253   0.52344   0.00000  Uiso   1.00
H772   H     0.32623   0.57747   0.97657   0.00000  Uiso   1.00
H773   H     0.13483   0.48540   0.60947   0.00000  Uiso   1.00
H774   H     0.19851   0.51460   0.89053   0.00000  Uiso   1.00
H775   H     0.32750   0.53814   0.61845   0.00000  Uiso   1.00
H776   H     0.00583   0.46186   0.88155   0.00000  Uiso   1.00
H777   H     0.30761   0.43964   0.95923   0.00000  Uiso   1.00
H778   H     0.02573   0.56037   0.54078   0.00000  Uiso   1.00
H779   H     0.00146   0.53836   0.78420   0.00000  Uiso   1.00
H780   H     0.33187   0.46164   0.71581   0.00000  Uiso   1.00
N781   N     0.31506   0.51401   0.76212   0.00000  Uiso   1.00
N782   N     0.01827   0.48599   0.73788   0.00000  Uiso   1.00
O783   O     0.12815   0.57142   0.74686   0.00000  Uiso   1.00
O784   O     0.20518   0.42858   0.75314   0.00000  Uiso   1.00
O785   O     0.22829   0.58086   0.75503   0.00000  Uiso   1.00
O786   O     0.10504   0.41914   0.74498   0.00000  Uiso   1.00
O787   O     0.08851   0.49263   0.80855   0.00000  Uiso   1.00
O788   O     0.24482   0.50737   0.69146   0.00000  Uiso   1.00
O789   O     0.18866   0.50207   0.81671   0.00000  Uiso   1.00
O790   O     0.14468   0.49793   0.68329   0.00000  Uiso   1.00
C791   C     0.08792   0.40925   0.56760   0.00000  Uiso   1.00
H792   H     0.13246   0.40298   0.57410   0.00000  Uiso   1.00
H793   H     0.05453   0.41859   0.59838   0.00000  Uiso   1.00
H794   H     0.06591   0.37113   0.55477   0.00000  Uiso   1.00
C795   C     0.24542   0.59075   0.93239   0.00000  Uiso   1.00
H796   H     0.27881   0.58140   0.90161   0.00000  Uiso   1.00
H797   H     0.20088   0.59702   0.92589   0.00000  Uiso   1.00
H798   H     0.26743   0.62887   0.94522   0.00000  Uiso   1.00
C799   C     0.21330   0.34600   0.79681   0.00000  Uiso   1.00
H800   H     0.22310   0.64954   0.81605   0.00000  Uiso   1.00
H801   H     0.25946   0.37224   0.78258   0.00000  Uiso   1.00
H802   H     0.18142   0.36799   0.82033   0.00000  Uiso   1.00
C803   C     0.12001   0.65400   0.70320   0.00000  Uiso   1.00
H804   H     0.11020   0.35045   0.68396   0.00000  Uiso   1.00
H805   H     0.15189   0.63200   0.67968   0.00000  Uiso   1.00
H806   H     0.07386   0.62776   0.71743   0.00000  Uiso   1.00
C807   C     0.51362   0.59966   0.75271   0.00000  Uiso   1.00
C808   C     0.48638   0.40034   0.74729   0.00000  Uiso   1.00
C809   C     0.43342   0.45138   0.53431   0.00000  Uiso   1.00
C810   C     0.56658   0.54862   0.96569   0.00000  Uiso   1.00
C811   C     0.38657   0.44779   0.51143   0.00000  Uiso   1.00
C812   C     0.61344   0.55221   0.98857   0.00000  Uiso   1.00
C813   C     0.51549   0.65429   0.76066   0.00000  Uiso   1.00
C814   C     0.48451   0.34571   0.73934   0.00000  Uiso   1.00
C815   C     0.46138   0.49612   0.83320   0.00000  Uiso   1.00
C816   C     0.53862   0.50388   0.66680   0.00000  Uiso   1.00
C817   C     0.43808   0.49144   0.88096   0.00000  Uiso   1.00
C818   C     0.56192   0.50856   0.61905   0.00000  Uiso   1.00
C819   C     0.35613   0.45928   0.94512   0.00000  Uiso   1.00
C820   C     0.64388   0.54073   0.55489   0.00000  Uiso   1.00
C821   C     0.37413   0.47151   0.90079   0.00000  Uiso   1.00
C822   C     0.62587   0.52849   0.59921   0.00000  Uiso   1.00
C823   C     0.48217   0.50346   0.90671   0.00000  Uiso   1.00
C824   C     0.51783   0.49654   0.59329   0.00000  Uiso   1.00
C825   C     0.46377   0.49709   0.95220   0.00000  Uiso   1.00
C826   C     0.53623   0.50292   0.54780   0.00000  Uiso   1.00
C827   C     0.40126   0.46971   0.97033   0.00000  Uiso   1.00
C828   C     0.59874   0.53029   0.52967   0.00000  Uiso   1.00
C829   C     0.50770   0.51176   0.97902   0.00000  Uiso   1.00
C830   C     0.49230   0.48824   0.52098   0.00000  Uiso   1.00
Cu831  Cu    0.44071   0.49441   0.74517   0.00000  Uiso   1.00
Cu832  Cu    0.55929   0.50559   0.75484   0.00000  Uiso   1.00
H833   H     0.34044   0.42253   0.52344   0.00000  Uiso   1.00
H834   H     0.65956   0.57747   0.97657   0.00000  Uiso   1.00
H835   H     0.46816   0.48540   0.60947   0.00000  Uiso   1.00
H836   H     0.53184   0.51460   0.89053   0.00000  Uiso   1.00
H837   H     0.66084   0.53814   0.61845   0.00000  Uiso   1.00
H838   H     0.33916   0.46186   0.88155   0.00000  Uiso   1.00
H839   H     0.64094   0.43964   0.95923   0.00000  Uiso   1.00
H840   H     0.35906   0.56037   0.54078   0.00000  Uiso   1.00
H841   H     0.33480   0.53836   0.78420   0.00000  Uiso   1.00
H842   H     0.66520   0.46164   0.71581   0.00000  Uiso   1.00
N843   N     0.64839   0.51401   0.76212   0.00000  Uiso   1.00
N844   N     0.35161   0.48599   0.73788   0.00000  Uiso   1.00
O845   O     0.46148   0.57142   0.74686   0.00000  Uiso   1.00
O846   O     0.53852   0.42858   0.75314   0.00000  Uiso   1.00
O847   O     0.56163   0.58086   0.75503   0.00000  Uiso   1.00
O848   O     0.43837   0.41914   0.74498   0.00000  Uiso   1.00
O849   O     0.42185   0.49263   0.80855   0.00000  Uiso   1.00
O850   O     0.57815   0.50737   0.69146   0.00000  Uiso   1.00
O851   O     0.52199   0.50207   0.81671   0.00000  Uiso   1.00
O852   O     0.47801   0.49793   0.68329   0.00000  Uiso   1.00
C853   C     0.42126   0.40925   0.56760   0.00000  Uiso   1.00
H854   H     0.46580   0.40298   0.57410   0.00000  Uiso   1.00
H855   H     0.38786   0.41859   0.59838   0.00000  Uiso   1.00
H856   H     0.39925   0.37113   0.55477   0.00000  Uiso   1.00
C857   C     0.57875   0.59075   0.93239   0.00000  Uiso   1.00
H858   H     0.61214   0.58140   0.90161   0.00000  Uiso   1.00
H859   H     0.53421   0.59702   0.92589   0.00000  Uiso   1.00
H860   H     0.60077   0.62887   0.94522   0.00000  Uiso   1.00
C861   C     0.54663   0.34600   0.79681   0.00000  Uiso   1.00
H862   H     0.55644   0.64954   0.81605   0.00000  Uiso   1.00
H863   H     0.59280   0.37224   0.78258   0.00000  Uiso   1.00
H864   H     0.51475   0.36799   0.82033   0.00000  Uiso   1.00
C865   C     0.45335   0.65400   0.70320   0.00000  Uiso   1.00
H866   H     0.44354   0.35045   0.68396   0.00000  Uiso   1.00
H867   H     0.48522   0.63200   0.67968   0.00000  Uiso   1.00
H868   H     0.40719   0.62776   0.71743   0.00000  Uiso   1.00
C869   C     0.84696   0.59966   0.75271   0.00000  Uiso   1.00
C870   C     0.81971   0.40034   0.74729   0.00000  Uiso   1.00
C871   C     0.76676   0.45138   0.53431   0.00000  Uiso   1.00
C872   C     0.89991   0.54862   0.96569   0.00000  Uiso   1.00
C873   C     0.71990   0.44779   0.51143   0.00000  Uiso   1.00
C874   C     0.94677   0.55221   0.98857   0.00000  Uiso   1.00
C875   C     0.84882   0.65429   0.76066   0.00000  Uiso   1.00
C876   C     0.81785   0.34571   0.73934   0.00000  Uiso   1.00
C877   C     0.79471   0.49612   0.83320   0.00000  Uiso   1.00
C878   C     0.87195   0.50388   0.66680   0.00000  Uiso   1.00
C879   C     0.77141   0.49144   0.88096   0.00000  Uiso   1.00
C880   C     0.89526   0.50856   0.61905   0.00000  Uiso   1.00
C881   C     0.68946   0.45928   0.94512   0.00000  Uiso   1.00
C882   C     0.97721   0.54073   0.55489   0.00000  Uiso   1.00
C883   C     0.70746   0.47151   0.90079   0.00000  Uiso   1.00
C884   C     0.95920   0.52849   0.59921   0.00000  Uiso   1.00
C885   C     0.81550   0.50346   0.90671   0.00000  Uiso   1.00
C886   C     0.85117   0.49654   0.59329   0.00000  Uiso   1.00
C887   C     0.79710   0.49709   0.95220   0.00000  Uiso   1.00
C888   C     0.86956   0.50292   0.54780   0.00000  Uiso   1.00
C889   C     0.73459   0.46971   0.97033   0.00000  Uiso   1.00
C890   C     0.93208   0.53029   0.52967   0.00000  Uiso   1.00
C891   C     0.84104   0.51176   0.97902   0.00000  Uiso   1.00
C892   C     0.82563   0.48824   0.52098   0.00000  Uiso   1.00
Cu893  Cu    0.77404   0.49441   0.74517   0.00000  Uiso   1.00
Cu894  Cu    0.89263   0.50559   0.75484   0.00000  Uiso   1.00
H895   H     0.67377   0.42253   0.52344   0.00000  Uiso   1.00
H896   H     0.99290   0.57747   0.97657   0.00000  Uiso   1.00
H897   H     0.80149   0.48540   0.60947   0.00000  Uiso   1.00
H898   H     0.86517   0.51460   0.89053   0.00000  Uiso   1.00
H899   H     0.99417   0.53814   0.61845   0.00000  Uiso   1.00
H900   H     0.67250   0.46186   0.88155   0.00000  Uiso   1.00
H901   H     0.97427   0.43964   0.95923   0.00000  Uiso   1.00
H902   H     0.69239   0.56037   0.54078   0.00000  Uiso   1.00
H903   H     0.66813   0.53836   0.78420   0.00000  Uiso   1.00
H904   H     0.99854   0.46164   0.71581   0.00000  Uiso   1.00
N905   N     0.98173   0.51401   0.76212   0.00000  Uiso   1.00
N906   N     0.68494   0.48599   0.73788   0.00000  Uiso   1.00
O907   O     0.79482   0.57142   0.74686   0.00000  Uiso   1.00
O908   O     0.87185   0.42858   0.75314   0.00000  Uiso   1.00
O909   O     0.89496   0.58086   0.75503   0.00000  Uiso   1.00
O910   O     0.77171   0.41914   0.74498   0.00000  Uiso   1.00
O911   O     0.75518   0.49263   0.80855   0.00000  Uiso   1.00
O912   O     0.91149   0.50737   0.69146   0.00000  Uiso   1.00
O913   O     0.85532   0.50207   0.81671   0.00000  Uiso   1.00
O914   O     0.81134   0.49793   0.68329   0.00000  Uiso   1.00
C915   C     0.75459   0.40925   0.56760   0.00000  Uiso   1.00
H916   H     0.79913   0.40298   0.57410   0.00000  Uiso   1.00
H917   H     0.72120   0.41859   0.59838   0.00000  Uiso   1.00
H918   H     0.73258   0.37113   0.55477   0.00000  Uiso   1.00
C919   C     0.91209   0.59075   0.93239   0.00000  Uiso   1.00
H920   H     0.94548   0.58140   0.90161   0.00000  Uiso   1.00
H921   H     0.86755   0.59702   0.92589   0.00000  Uiso   1.00
H922   H     0.93410   0.62887   0.94522   0.00000  Uiso   1.00
C923   C     0.87997   0.34600   0.79681   0.00000  Uiso   1.00
H924   H     0.88977   0.64954   0.81605   0.00000  Uiso   1.00
H925   H     0.92613   0.37224   0.78258   0.00000  Uiso   1.00
H926   H     0.84808   0.36799   0.82033   0.00000  Uiso   1.00
C927   C     0.78668   0.65400   0.70320   0.00000  Uiso   1.00
H928   H     0.77687   0.35045   0.68396   0.00000  Uiso   1.00
H929   H     0.81856   0.63200   0.67968   0.00000  Uiso   1.00
H930   H     0.74052   0.62776   0.71743   0.00000  Uiso   1.00
C931   C     0.18029   0.93300   0.75271   0.00000  Uiso   1.00
C932   C     0.15304   0.73367   0.74729   0.00000  Uiso   1.00
C933   C     0.10009   0.78472   0.53431   0.00000  Uiso   1.00
C934   C     0.23325   0.88195   0.96569   0.00000  Uiso   1.00
C935   C     0.05323   0.78112   0.51143   0.00000  Uiso   1.00
C936   C     0.28010   0.88555   0.98857   0.00000  Uiso   1.00
C937   C     0.18216   0.98762   0.76066   0.00000  Uiso   1.00
C938   C     0.15118   0.67904   0.73934   0.00000  Uiso   1.00
C939   C     0.12805   0.82946   0.83320   0.00000  Uiso   1.00
C940   C     0.20529   0.83721   0.66680   0.00000  Uiso   1.00
C941   C     0.10474   0.82478   0.88096   0.00000  Uiso   1.00
C942   C     0.22859   0.84189   0.61905   0.00000  Uiso   1.00
C943   C     0.02279   0.79261   0.94512   0.00000  Uiso   1.00
C944   C     0.31054   0.87406   0.55489   0.00000  Uiso   1.00
C945   C     0.04080   0.80484   0.90079   0.00000  Uiso   1.00
C946   C     0.29254   0.86183   0.59921   0.00000  Uiso   1.00
C947   C     0.14884   0.83679   0.90671   0.00000  Uiso   1.00
C948   C     0.18450   0.82988   0.59329   0.00000  Uiso   1.00
C949   C     0.13044   0.83042   0.95220   0.00000  Uiso   1.00
C950   C     0.20290   0.83625   0.54780   0.00000  Uiso   1.00
C951   C     0.06793   0.80305   0.97033   0.00000  Uiso   1.00
C952   C     0.26541   0.86363   0.52967   0.00000  Uiso   1.00
C953   C     0.17437   0.84510   0.97902   0.00000  Uiso   1.00
C954   C     0.15897   0.82158   0.52098   0.00000  Uiso   1.00
Cu955  Cu    0.10737   0.82775   0.74517   0.00000  Uiso   1.00
Cu956  Cu    0.22596   0.83892   0.75484   0.00000  Uiso   1.00
H957   H     0.00711   0.75586   0.52344   0.00000  Uiso   1.00
H958   H     0.32623   0.91081   0.97657   0.00000  Uiso   1.00
H959   H     0.13483   0.81873   0.60947   0.00000  Uiso   1.00
H960   H     0.19851   0.84793   0.89053   0.00000  Uiso   1.00
H961   H     0.32750   0.87148   0.61845   0.00000  Uiso   1.00
H962   H     0.00583   0.79519   0.88155   0.00000  Uiso   1.00
H963   H     0.30761   0.77297   0.95923   0.00000  Uiso   1.00
H964   H     0.02573   0.89370   0.54078   0.00000  Uiso   1.00
H965   H     0.00146   0.87169   0.78420   0.00000  Uiso   1.00
H966   H     0.33187   0.79498   0.71581   0.00000  Uiso   1.00
N967   N     0.31506   0.84735   0.76212   0.00000  Uiso   1.00
N968   N     0.01827   0.81932   0.73788   0.00000  Uiso   1.00
O969   O     0.12815   0.90476   0.74686   0.00000  Uiso   1.00
O970   O     0.20518   0.76191   0.75314   0.00000  Uiso   1.00
O971   O     0.22829   0.91420   0.75503   0.00000  Uiso   1.00
O972   O     0.10504   0.75247   0.74498   0.00000  Uiso   1.00
O973   O     0.08851   0.82597   0.80855   0.00000  Uiso   1.00
O974   O     0.24482   0.84070   0.69146   0.00000  Uiso   1.00
O975   O     0.18866   0.83540   0.81671   0.00000  Uiso   1.00
O976   O     0.14468   0.83126   0.68329   0.00000  Uiso   1.00
C977   C     0.08792   0.74258   0.56760   0.00000  Uiso   1.00
H978   H     0.13246   0.73632   0.57410   0.00000  Uiso   1.00
H979   H     0.05453   0.75192   0.59838   0.00000  Uiso   1.00
H980   H     0.06591   0.70447   0.55477   0.00000  Uiso   1.00
C981   C     0.24542   0.92409   0.93239   0.00000  Uiso   1.00
H982   H     0.27881   0.91474   0.90161   0.00000  Uiso   1.00
H983   H     0.20088   0.93035   0.92589   0.00000  Uiso   1.00
H984   H     0.26743   0.96220   0.94522   0.00000  Uiso   1.00
C985   C     0.21330   0.67933   0.79681   0.00000  Uiso   1.00
H986   H     0.22310   0.98288   0.81605   0.00000  Uiso   1.00
H987   H     0.25946   0.70558   0.78258   0.00000  Uiso   1.00
H988   H     0.18142   0.70133   0.82033   0.00000  Uiso   1.00
C989   C     0.12001   0.98733   0.70320   0.00000  Uiso   1.00
H990   H     0.11020   0.68378   0.68396   0.00000  Uiso   1.00
H991   H     0.15189   0.96533   0.67968   0.00000  Uiso   1.00
H992   H     0.07386   0.96109   0.71743   0.00000  Uiso   1.00
C993   C     0.51362   0.93300   0.75271   0.00000  Uiso   1.00
C994   C     0.48638   0.73367   0.74729   0.00000  Uiso   1.00
C995   C     0.43342   0.78472   0.53431   0.00000  Uiso   1.00
C996   C     0.56658   0.88195   0.96569   0.00000  Uiso   1.00
C997   C     0.38657   0.78112   0.51143   0.00000  Uiso   1.00
C998   C     0.61344   0.88555   0.98857   0.00000  Uiso   1.00
C999   C     0.51549   0.98762   0.76066   0.00000  Uiso   1.00
C1000  C     0.48451   0.67904   0.73934   0.00000  Uiso   1.00
C1001  C     0.46138   0.82946   0.83320   0.00000  Uiso   1.00
C1002  C     0.53862   0.83721   0.66680   0.00000  Uiso   1.00
C1003  C     0.43808   0.82478   0.88096   0.00000  Uiso   1.00
C1004  C     0.56192   0.84189   0.61905   0.00000  Uiso   1.00
C1005  C     0.35613   0.79261   0.94512   0.00000  Uiso   1.00
C1006  C     0.64388   0.87406   0.55489   0.00000  Uiso   1.00
C1007  C     0.37413   0.80484   0.90079   0.00000  Uiso   1.00
C1008  C     0.62587   0.86183   0.59921   0.00000  Uiso   1.00
C1009  C     0.48217   0.83679   0.90671   0.00000  Uiso   1.00
C1010  C     0.51783   0.82988   0.59329   0.00000  Uiso   1.00
C1011  C     0.46377   0.83042   0.95220   0.00000  Uiso   1.00
C1012  C     0.53623   0.83625   0.54780   0.00000  Uiso   1.00
C1013  C     0.40126   0.80305   0.97033   0.00000  Uiso   1.00
C1014  C     0.59874   0.86363   0.52967   0.00000  Uiso   1.00
C1015  C     0.50770   0.84510   0.97902   0.00000  Uiso   1.00
C1016  C     0.49230   0.82158   0.52098   0.00000  Uiso   1.00
Cu1017 Cu    0.44071   0.82775   0.74517   0.00000  Uiso   1.00
Cu1018 Cu    0.55929   0.83892   0.75484   0.00000  Uiso   1.00
H1019  H     0.34044   0.75586   0.52344   0.00000  Uiso   1.00
H1020  H     0.65956   0.91081   0.97657   0.00000  Uiso   1.00
H1021  H     0.46816   0.81873   0.60947   0.00000  Uiso   1.00
H1022  H     0.53184   0.84793   0.89053   0.00000  Uiso   1.00
H1023  H     0.66084   0.87148   0.61845   0.00000  Uiso   1.00
H1024  H     0.33916   0.79519   0.88155   0.00000  Uiso   1.00
H1025  H     0.64094   0.77297   0.95923   0.00000  Uiso   1.00
H1026  H     0.35906   0.89370   0.54078   0.00000  Uiso   1.00
H1027  H     0.33480   0.87169   0.78420   0.00000  Uiso   1.00
H1028  H     0.66520   0.79498   0.71581   0.00000  Uiso   1.00
N1029  N     0.64839   0.84735   0.76212   0.00000  Uiso   1.00
N1030  N     0.35161   0.81932   0.73788   0.00000  Uiso   1.00
O1031  O     0.46148   0.90476   0.74686   0.00000  Uiso   1.00
O1032  O     0.53852   0.76191   0.75314   0.00000  Uiso   1.00
O1033  O     0.56163   0.91420   0.75503   0.00000  Uiso   1.00
O1034  O     0.43837   0.75247   0.74498   0.00000  Uiso   1.00
O1035  O     0.42185   0.82597   0.80855   0.00000  Uiso   1.00
O1036  O     0.57815   0.84070   0.69146   0.00000  Uiso   1.00
O1037  O     0.52199   0.83540   0.81671   0.00000  Uiso   1.00
O1038  O     0.47801   0.83126   0.68329   0.00000  Uiso   1.00
C1039  C     0.42126   0.74258   0.56760   0.00000  Uiso   1.00
H1040  H     0.46580   0.73632   0.57410   0.00000  Uiso   1.00
H1041  H     0.38786   0.75192   0.59838   0.00000  Uiso   1.00
H1042  H     0.39925   0.70447   0.55477   0.00000  Uiso   1.00
C1043  C     0.57875   0.92409   0.93239   0.00000  Uiso   1.00
H1044  H     0.61214   0.91474   0.90161   0.00000  Uiso   1.00
H1045  H     0.53421   0.93035   0.92589   0.00000  Uiso   1.00
H1046  H     0.60077   0.96220   0.94522   0.00000  Uiso   1.00
C1047  C     0.54663   0.67933   0.79681   0.00000  Uiso   1.00
H1048  H     0.55644   0.98288   0.81605   0.00000  Uiso   1.00
H1049  H     0.59280   0.70558   0.78258   0.00000  Uiso   1.00
H1050  H     0.51475   0.70133   0.82033   0.00000  Uiso   1.00
C1051  C     0.45335   0.98733   0.70320   0.00000  Uiso   1.00
H1052  H     0.44354   0.68378   0.68396   0.00000  Uiso   1.00
H1053  H     0.48522   0.96533   0.67968   0.00000  Uiso   1.00
H1054  H     0.40719   0.96109   0.71743   0.00000  Uiso   1.00
C1055  C     0.84696   0.93300   0.75271   0.00000  Uiso   1.00
C1056  C     0.81971   0.73367   0.74729   0.00000  Uiso   1.00
C1057  C     0.76676   0.78472   0.53431   0.00000  Uiso   1.00
C1058  C     0.89991   0.88195   0.96569   0.00000  Uiso   1.00
C1059  C     0.71990   0.78112   0.51143   0.00000  Uiso   1.00
C1060  C     0.94677   0.88555   0.98857   0.00000  Uiso   1.00
C1061  C     0.84882   0.98762   0.76066   0.00000  Uiso   1.00
C1062  C     0.81785   0.67904   0.73934   0.00000  Uiso   1.00
C1063  C     0.79471   0.82946   0.83320   0.00000  Uiso   1.00
C1064  C     0.87195   0.83721   0.66680   0.00000  Uiso   1.00
C1065  C     0.77141   0.82478   0.88096   0.00000  Uiso   1.00
C1066  C     0.89526   0.84189   0.61905   0.00000  Uiso   1.00
C1067  C     0.68946   0.79261   0.94512   0.00000  Uiso   1.00
C1068  C     0.97721   0.87406   0.55489   0.00000  Uiso   1.00
C1069  C     0.70746   0.80484   0.90079   0.00000  Uiso   1.00
C1070  C     0.95920   0.86183   0.59921   0.00000  Uiso   1.00
C1071  C     0.81550   0.83679   0.90671   0.00000  Uiso   1.00
C1072  C     0.85117   0.82988   0.59329   0.00000  Uiso   1.00
C1073  C     0.79710   0.83042   0.95220   0.00000  Uiso   1.00
C1074  C     0.86956   0.83625   0.54780   0.00000  Uiso   1.00
C1075  C     0.73459   0.80305   0.97033   0.00000  Uiso   1.00
C1076  C     0.93208   0.86363   0.52967   0.00000  Uiso   1.00
C1077  C     0.84104   0.84510   0.97902   0.00000  Uiso   1.00
C1078  C     0.82563   0.82158   0.52098   0.00000  Uiso   1.00
Cu1079 Cu    0.77404   0.82775   0.74517   0.00000  Uiso   1.00
Cu1080 Cu    0.89263   0.83892   0.75484   0.00000  Uiso   1.00
H1081  H     0.67377   0.75586   0.52344   0.00000  Uiso   1.00
H1082  H     0.99290   0.91081   0.97657   0.00000  Uiso   1.00
H1083  H     0.80149   0.81873   0.60947   0.00000  Uiso   1.00
H1084  H     0.86517   0.84793   0.89053   0.00000  Uiso   1.00
H1085  H     0.99417   0.87148   0.61845   0.00000  Uiso   1.00
H1086  H     0.67250   0.79519   0.88155   0.00000  Uiso   1.00
H1087  H     0.97427   0.77297   0.95923   0.00000  Uiso   1.00
H1088  H     0.69239   0.89370   0.54078   0.00000  Uiso   1.00
H1089  H     0.66813   0.87169   0.78420   0.00000  Uiso   1.00
H1090  H     0.99854   0.79498   0.71581   0.00000  Uiso   1.00
N1091  N     0.98173   0.84735   0.76212   0.00000  Uiso   1.00
N1092  N     0.68494   0.81932   0.73788   0.00000  Uiso   1.00
O1093  O     0.79482   0.90476   0.74686   0.00000  Uiso   1.00
O1094  O     0.87185   0.76191   0.75314   0.00000  Uiso   1.00
O1095  O     0.89496   0.91420   0.75503   0.00000  Uiso   1.00
O1096  O     0.77171   0.75247   0.74498   0.00000  Uiso   1.00
O1097  O     0.75518   0.82597   0.80855   0.00000  Uiso   1.00
O1098  O     0.91149   0.84070   0.69146   0.00000  Uiso   1.00
O1099  O     0.85532   0.83540   0.81671   0.00000  Uiso   1.00
O1100  O     0.81134   0.83126   0.68329   0.00000  Uiso   1.00
C1101  C     0.75459   0.74258   0.56760   0.00000  Uiso   1.00
H1102  H     0.79913   0.73632   0.57410   0.00000  Uiso   1.00
H1103  H     0.72120   0.75192   0.59838   0.00000  Uiso   1.00
H1104  H     0.73258   0.70447   0.55477   0.00000  Uiso   1.00
C1105  C     0.91209   0.92409   0.93239   0.00000  Uiso   1.00
H1106  H     0.94548   0.91474   0.90161   0.00000  Uiso   1.00
H1107  H     0.86755   0.93035   0.92589   0.00000  Uiso   1.00
H1108  H     0.93410   0.96220   0.94522   0.00000  Uiso   1.00
C1109  C     0.87997   0.67933   0.79681   0.00000  Uiso   1.00
H1110  H     0.88977   0.98288   0.81605   0.00000  Uiso   1.00
H1111  H     0.92613   0.70558   0.78258   0.00000  Uiso   1.00
H1112  H     0.84808   0.70133   0.82033   0.00000  Uiso   1.00
C1113  C     0.78668   0.98733   0.70320   0.00000  Uiso   1.00
H1114  H     0.77687   0.68378   0.68396   0.00000  Uiso   1.00
H1115  H     0.81856   0.96533   0.67968   0.00000  Uiso   1.00
H1116  H     0.74052   0.96109   0.71743   0.00000  Uiso   1.00
loop_
_geom_bond_atom_site_label_1
_geom_bond_atom_site_label_2
_geom_bond_distance
_geom_bond_site_symmetry_2
_ccdc_geom_bond_type
C1     C7      1.430   .     S
C1     O39     1.283   .     A
C1     O41     1.289   .     A
C2     O42     1.289   .     A
C2     O40     1.283   .     A
C2     C8      1.430   .     S
C3     C24     1.434   .     A
C3     C47     1.513   .     S
C3     C5      1.396   .     A
C4     C51     1.513   .     S
C4     C6      1.396   .     A
C4     C23     1.434   .     A
C5     H27     1.086   .     S
C5     C579    1.389   1_554 S
C6     H28     1.086   .     S
C6     C580    1.389   .     S
C7     C194    1.357   .     S
C7     C241    1.522   .     S
C8     C379    1.357   1_545 S
C8     C431    1.522   1_545 S
C9     O45     1.294   .     A
C9     C11     1.469   .     S
C9     O43     1.301   .     A
C10    C12     1.469   .     S
C10    O46     1.294   .     A
C10    O44     1.301   .     A
C11    C15     1.400   .     A
C11    C17     1.400   .     A
C12    C18     1.400   .     A
C12    C16     1.400   .     A
C13    C15     1.395   .     A
C13    C21     1.406   .     A
C13    H157    1.084   1_455 S
C14    C22     1.406   .     A
C14    C16     1.395   .     A
C14    H96     1.084   .     S
C15    H32     1.083   .     S
C16    H31     1.083   .     S
C17    H30     1.077   .     S
C17    C19     1.401   .     A
C18    H29     1.077   .     S
C18    C20     1.401   .     A
C19    C23     1.427   .     A
C19    C21     1.413   .     A
C20    C22     1.413   .     A
C20    C24     1.427   .     A
C21    C563    1.389   .     S
C22    C564    1.389   1_554 S
C23    C582    1.430   .     S
C24    C581    1.430   1_554 S
Cu25   O42     1.963   .     S
Cu25   N38     2.017   .     S
Cu25   O43     1.939   .     S
Cu25   O39     1.972   .     S
Cu25   Cu26    2.684   .     S
Cu25   O46     1.918   .     S
Cu26   N37     2.017   .     S
Cu26   O40     1.972   .     S
Cu26   O44     1.939   .     S
Cu26   O45     1.918   .     S
Cu26   O41     1.963   .     S
H33    C75     1.084   .     S
H34    C138    1.084   1_455 S
H35    N161    1.029   1_455 S
H36    N100    1.029   .     S
N37    H97     1.029   .     S
N37    N100    1.284   .     S
N38    H160    1.029   1_455 S
N38    N161    1.284   1_455 S
C47    H48     1.109   .     S
C47    H49     1.110   .     S
C47    H50     1.112   .     S
C51    H54     1.112   .     S
C51    H52     1.110   .     S
C51    H53     1.109   .     S
C55    H57     1.110   .     S
C55    H58     1.111   .     S
C55    C379    1.522   1_545 S
C55    H428    1.111   1_545 S
H56    C241    1.111   .     S
C59    H61     1.111   .     S
C59    H62     1.110   .     S
C59    C194    1.522   .     S
C59    H246    1.111   .     S
H60    C431    1.111   1_545 S
C63    C69     1.430   .     S
C63    O101    1.283   .     A
C63    O103    1.289   .     A
C64    O104    1.289   .     A
C64    O102    1.283   .     A
C64    C70     1.430   .     S
C65    C86     1.434   .     A
C65    C109    1.513   .     S
C65    C67     1.396   .     A
C66    C113    1.513   .     S
C66    C68     1.396   .     A
C66    C85     1.434   .     A
C67    H89     1.086   .     S
C67    C641    1.389   1_554 S
C68    H90     1.086   .     S
C68    C642    1.389   .     S
C69    C256    1.357   .     S
C69    C303    1.522   .     S
C70    C441    1.357   1_545 S
C70    C493    1.522   1_545 S
C71    O107    1.294   .     A
C71    C73     1.469   .     S
C71    O105    1.301   .     A
C72    C74     1.469   .     S
C72    O108    1.294   .     A
C72    O106    1.301   .     A
C73    C77     1.400   .     A
C73    C79     1.400   .     A
C74    C80     1.400   .     A
C74    C78     1.400   .     A
C75    C77     1.395   .     A
C75    C83     1.406   .     A
C76    C84     1.406   .     A
C76    C78     1.395   .     A
C76    H158    1.084   .     S
C77    H94     1.083   .     S
C78    H93     1.083   .     S
C79    H92     1.077   .     S
C79    C81     1.401   .     A
C80    H91     1.077   .     S
C80    C82     1.401   .     A
C81    C85     1.427   .     A
C81    C83     1.413   .     A
C82    C84     1.413   .     A
C82    C86     1.427   .     A
C83    C625    1.389   .     S
C84    C626    1.389   1_554 S
C85    C644    1.430   .     S
C86    C643    1.430   1_554 S
Cu87   O104    1.963   .     S
Cu87   N100    2.017   .     S
Cu87   O105    1.939   .     S
Cu87   O101    1.972   .     S
Cu87   Cu88    2.684   .     S
Cu87   O108    1.918   .     S
Cu88   N99     2.017   .     S
Cu88   O102    1.972   .     S
Cu88   O106    1.939   .     S
Cu88   O107    1.918   .     S
Cu88   O103    1.963   .     S
H95    C137    1.084   .     S
H98    N162    1.029   .     S
N99    H159    1.029   .     S
N99    N162    1.284   .     S
C109   H110    1.109   .     S
C109   H111    1.110   .     S
C109   H112    1.112   .     S
C113   H116    1.112   .     S
C113   H114    1.110   .     S
C113   H115    1.109   .     S
C117   H119    1.110   .     S
C117   H120    1.111   .     S
C117   C441    1.522   1_545 S
C117   H490    1.111   1_545 S
H118   C303    1.111   .     S
C121   H123    1.111   .     S
C121   H124    1.110   .     S
C121   C256    1.522   .     S
C121   H308    1.111   .     S
H122   C493    1.111   1_545 S
C125   C131    1.430   .     S
C125   O163    1.283   .     A
C125   O165    1.289   .     A
C126   O166    1.289   .     A
C126   O164    1.283   .     A
C126   C132    1.430   .     S
C127   C148    1.434   .     A
C127   C171    1.513   .     S
C127   C129    1.396   .     A
C128   C175    1.513   .     S
C128   C130    1.396   .     A
C128   C147    1.434   .     A
C129   H151    1.086   .     S
C129   C703    1.389   1_554 S
C130   H152    1.086   .     S
C130   C704    1.389   .     S
C131   C318    1.357   .     S
C131   C365    1.522   .     S
C132   C503    1.357   1_545 S
C132   C555    1.522   1_545 S
C133   O169    1.294   .     A
C133   C135    1.469   .     S
C133   O167    1.301   .     A
C134   C136    1.469   .     S
C134   O170    1.294   .     A
C134   O168    1.301   .     A
C135   C139    1.400   .     A
C135   C141    1.400   .     A
C136   C142    1.400   .     A
C136   C140    1.400   .     A
C137   C139    1.395   .     A
C137   C145    1.406   .     A
C138   C146    1.406   .     A
C138   C140    1.395   .     A
C138   H34     1.084   1_655 S
C139   H156    1.083   .     S
C140   H155    1.083   .     S
C141   H154    1.077   .     S
C141   C143    1.401   .     A
C142   H153    1.077   .     S
C142   C144    1.401   .     A
C143   C147    1.427   .     A
C143   C145    1.413   .     A
C144   C146    1.413   .     A
C144   C148    1.427   .     A
C145   C687    1.389   .     S
C146   C688    1.389   1_554 S
C147   C706    1.430   .     S
C148   C705    1.430   1_554 S
Cu149  O166    1.963   .     S
Cu149  N162    2.017   .     S
Cu149  O167    1.939   .     S
Cu149  O163    1.972   .     S
Cu149  Cu150   2.684   .     S
Cu149  O170    1.918   .     S
Cu150  N161    2.017   .     S
Cu150  O164    1.972   .     S
Cu150  O168    1.939   .     S
Cu150  O169    1.918   .     S
Cu150  O165    1.963   .     S
H157   C13     1.084   1_655 S
H160   N38     1.029   1_655 S
N161   H35     1.029   1_655 S
N161   N38     1.284   1_655 S
C171   H172    1.109   .     S
C171   H173    1.110   .     S
C171   H174    1.112   .     S
C175   H178    1.112   .     S
C175   H176    1.110   .     S
C175   H177    1.109   .     S
C179   H181    1.110   .     S
C179   H182    1.111   .     S
C179   C503    1.522   1_545 S
C179   H552    1.111   1_545 S
H180   C365    1.111   .     S
C183   H185    1.111   .     S
C183   H186    1.110   .     S
C183   C318    1.522   .     S
C183   H370    1.111   .     S
H184   C555    1.111   1_545 S
C187   C193    1.430   .     S
C187   O225    1.283   .     A
C187   O227    1.289   .     A
C188   O228    1.289   .     A
C188   O226    1.283   .     A
C188   C194    1.430   .     S
C189   C210    1.434   .     A
C189   C233    1.513   .     S
C189   C191    1.396   .     A
C190   C237    1.513   .     S
C190   C192    1.396   .     A
C190   C209    1.434   .     A
C191   H213    1.086   .     S
C191   C765    1.389   1_554 S
C192   H214    1.086   .     S
C192   C766    1.389   .     S
C193   C380    1.357   .     S
C193   C427    1.522   .     S
C195   O231    1.294   .     A
C195   C197    1.469   .     S
C195   O229    1.301   .     A
C196   C198    1.469   .     S
C196   O232    1.294   .     A
C196   O230    1.301   .     A
C197   C201    1.400   .     A
C197   C203    1.400   .     A
C198   C204    1.400   .     A
C198   C202    1.400   .     A
C199   C201    1.395   .     A
C199   C207    1.406   .     A
C199   H343    1.084   1_455 S
C200   C208    1.406   .     A
C200   C202    1.395   .     A
C200   H282    1.084   .     S
C201   H218    1.083   .     S
C202   H217    1.083   .     S
C203   H216    1.077   .     S
C203   C205    1.401   .     A
C204   H215    1.077   .     S
C204   C206    1.401   .     A
C205   C209    1.427   .     A
C205   C207    1.413   .     A
C206   C208    1.413   .     A
C206   C210    1.427   .     A
C207   C749    1.389   .     S
C208   C750    1.389   1_554 S
C209   C768    1.430   .     S
C210   C767    1.430   1_554 S
Cu211  O228    1.963   .     S
Cu211  N224    2.017   .     S
Cu211  O229    1.939   .     S
Cu211  O225    1.972   .     S
Cu211  Cu212   2.684   .     S
Cu211  O232    1.918   .     S
Cu212  N223    2.017   .     S
Cu212  O226    1.972   .     S
Cu212  O230    1.939   .     S
Cu212  O231    1.918   .     S
Cu212  O227    1.963   .     S
H219   C261    1.084   .     S
H220   C324    1.084   1_455 S
H221   N347    1.029   1_455 S
H222   N286    1.029   .     S
N223   H283    1.029   .     S
N223   N286    1.284   .     S
N224   H346    1.029   1_455 S
N224   N347    1.284   1_455 S
C233   H234    1.109   .     S
C233   H235    1.110   .     S
C233   H236    1.112   .     S
C237   H240    1.112   .     S
C237   H238    1.110   .     S
C237   H239    1.109   .     S
C241   H243    1.110   .     S
C241   H244    1.111   .     S
H242   C427    1.111   .     S
C245   H247    1.111   .     S
C245   H248    1.110   .     S
C245   C380    1.522   .     S
C245   H432    1.111   .     S
C249   C255    1.430   .     S
C249   O287    1.283   .     A
C249   O289    1.289   .     A
C250   O290    1.289   .     A
C250   O288    1.283   .     A
C250   C256    1.430   .     S
C251   C272    1.434   .     A
C251   C295    1.513   .     S
C251   C253    1.396   .     A
C252   C299    1.513   .     S
C252   C254    1.396   .     A
C252   C271    1.434   .     A
C253   H275    1.086   .     S
C253   C827    1.389   1_554 S
C254   H276    1.086   .     S
C254   C828    1.389   .     S
C255   C442    1.357   .     S
C255   C489    1.522   .     S
C257   O293    1.294   .     A
C257   C259    1.469   .     S
C257   O291    1.301   .     A
C258   C260    1.469   .     S
C258   O294    1.294   .     A
C258   O292    1.301   .     A
C259   C263    1.400   .     A
C259   C265    1.400   .     A
C260   C266    1.400   .     A
C260   C264    1.400   .     A
C261   C263    1.395   .     A
C261   C269    1.406   .     A
C262   C270    1.406   .     A
C262   C264    1.395   .     A
C262   H344    1.084   .     S
C263   H280    1.083   .     S
C264   H279    1.083   .     S
C265   H278    1.077   .     S
C265   C267    1.401   .     A
C266   H277    1.077   .     S
C266   C268    1.401   .     A
C267   C271    1.427   .     A
C267   C269    1.413   .     A
C268   C270    1.413   .     A
C268   C272    1.427   .     A
C269   C811    1.389   .     S
C270   C812    1.389   1_554 S
C271   C830    1.430   .     S
C272   C829    1.430   1_554 S
Cu273  O290    1.963   .     S
Cu273  N286    2.017   .     S
Cu273  O291    1.939   .     S
Cu273  O287    1.972   .     S
Cu273  Cu274   2.684   .     S
Cu273  O294    1.918   .     S
Cu274  N285    2.017   .     S
Cu274  O288    1.972   .     S
Cu274  O292    1.939   .     S
Cu274  O293    1.918   .     S
Cu274  O289    1.963   .     S
H281   C323    1.084   .     S
H284   N348    1.029   .     S
N285   H345    1.029   .     S
N285   N348    1.284   .     S
C295   H296    1.109   .     S
C295   H297    1.110   .     S
C295   H298    1.112   .     S
C299   H302    1.112   .     S
C299   H300    1.110   .     S
C299   H301    1.109   .     S
C303   H305    1.110   .     S
C303   H306    1.111   .     S
H304   C489    1.111   .     S
C307   H309    1.111   .     S
C307   H310    1.110   .     S
C307   C442    1.522   .     S
C307   H494    1.111   .     S
C311   C317    1.430   .     S
C311   O349    1.283   .     A
C311   O351    1.289   .     A
C312   O352    1.289   .     A
C312   O350    1.283   .     A
C312   C318    1.430   .     S
C313   C334    1.434   .     A
C313   C357    1.513   .     S
C313   C315    1.396   .     A
C314   C361    1.513   .     S
C314   C316    1.396   .     A
C314   C333    1.434   .     A
C315   H337    1.086   .     S
C315   C889    1.389   1_554 S
C316   H338    1.086   .     S
C316   C890    1.389   .     S
C317   C504    1.357   .     S
C317   C551    1.522   .     S
C319   O355    1.294   .     A
C319   C321    1.469   .     S
C319   O353    1.301   .     A
C320   C322    1.469   .     S
C320   O356    1.294   .     A
C320   O354    1.301   .     A
C321   C325    1.400   .     A
C321   C327    1.400   .     A
C322   C328    1.400   .     A
C322   C326    1.400   .     A
C323   C325    1.395   .     A
C323   C331    1.406   .     A
C324   C332    1.406   .     A
C324   C326    1.395   .     A
C324   H220    1.084   1_655 S
C325   H342    1.083   .     S
C326   H341    1.083   .     S
C327   H340    1.077   .     S
C327   C329    1.401   .     A
C328   H339    1.077   .     S
C328   C330    1.401   .     A
C329   C333    1.427   .     A
C329   C331    1.413   .     A
C330   C332    1.413   .     A
C330   C334    1.427   .     A
C331   C873    1.389   .     S
C332   C874    1.389   1_554 S
C333   C892    1.430   .     S
C334   C891    1.430   1_554 S
Cu335  O352    1.963   .     S
Cu335  N348    2.017   .     S
Cu335  O353    1.939   .     S
Cu335  O349    1.972   .     S
Cu335  Cu336   2.684   .     S
Cu335  O356    1.918   .     S
Cu336  N347    2.017   .     S
Cu336  O350    1.972   .     S
Cu336  O354    1.939   .     S
Cu336  O355    1.918   .     S
Cu336  O351    1.963   .     S
H343   C199    1.084   1_655 S
H346   N224    1.029   1_655 S
N347   H221    1.029   1_655 S
N347   N224    1.284   1_655 S
C357   H358    1.109   .     S
C357   H359    1.110   .     S
C357   H360    1.112   .     S
C361   H364    1.112   .     S
C361   H362    1.110   .     S
C361   H363    1.109   .     S
C365   H367    1.110   .     S
C365   H368    1.111   .     S
H366   C551    1.111   .     S
C369   H371    1.111   .     S
C369   H372    1.110   .     S
C369   C504    1.522   .     S
C369   H556    1.111   .     S
C373   C379    1.430   .     S
C373   O411    1.283   .     A
C373   O413    1.289   .     A
C374   O414    1.289   .     A
C374   O412    1.283   .     A
C374   C380    1.430   .     S
C375   C396    1.434   .     A
C375   C419    1.513   .     S
C375   C377    1.396   .     A
C376   C423    1.513   .     S
C376   C378    1.396   .     A
C376   C395    1.434   .     A
C377   H399    1.086   .     S
C377   C951    1.389   1_554 S
C378   H400    1.086   .     S
C378   C952    1.389   .     S
C379   C8      1.357   1_565 S
C379   C55     1.522   1_565 S
C381   O417    1.294   .     A
C381   C383    1.469   .     S
C381   O415    1.301   .     A
C382   C384    1.469   .     S
C382   O418    1.294   .     A
C382   O416    1.301   .     A
C383   C387    1.400   .     A
C383   C389    1.400   .     A
C384   C390    1.400   .     A
C384   C388    1.400   .     A
C385   C387    1.395   .     A
C385   C393    1.406   .     A
C385   H529    1.084   1_455 S
C386   C394    1.406   .     A
C386   C388    1.395   .     A
C386   H468    1.084   .     S
C387   H404    1.083   .     S
C388   H403    1.083   .     S
C389   H402    1.077   .     S
C389   C391    1.401   .     A
C390   H401    1.077   .     S
C390   C392    1.401   .     A
C391   C395    1.427   .     A
C391   C393    1.413   .     A
C392   C394    1.413   .     A
C392   C396    1.427   .     A
C393   C935    1.389   .     S
C394   C936    1.389   1_554 S
C395   C954    1.430   .     S
C396   C953    1.430   1_554 S
Cu397  O414    1.963   .     S
Cu397  N410    2.017   .     S
Cu397  O415    1.939   .     S
Cu397  O411    1.972   .     S
Cu397  Cu398   2.684   .     S
Cu397  O418    1.918   .     S
Cu398  N409    2.017   .     S
Cu398  O412    1.972   .     S
Cu398  O416    1.939   .     S
Cu398  O417    1.918   .     S
Cu398  O413    1.963   .     S
H405   C447    1.084   .     S
H406   C510    1.084   1_455 S
H407   N533    1.029   1_455 S
H408   N472    1.029   .     S
N409   H469    1.029   .     S
N409   N472    1.284   .     S
N410   H532    1.029   1_455 S
N410   N533    1.284   1_455 S
C419   H420    1.109   .     S
C419   H421    1.110   .     S
C419   H422    1.112   .     S
C423   H426    1.112   .     S
C423   H424    1.110   .     S
C423   H425    1.109   .     S
C427   H429    1.110   .     S
C427   H430    1.111   .     S
H428   C55     1.111   1_565 S
C431   H433    1.111   .     S
C431   H434    1.110   .     S
C431   C8      1.522   1_565 S
C431   H60     1.111   1_565 S
C435   C441    1.430   .     S
C435   O473    1.283   .     A
C435   O475    1.289   .     A
C436   O476    1.289   .     A
C436   O474    1.283   .     A
C436   C442    1.430   .     S
C437   C458    1.434   .     A
C437   C481    1.513   .     S
C437   C439    1.396   .     A
C438   C485    1.513   .     S
C438   C440    1.396   .     A
C438   C457    1.434   .     A
C439   H461    1.086   .     S
C439   C1013   1.389   1_554 S
C440   H462    1.086   .     S
C440   C1014   1.389   .     S
C441   C70     1.357   1_565 S
C441   C117    1.522   1_565 S
C443   O479    1.294   .     A
C443   C445    1.469   .     S
C443   O477    1.301   .     A
C444   C446    1.469   .     S
C444   O480    1.294   .     A
C444   O478    1.301   .     A
C445   C449    1.400   .     A
C445   C451    1.400   .     A
C446   C452    1.400   .     A
C446   C450    1.400   .     A
C447   C449    1.395   .     A
C447   C455    1.406   .     A
C448   C456    1.406   .     A
C448   C450    1.395   .     A
C448   H530    1.084   .     S
C449   H466    1.083   .     S
C450   H465    1.083   .     S
C451   H464    1.077   .     S
C451   C453    1.401   .     A
C452   H463    1.077   .     S
C452   C454    1.401   .     A
C453   C457    1.427   .     A
C453   C455    1.413   .     A
C454   C456    1.413   .     A
C454   C458    1.427   .     A
C455   C997    1.389   .     S
C456   C998    1.389   1_554 S
C457   C1016   1.430   .     S
C458   C1015   1.430   1_554 S
Cu459  O476    1.963   .     S
Cu459  N472    2.017   .     S
Cu459  O477    1.939   .     S
Cu459  O473    1.972   .     S
Cu459  Cu460   2.684   .     S
Cu459  O480    1.918   .     S
Cu460  N471    2.017   .     S
Cu460  O474    1.972   .     S
Cu460  O478    1.939   .     S
Cu460  O479    1.918   .     S
Cu460  O475    1.963   .     S
H467   C509    1.084   .     S
H470   N534    1.029   .     S
N471   H531    1.029   .     S
N471   N534    1.284   .     S
C481   H482    1.109   .     S
C481   H483    1.110   .     S
C481   H484    1.112   .     S
C485   H488    1.112   .     S
C485   H486    1.110   .     S
C485   H487    1.109   .     S
C489   H491    1.110   .     S
C489   H492    1.111   .     S
H490   C117    1.111   1_565 S
C493   H495    1.111   .     S
C493   H496    1.110   .     S
C493   C70     1.522   1_565 S
C493   H122    1.111   1_565 S
C497   C503    1.430   .     S
C497   O535    1.283   .     A
C497   O537    1.289   .     A
C498   O538    1.289   .     A
C498   O536    1.283   .     A
C498   C504    1.430   .     S
C499   C520    1.434   .     A
C499   C543    1.513   .     S
C499   C501    1.396   .     A
C500   C547    1.513   .     S
C500   C502    1.396   .     A
C500   C519    1.434   .     A
C501   H523    1.086   .     S
C501   C1075   1.389   1_554 S
C502   H524    1.086   .     S
C502   C1076   1.389   .     S
C503   C132    1.357   1_565 S
C503   C179    1.522   1_565 S
C505   O541    1.294   .     A
C505   C507    1.469   .     S
C505   O539    1.301   .     A
C506   C508    1.469   .     S
C506   O542    1.294   .     A
C506   O540    1.301   .     A
C507   C511    1.400   .     A
C507   C513    1.400   .     A
C508   C514    1.400   .     A
C508   C512    1.400   .     A
C509   C511    1.395   .     A
C509   C517    1.406   .     A
C510   C518    1.406   .     A
C510   C512    1.395   .     A
C510   H406    1.084   1_655 S
C511   H528    1.083   .     S
C512   H527    1.083   .     S
C513   H526    1.077   .     S
C513   C515    1.401   .     A
C514   H525    1.077   .     S
C514   C516    1.401   .     A
C515   C519    1.427   .     A
C515   C517    1.413   .     A
C516   C518    1.413   .     A
C516   C520    1.427   .     A
C517   C1059   1.389   .     S
C518   C1060   1.389   1_554 S
C519   C1078   1.430   .     S
C520   C1077   1.430   1_554 S
Cu521  O538    1.963   .     S
Cu521  N534    2.017   .     S
Cu521  O539    1.939   .     S
Cu521  O535    1.972   .     S
Cu521  Cu522   2.684   .     S
Cu521  O542    1.918   .     S
Cu522  N533    2.017   .     S
Cu522  O536    1.972   .     S
Cu522  O540    1.939   .     S
Cu522  O541    1.918   .     S
Cu522  O537    1.963   .     S
H529   C385    1.084   1_655 S
H532   N410    1.029   1_655 S
N533   H407    1.029   1_655 S
N533   N410    1.284   1_655 S
C543   H544    1.109   .     S
C543   H545    1.110   .     S
C543   H546    1.112   .     S
C547   H550    1.112   .     S
C547   H548    1.110   .     S
C547   H549    1.109   .     S
C551   H553    1.110   .     S
C551   H554    1.111   .     S
H552   C179    1.111   1_565 S
C555   H557    1.111   .     S
C555   H558    1.110   .     S
C555   C132    1.522   1_565 S
C555   H184    1.111   1_565 S
C559   C565    1.430   .     S
C559   O597    1.283   .     A
C559   O599    1.289   .     A
C560   O600    1.289   .     A
C560   O598    1.283   .     A
C560   C566    1.430   .     S
C561   C582    1.434   .     A
C561   C605    1.513   .     S
C561   C563    1.396   .     A
C562   C609    1.513   .     S
C562   C564    1.396   .     A
C562   C581    1.434   .     A
C563   H585    1.086   .     S
C564   H586    1.086   .     S
C564   C22     1.389   1_556 S
C565   C752    1.357   .     S
C565   C799    1.522   .     S
C566   C937    1.357   1_545 S
C566   C989    1.522   1_545 S
C567   O603    1.294   .     A
C567   C569    1.469   .     S
C567   O601    1.301   .     A
C568   C570    1.469   .     S
C568   O604    1.294   .     A
C568   O602    1.301   .     A
C569   C573    1.400   .     A
C569   C575    1.400   .     A
C570   C576    1.400   .     A
C570   C574    1.400   .     A
C571   C573    1.395   .     A
C571   C579    1.406   .     A
C571   H715    1.084   1_455 S
C572   C580    1.406   .     A
C572   C574    1.395   .     A
C572   H654    1.084   .     S
C573   H590    1.083   .     S
C574   H589    1.083   .     S
C575   H588    1.077   .     S
C575   C577    1.401   .     A
C576   H587    1.077   .     S
C576   C578    1.401   .     A
C577   C581    1.427   .     A
C577   C579    1.413   .     A
C578   C580    1.413   .     A
C578   C582    1.427   .     A
C579   C5      1.389   1_556 S
C581   C24     1.430   1_556 S
Cu583  O600    1.963   .     S
Cu583  N596    2.017   .     S
Cu583  O601    1.939   .     S
Cu583  O597    1.972   .     S
Cu583  Cu584   2.684   .     S
Cu583  O604    1.918   .     S
Cu584  N595    2.017   .     S
Cu584  O598    1.972   .     S
Cu584  O602    1.939   .     S
Cu584  O603    1.918   .     S
Cu584  O599    1.963   .     S
H591   C633    1.084   .     S
H592   C696    1.084   1_455 S
H593   N719    1.029   1_455 S
H594   N658    1.029   .     S
N595   H655    1.029   .     S
N595   N658    1.284   .     S
N596   H718    1.029   1_455 S
N596   N719    1.284   1_455 S
C605   H606    1.109   .     S
C605   H607    1.110   .     S
C605   H608    1.112   .     S
C609   H612    1.112   .     S
C609   H610    1.110   .     S
C609   H611    1.109   .     S
C613   H615    1.110   .     S
C613   H616    1.111   .     S
C613   C937    1.522   1_545 S
C613   H986    1.111   1_545 S
H614   C799    1.111   .     S
C617   H619    1.111   .     S
C617   H620    1.110   .     S
C617   C752    1.522   .     S
C617   H804    1.111   .     S
H618   C989    1.111   1_545 S
C621   C627    1.430   .     S
C621   O659    1.283   .     A
C621   O661    1.289   .     A
C622   O662    1.289   .     A
C622   O660    1.283   .     A
C622   C628    1.430   .     S
C623   C644    1.434   .     A
C623   C667    1.513   .     S
C623   C625    1.396   .     A
C624   C671    1.513   .     S
C624   C626    1.396   .     A
C624   C643    1.434   .     A
C625   H647    1.086   .     S
C626   H648    1.086   .     S
C626   C84     1.389   1_556 S
C627   C814    1.357   .     S
C627   C861    1.522   .     S
C628   C999    1.357   1_545 S
C628   C1051   1.522   1_545 S
C629   O665    1.294   .     A
C629   C631    1.469   .     S
C629   O663    1.301   .     A
C630   C632    1.469   .     S
C630   O666    1.294   .     A
C630   O664    1.301   .     A
C631   C635    1.400   .     A
C631   C637    1.400   .     A
C632   C638    1.400   .     A
C632   C636    1.400   .     A
C633   C635    1.395   .     A
C633   C641    1.406   .     A
C634   C642    1.406   .     A
C634   C636    1.395   .     A
C634   H716    1.084   .     S
C635   H652    1.083   .     S
C636   H651    1.083   .     S
C637   H650    1.077   .     S
C637   C639    1.401   .     A
C638   H649    1.077   .     S
C638   C640    1.401   .     A
C639   C643    1.427   .     A
C639   C641    1.413   .     A
C640   C642    1.413   .     A
C640   C644    1.427   .     A
C641   C67     1.389   1_556 S
C643   C86     1.430   1_556 S
Cu645  O662    1.963   .     S
Cu645  N658    2.017   .     S
Cu645  O663    1.939   .     S
Cu645  O659    1.972   .     S
Cu645  Cu646   2.684   .     S
Cu645  O666    1.918   .     S
Cu646  N657    2.017   .     S
Cu646  O660    1.972   .     S
Cu646  O664    1.939   .     S
Cu646  O665    1.918   .     S
Cu646  O661    1.963   .     S
H653   C695    1.084   .     S
H656   N720    1.029   .     S
N657   H717    1.029   .     S
N657   N720    1.284   .     S
C667   H668    1.109   .     S
C667   H669    1.110   .     S
C667   H670    1.112   .     S
C671   H674    1.112   .     S
C671   H672    1.110   .     S
C671   H673    1.109   .     S
C675   H677    1.110   .     S
C675   H678    1.111   .     S
C675   C999    1.522   1_545 S
C675   H1048   1.111   1_545 S
H676   C861    1.111   .     S
C679   H681    1.111   .     S
C679   H682    1.110   .     S
C679   C814    1.522   .     S
C679   H866    1.111   .     S
H680   C1051   1.111   1_545 S
C683   C689    1.430   .     S
C683   O721    1.283   .     A
C683   O723    1.289   .     A
C684   O724    1.289   .     A
C684   O722    1.283   .     A
C684   C690    1.430   .     S
C685   C706    1.434   .     A
C685   C729    1.513   .     S
C685   C687    1.396   .     A
C686   C733    1.513   .     S
C686   C688    1.396   .     A
C686   C705    1.434   .     A
C687   H709    1.086   .     S
C688   H710    1.086   .     S
C688   C146    1.389   1_556 S
C689   C876    1.357   .     S
C689   C923    1.522   .     S
C690   C1061   1.357   1_545 S
C690   C1113   1.522   1_545 S
C691   O727    1.294   .     A
C691   C693    1.469   .     S
C691   O725    1.301   .     A
C692   C694    1.469   .     S
C692   O728    1.294   .     A
C692   O726    1.301   .     A
C693   C697    1.400   .     A
C693   C699    1.400   .     A
C694   C700    1.400   .     A
C694   C698    1.400   .     A
C695   C697    1.395   .     A
C695   C703    1.406   .     A
C696   C704    1.406   .     A
C696   C698    1.395   .     A
C696   H592    1.084   1_655 S
C697   H714    1.083   .     S
C698   H713    1.083   .     S
C699   H712    1.077   .     S
C699   C701    1.401   .     A
C700   H711    1.077   .     S
C700   C702    1.401   .     A
C701   C705    1.427   .     A
C701   C703    1.413   .     A
C702   C704    1.413   .     A
C702   C706    1.427   .     A
C703   C129    1.389   1_556 S
C705   C148    1.430   1_556 S
Cu707  O724    1.963   .     S
Cu707  N720    2.017   .     S
Cu707  O725    1.939   .     S
Cu707  O721    1.972   .     S
Cu707  Cu708   2.684   .     S
Cu707  O728    1.918   .     S
Cu708  N719    2.017   .     S
Cu708  O722    1.972   .     S
Cu708  O726    1.939   .     S
Cu708  O727    1.918   .     S
Cu708  O723    1.963   .     S
H715   C571    1.084   1_655 S
H718   N596    1.029   1_655 S
N719   H593    1.029   1_655 S
N719   N596    1.284   1_655 S
C729   H730    1.109   .     S
C729   H731    1.110   .     S
C729   H732    1.112   .     S
C733   H736    1.112   .     S
C733   H734    1.110   .     S
C733   H735    1.109   .     S
C737   H739    1.110   .     S
C737   H740    1.111   .     S
C737   C1061   1.522   1_545 S
C737   H1110   1.111   1_545 S
H738   C923    1.111   .     S
C741   H743    1.111   .     S
C741   H744    1.110   .     S
C741   C876    1.522   .     S
C741   H928    1.111   .     S
H742   C1113   1.111   1_545 S
C745   C751    1.430   .     S
C745   O783    1.283   .     A
C745   O785    1.289   .     A
C746   O786    1.289   .     A
C746   O784    1.283   .     A
C746   C752    1.430   .     S
C747   C768    1.434   .     A
C747   C791    1.513   .     S
C747   C749    1.396   .     A
C748   C795    1.513   .     S
C748   C750    1.396   .     A
C748   C767    1.434   .     A
C749   H771    1.086   .     S
C750   H772    1.086   .     S
C750   C208    1.389   1_556 S
C751   C938    1.357   .     S
C751   C985    1.522   .     S
C753   O789    1.294   .     A
C753   C755    1.469   .     S
C753   O787    1.301   .     A
C754   C756    1.469   .     S
C754   O790    1.294   .     A
C754   O788    1.301   .     A
C755   C759    1.400   .     A
C755   C761    1.400   .     A
C756   C762    1.400   .     A
C756   C760    1.400   .     A
C757   C759    1.395   .     A
C757   C765    1.406   .     A
C757   H901    1.084   1_455 S
C758   C766    1.406   .     A
C758   C760    1.395   .     A
C758   H840    1.084   .     S
C759   H776    1.083   .     S
C760   H775    1.083   .     S
C761   H774    1.077   .     S
C761   C763    1.401   .     A
C762   H773    1.077   .     S
C762   C764    1.401   .     A
C763   C767    1.427   .     A
C763   C765    1.413   .     A
C764   C766    1.413   .     A
C764   C768    1.427   .     A
C765   C191    1.389   1_556 S
C767   C210    1.430   1_556 S
Cu769  O786    1.963   .     S
Cu769  N782    2.017   .     S
Cu769  O787    1.939   .     S
Cu769  O783    1.972   .     S
Cu769  Cu770   2.684   .     S
Cu769  O790    1.918   .     S
Cu770  N781    2.017   .     S
Cu770  O784    1.972   .     S
Cu770  O788    1.939   .     S
Cu770  O789    1.918   .     S
Cu770  O785    1.963   .     S
H777   C819    1.084   .     S
H778   C882    1.084   1_455 S
H779   N905    1.029   1_455 S
H780   N844    1.029   .     S
N781   H841    1.029   .     S
N781   N844    1.284   .     S
N782   H904    1.029   1_455 S
N782   N905    1.284   1_455 S
C791   H792    1.109   .     S
C791   H793    1.110   .     S
C791   H794    1.112   .     S
C795   H798    1.112   .     S
C795   H796    1.110   .     S
C795   H797    1.109   .     S
C799   H801    1.110   .     S
C799   H802    1.111   .     S
H800   C985    1.111   .     S
C803   H805    1.111   .     S
C803   H806    1.110   .     S
C803   C938    1.522   .     S
C803   H990    1.111   .     S
C807   C813    1.430   .     S
C807   O845    1.283   .     A
C807   O847    1.289   .     A
C808   O848    1.289   .     A
C808   O846    1.283   .     A
C808   C814    1.430   .     S
C809   C830    1.434   .     A
C809   C853    1.513   .     S
C809   C811    1.396   .     A
C810   C857    1.513   .     S
C810   C812    1.396   .     A
C810   C829    1.434   .     A
C811   H833    1.086   .     S
C812   H834    1.086   .     S
C812   C270    1.389   1_556 S
C813   C1000   1.357   .     S
C813   C1047   1.522   .     S
C815   O851    1.294   .     A
C815   C817    1.469   .     S
C815   O849    1.301   .     A
C816   C818    1.469   .     S
C816   O852    1.294   .     A
C816   O850    1.301   .     A
C817   C821    1.400   .     A
C817   C823    1.400   .     A
C818   C824    1.400   .     A
C818   C822    1.400   .     A
C819   C821    1.395   .     A
C819   C827    1.406   .     A
C820   C828    1.406   .     A
C820   C822    1.395   .     A
C820   H902    1.084   .     S
C821   H838    1.083   .     S
C822   H837    1.083   .     S
C823   H836    1.077   .     S
C823   C825    1.401   .     A
C824   H835    1.077   .     S
C824   C826    1.401   .     A
C825   C829    1.427   .     A
C825   C827    1.413   .     A
C826   C828    1.413   .     A
C826   C830    1.427   .     A
C827   C253    1.389   1_556 S
C829   C272    1.430   1_556 S
Cu831  O848    1.963   .     S
Cu831  N844    2.017   .     S
Cu831  O849    1.939   .     S
Cu831  O845    1.972   .     S
Cu831  Cu832   2.684   .     S
Cu831  O852    1.918   .     S
Cu832  N843    2.017   .     S
Cu832  O846    1.972   .     S
Cu832  O850    1.939   .     S
Cu832  O851    1.918   .     S
Cu832  O847    1.963   .     S
H839   C881    1.084   .     S
H842   N906    1.029   .     S
N843   H903    1.029   .     S
N843   N906    1.284   .     S
C853   H854    1.109   .     S
C853   H855    1.110   .     S
C853   H856    1.112   .     S
C857   H860    1.112   .     S
C857   H858    1.110   .     S
C857   H859    1.109   .     S
C861   H863    1.110   .     S
C861   H864    1.111   .     S
H862   C1047   1.111   .     S
C865   H867    1.111   .     S
C865   H868    1.110   .     S
C865   C1000   1.522   .     S
C865   H1052   1.111   .     S
C869   C875    1.430   .     S
C869   O907    1.283   .     A
C869   O909    1.289   .     A
C870   O910    1.289   .     A
C870   O908    1.283   .     A
C870   C876    1.430   .     S
C871   C892    1.434   .     A
C871   C915    1.513   .     S
C871   C873    1.396   .     A
C872   C919    1.513   .     S
C872   C874    1.396   .     A
C872   C891    1.434   .     A
C873   H895    1.086   .     S
C874   H896    1.086   .     S
C874   C332    1.389   1_556 S
C875   C1062   1.357   .     S
C875   C1109   1.522   .     S
C877   O913    1.294   .     A
C877   C879    1.469   .     S
C877   O911    1.301   .     A
C878   C880    1.469   .     S
C878   O914    1.294   .     A
C878   O912    1.301   .     A
C879   C883    1.400   .     A
C879   C885    1.400   .     A
C880   C886    1.400   .     A
C880   C884    1.400   .     A
C881   C883    1.395   .     A
C881   C889    1.406   .     A
C882   C890    1.406   .     A
C882   C884    1.395   .     A
C882   H778    1.084   1_655 S
C883   H900    1.083   .     S
C884   H899    1.083   .     S
C885   H898    1.077   .     S
C885   C887    1.401   .     A
C886   H897    1.077   .     S
C886   C888    1.401   .     A
C887   C891    1.427   .     A
C887   C889    1.413   .     A
C888   C890    1.413   .     A
C888   C892    1.427   .     A
C889   C315    1.389   1_556 S
C891   C334    1.430   1_556 S
Cu893  O910    1.963   .     S
Cu893  N906    2.017   .     S
Cu893  O911    1.939   .     S
Cu893  O907    1.972   .     S
Cu893  Cu894   2.684   .     S
Cu893  O914    1.918   .     S
Cu894  N905    2.017   .     S
Cu894  O908    1.972   .     S
Cu894  O912    1.939   .     S
Cu894  O913    1.918   .     S
Cu894  O909    1.963   .     S
H901   C757    1.084   1_655 S
H904   N782    1.029   1_655 S
N905   H779    1.029   1_655 S
N905   N782    1.284   1_655 S
C915   H916    1.109   .     S
C915   H917    1.110   .     S
C915   H918    1.112   .     S
C919   H922    1.112   .     S
C919   H920    1.110   .     S
C919   H921    1.109   .     S
C923   H925    1.110   .     S
C923   H926    1.111   .     S
H924   C1109   1.111   .     S
C927   H929    1.111   .     S
C927   H930    1.110   .     S
C927   C1062   1.522   .     S
C927   H1114   1.111   .     S
C931   C937    1.430   .     S
C931   O969    1.283   .     A
C931   O971    1.289   .     A
C932   O972    1.289   .     A
C932   O970    1.283   .     A
C932   C938    1.430   .     S
C933   C954    1.434   .     A
C933   C977    1.513   .     S
C933   C935    1.396   .     A
C934   C981    1.513   .     S
C934   C936    1.396   .     A
C934   C953    1.434   .     A
C935   H957    1.086   .     S
C936   H958    1.086   .     S
C936   C394    1.389   1_556 S
C937   C566    1.357   1_565 S
C937   C613    1.522   1_565 S
C939   O975    1.294   .     A
C939   C941    1.469   .     S
C939   O973    1.301   .     A
C940   C942    1.469   .     S
C940   O976    1.294   .     A
C940   O974    1.301   .     A
C941   C945    1.400   .     A
C941   C947    1.400   .     A
C942   C948    1.400   .     A
C942   C946    1.400   .     A
C943   C945    1.395   .     A
C943   C951    1.406   .     A
C943   H1087   1.084   1_455 S
C944   C952    1.406   .     A
C944   C946    1.395   .     A
C944   H1026   1.084   .     S
C945   H962    1.083   .     S
C946   H961    1.083   .     S
C947   H960    1.077   .     S
C947   C949    1.401   .     A
C948   H959    1.077   .     S
C948   C950    1.401   .     A
C949   C953    1.427   .     A
C949   C951    1.413   .     A
C950   C952    1.413   .     A
C950   C954    1.427   .     A
C951   C377    1.389   1_556 S
C953   C396    1.430   1_556 S
Cu955  O972    1.963   .     S
Cu955  N968    2.017   .     S
Cu955  O973    1.939   .     S
Cu955  O969    1.972   .     S
Cu955  Cu956   2.684   .     S
Cu955  O976    1.918   .     S
Cu956  N967    2.017   .     S
Cu956  O970    1.972   .     S
Cu956  O974    1.939   .     S
Cu956  O975    1.918   .     S
Cu956  O971    1.963   .     S
H963   C1005   1.084   .     S
H964   C1068   1.084   1_455 S
H965   N1091   1.029   1_455 S
H966   N1030   1.029   .     S
N967   H1027   1.029   .     S
N967   N1030   1.284   .     S
N968   H1090   1.029   1_455 S
N968   N1091   1.284   1_455 S
C977   H978    1.109   .     S
C977   H979    1.110   .     S
C977   H980    1.112   .     S
C981   H984    1.112   .     S
C981   H982    1.110   .     S
C981   H983    1.109   .     S
C985   H987    1.110   .     S
C985   H988    1.111   .     S
H986   C613    1.111   1_565 S
C989   H991    1.111   .     S
C989   H992    1.110   .     S
C989   C566    1.522   1_565 S
C989   H618    1.111   1_565 S
C993   C999    1.430   .     S
C993   O1031   1.283   .     A
C993   O1033   1.289   .     A
C994   O1034   1.289   .     A
C994   O1032   1.283   .     A
C994   C1000   1.430   .     S
C995   C1016   1.434   .     A
C995   C1039   1.513   .     S
C995   C997    1.396   .     A
C996   C1043   1.513   .     S
C996   C998    1.396   .     A
C996   C1015   1.434   .     A
C997   H1019   1.086   .     S
C998   H1020   1.086   .     S
C998   C456    1.389   1_556 S
C999   C628    1.357   1_565 S
C999   C675    1.522   1_565 S
C1001  O1037   1.294   .     A
C1001  C1003   1.469   .     S
C1001  O1035   1.301   .     A
C1002  C1004   1.469   .     S
C1002  O1038   1.294   .     A
C1002  O1036   1.301   .     A
C1003  C1007   1.400   .     A
C1003  C1009   1.400   .     A
C1004  C1010   1.400   .     A
C1004  C1008   1.400   .     A
C1005  C1007   1.395   .     A
C1005  C1013   1.406   .     A
C1006  C1014   1.406   .     A
C1006  C1008   1.395   .     A
C1006  H1088   1.084   .     S
C1007  H1024   1.083   .     S
C1008  H1023   1.083   .     S
C1009  H1022   1.077   .     S
C1009  C1011   1.401   .     A
C1010  H1021   1.077   .     S
C1010  C1012   1.401   .     A
C1011  C1015   1.427   .     A
C1011  C1013   1.413   .     A
C1012  C1014   1.413   .     A
C1012  C1016   1.427   .     A
C1013  C439    1.389   1_556 S
C1015  C458    1.430   1_556 S
Cu1017 O1034   1.963   .     S
Cu1017 N1030   2.017   .     S
Cu1017 O1035   1.939   .     S
Cu1017 O1031   1.972   .     S
Cu1017 Cu1018  2.684   .     S
Cu1017 O1038   1.918   .     S
Cu1018 N1029   2.017   .     S
Cu1018 O1032   1.972   .     S
Cu1018 O1036   1.939   .     S
Cu1018 O1037   1.918   .     S
Cu1018 O1033   1.963   .     S
H1025  C1067   1.084   .     S
H1028  N1092   1.029   .     S
N1029  H1089   1.029   .     S
N1029  N1092   1.284   .     S
C1039  H1040   1.109   .     S
C1039  H1041   1.110   .     S
C1039  H1042   1.112   .     S
C1043  H1046   1.112   .     S
C1043  H1044   1.110   .     S
C1043  H1045   1.109   .     S
C1047  H1049   1.110   .     S
C1047  H1050   1.111   .     S
H1048  C675    1.111   1_565 S
C1051  H1053   1.111   .     S
C1051  H1054   1.110   .     S
C1051  C628    1.522   1_565 S
C1051  H680    1.111   1_565 S
C1055  C1061   1.430   .     S
C1055  O1093   1.283   .     A
C1055  O1095   1.289   .     A
C1056  O1096   1.289   .     A
C1056  O1094   1.283   .     A
C1056  C1062   1.430   .     S
C1057  C1078   1.434   .     A
C1057  C1101   1.513   .     S
C1057  C1059   1.396   .     A
C1058  C1105   1.513   .     S
C1058  C1060   1.396   .     A
C1058  C1077   1.434   .     A
C1059  H1081   1.086   .     S
C1060  H1082   1.086   .     S
C1060  C518    1.389   1_556 S
C1061  C690    1.357   1_565 S
C1061  C737    1.522   1_565 S
C1063  O1099   1.294   .     A
C1063  C1065   1.469   .     S
C1063  O1097   1.301   .     A
C1064  C1066   1.469   .     S
C1064  O1100   1.294   .     A
C1064  O1098   1.301   .     A
C1065  C1069   1.400   .     A
C1065  C1071   1.400   .     A
C1066  C1072   1.400   .     A
C1066  C1070   1.400   .     A
C1067  C1069   1.395   .     A
C1067  C1075   1.406   .     A
C1068  C1076   1.406   .     A
C1068  C1070   1.395   .     A
C1068  H964    1.084   1_655 S
C1069  H1086   1.083   .     S
C1070  H1085   1.083   .     S
C1071  H1084   1.077   .     S
C1071  C1073   1.401   .     A
C1072  H1083   1.077   .     S
C1072  C1074   1.401   .     A
C1073  C1077   1.427   .     A
C1073  C1075   1.413   .     A
C1074  C1076   1.413   .     A
C1074  C1078   1.427   .     A
C1075  C501    1.389   1_556 S
C1077  C520    1.430   1_556 S
Cu1079 O1096   1.963   .     S
Cu1079 N1092   2.017   .     S
Cu1079 O1097   1.939   .     S
Cu1079 O1093   1.972   .     S
Cu1079 Cu1080  2.684   .     S
Cu1079 O1100   1.918   .     S
Cu1080 N1091   2.017   .     S
Cu1080 O1094   1.972   .     S
Cu1080 O1098   1.939   .     S
Cu1080 O1099   1.918   .     S
Cu1080 O1095   1.963   .     S
H1087  C943    1.084   1_655 S
H1090  N968    1.029   1_655 S
N1091  H965    1.029   1_655 S
N1091  N968    1.284   1_655 S
C1101  H1102   1.109   .     S
C1101  H1103   1.110   .     S
C1101  H1104   1.112   .     S
C1105  H1108   1.112   .     S
C1105  H1106   1.110   .     S
C1105  H1107   1.109   .     S
C1109  H1111   1.110   .     S
C1109  H1112   1.111   .     S
H1110  C737    1.111   1_565 S
C1113  H1115   1.111   .     S
C1113  H1116   1.110   .     S
C1113  C690    1.522   1_565 S
C1113  H742    1.111   1_565 S
