data_str_m3_o1_o17_pcu_sym.216
_audit_creation_date              2020-01-03
_audit_creation_method            'Materials Studio'
_symmetry_space_group_name_H-M    'P1'
_symmetry_Int_Tables_number       1
_symmetry_cell_setting            triclinic
loop_
_symmetry_equiv_pos_as_xyz
  x,y,z
_cell_length_a                    32.1617
_cell_length_b                    29.7769
_cell_length_c                    29.8351
_cell_angle_alpha                 90.4944
_cell_angle_beta                  90.9317
_cell_angle_gamma                 90.0073
loop_
_atom_site_label
_atom_site_type_symbol
_atom_site_fract_x
_atom_site_fract_y
_atom_site_fract_z
_atom_site_U_iso_or_equiv
_atom_site_adp_type
_atom_site_occupancy
O1     O     0.10559   0.20487   0.24999   0.00000  Uiso   1.00
O2     O     0.22774   0.12846   0.25000   0.00000  Uiso   1.00
O3     O     0.22774   0.20487   0.25000   0.00000  Uiso   1.00
O4     O     0.10559   0.12846   0.24999   0.00000  Uiso   1.00
C5     C     0.08671   0.16666   0.25011   0.00000  Uiso   1.00
C6     C     0.24662   0.16667   0.24989   0.00000  Uiso   1.00
O7     O     0.16666   0.20489   0.18392   0.00000  Uiso   1.00
O8     O     0.16667   0.12844   0.31607   0.00000  Uiso   1.00
O9     O     0.16667   0.20489   0.31607   0.00000  Uiso   1.00
O10    O     0.16666   0.12844   0.18392   0.00000  Uiso   1.00
C11    C     0.16652   0.16655   0.16355   0.00000  Uiso   1.00
C12    C     0.16681   0.16679   0.33645   0.00000  Uiso   1.00
Zn13   Zn    0.16667   0.21771   0.25000   0.00000  Uiso   1.00
Zn14   Zn    0.16667   0.11563   0.25000   0.00000  Uiso   1.00
C15    C     0.19453   0.19411   0.40763   0.00000  Uiso   1.00
C16    C     0.13880   0.13923   0.09237   0.00000  Uiso   1.00
C17    C     0.16652   0.16692   0.38418   0.00000  Uiso   1.00
C18    C     0.16682   0.16642   0.11582   0.00000  Uiso   1.00
C19    C     0.13852   0.13933   0.40597   0.00000  Uiso   1.00
C20    C     0.19482   0.19400   0.09403   0.00000  Uiso   1.00
C21    C     0.13713   0.13969   0.45255   0.00000  Uiso   1.00
C22    C     0.19620   0.19365   0.04745   0.00000  Uiso   1.00
C23    C     0.16625   0.16684   0.47666   0.00000  Uiso   1.00
C24    C     0.16707   0.16650   0.02334   0.00000  Uiso   1.00
C25    C     0.19476   0.19420   0.45396   0.00000  Uiso   1.00
C26    C     0.13857   0.13914   0.04604   0.00000  Uiso   1.00
C27    C     0.10825   0.11301   0.47567   0.00000  Uiso   1.00
C28    C     0.22507   0.22033   0.02433   0.00000  Uiso   1.00
C29    C     0.10976   0.11259   0.02237   0.00000  Uiso   1.00
C30    C     0.22356   0.22075   0.47763   0.00000  Uiso   1.00
H31    H     0.21695   0.21401   0.38971   0.00000  Uiso   1.00
H32    H     0.11638   0.11933   0.11029   0.00000  Uiso   1.00
H33    H     0.11816   0.11783   0.38608   0.00000  Uiso   1.00
H34    H     0.21518   0.21550   0.11391   0.00000  Uiso   1.00
H35    H     0.08766   0.09226   0.04031   0.00000  Uiso   1.00
H36    H     0.24566   0.24109   0.45969   0.00000  Uiso   1.00
C37    C     0.02127   0.12572   0.24935   0.00000  Uiso   1.00
C38    C     0.31207   0.20761   0.25065   0.00000  Uiso   1.00
C39    C     0.31203   0.12573   0.24892   0.00000  Uiso   1.00
C40    C     0.02131   0.20761   0.25108   0.00000  Uiso   1.00
H41    H     0.03733   0.09376   0.24895   0.00000  Uiso   1.00
H42    H     0.29600   0.23957   0.25105   0.00000  Uiso   1.00
H43    H     0.29593   0.09378   0.24790   0.00000  Uiso   1.00
H44    H     0.03741   0.23956   0.25210   0.00000  Uiso   1.00
C45    C     0.29082   0.16667   0.24975   0.00000  Uiso   1.00
C46    C     0.04251   0.16666   0.25025   0.00000  Uiso   1.00
C47    C     0.18578   0.02428   0.28394   0.00000  Uiso   1.00
C48    C     0.14755   0.30906   0.21606   0.00000  Uiso   1.00
C49    C     0.14769   0.02357   0.21598   0.00000  Uiso   1.00
C50    C     0.18565   0.30977   0.28402   0.00000  Uiso   1.00
N51    N     0.16667   0.28573   0.25000   0.00000  Uiso   1.00
N52    N     0.16667   0.04760   0.25000   0.00000  Uiso   1.00
N53    N     0.07668   0.08714   0.45261   0.00000  Uiso   1.00
O54    O     0.05224   0.10628   0.42330   0.00000  Uiso   1.00
O55    O     0.06711   0.04734   0.46694   0.00000  Uiso   1.00
N56    N     0.25664   0.24621   0.04739   0.00000  Uiso   1.00
O57    O     0.28110   0.22707   0.07669   0.00000  Uiso   1.00
O58    O     0.26618   0.28602   0.03308   0.00000  Uiso   1.00
N59    N     0.20733   0.04805   0.31901   0.00000  Uiso   1.00
O60    O     0.19174   0.04985   0.35895   0.00000  Uiso   1.00
O61    O     0.24562   0.06044   0.31335   0.00000  Uiso   1.00
N62    N     0.12600   0.28528   0.18099   0.00000  Uiso   1.00
O63    O     0.14159   0.28349   0.14105   0.00000  Uiso   1.00
O64    O     0.08771   0.27288   0.18666   0.00000  Uiso   1.00
N65    N     0.12776   0.04655   0.17979   0.00000  Uiso   1.00
O66    O     0.09059   0.06276   0.18480   0.00000  Uiso   1.00
O67    O     0.14297   0.04336   0.13977   0.00000  Uiso   1.00
N68    N     0.20557   0.28678   0.32021   0.00000  Uiso   1.00
O69    O     0.24274   0.27057   0.31520   0.00000  Uiso   1.00
O70    O     0.19036   0.28997   0.36023   0.00000  Uiso   1.00
O71    O     0.43892   0.20487   0.24999   0.00000  Uiso   1.00
O72    O     0.56108   0.12846   0.25000   0.00000  Uiso   1.00
O73    O     0.56108   0.20487   0.25000   0.00000  Uiso   1.00
O74    O     0.43892   0.12846   0.24999   0.00000  Uiso   1.00
C75    C     0.42004   0.16666   0.25011   0.00000  Uiso   1.00
C76    C     0.57996   0.16667   0.24989   0.00000  Uiso   1.00
O77    O     0.49999   0.20489   0.18392   0.00000  Uiso   1.00
O78    O     0.50001   0.12844   0.31607   0.00000  Uiso   1.00
O79    O     0.50001   0.20489   0.31607   0.00000  Uiso   1.00
O80    O     0.49999   0.12844   0.18392   0.00000  Uiso   1.00
C81    C     0.49985   0.16655   0.16355   0.00000  Uiso   1.00
C82    C     0.50015   0.16679   0.33645   0.00000  Uiso   1.00
Zn83   Zn    0.50000   0.21771   0.25000   0.00000  Uiso   1.00
Zn84   Zn    0.50000   0.11563   0.25000   0.00000  Uiso   1.00
C85    C     0.52786   0.19411   0.40763   0.00000  Uiso   1.00
C86    C     0.47213   0.13923   0.09237   0.00000  Uiso   1.00
C87    C     0.49985   0.16692   0.38418   0.00000  Uiso   1.00
C88    C     0.50015   0.16642   0.11582   0.00000  Uiso   1.00
C89    C     0.47185   0.13933   0.40597   0.00000  Uiso   1.00
C90    C     0.52815   0.19400   0.09403   0.00000  Uiso   1.00
C91    C     0.47046   0.13969   0.45255   0.00000  Uiso   1.00
C92    C     0.52953   0.19365   0.04745   0.00000  Uiso   1.00
C93    C     0.49959   0.16684   0.47666   0.00000  Uiso   1.00
C94    C     0.50041   0.16650   0.02334   0.00000  Uiso   1.00
C95    C     0.52810   0.19420   0.45396   0.00000  Uiso   1.00
C96    C     0.47190   0.13914   0.04604   0.00000  Uiso   1.00
C97    C     0.44159   0.11301   0.47567   0.00000  Uiso   1.00
C98    C     0.55841   0.22033   0.02433   0.00000  Uiso   1.00
C99    C     0.44310   0.11259   0.02237   0.00000  Uiso   1.00
C100   C     0.55689   0.22075   0.47763   0.00000  Uiso   1.00
H101   H     0.55029   0.21401   0.38971   0.00000  Uiso   1.00
H102   H     0.44971   0.11933   0.11029   0.00000  Uiso   1.00
H103   H     0.45149   0.11783   0.38608   0.00000  Uiso   1.00
H104   H     0.54851   0.21550   0.11391   0.00000  Uiso   1.00
H105   H     0.42100   0.09226   0.04031   0.00000  Uiso   1.00
H106   H     0.57899   0.24109   0.45969   0.00000  Uiso   1.00
C107   C     0.35460   0.12572   0.24935   0.00000  Uiso   1.00
C108   C     0.64540   0.20761   0.25065   0.00000  Uiso   1.00
C109   C     0.64536   0.12573   0.24892   0.00000  Uiso   1.00
C110   C     0.35464   0.20761   0.25108   0.00000  Uiso   1.00
H111   H     0.37067   0.09376   0.24895   0.00000  Uiso   1.00
H112   H     0.62933   0.23957   0.25105   0.00000  Uiso   1.00
H113   H     0.62926   0.09378   0.24790   0.00000  Uiso   1.00
H114   H     0.37074   0.23956   0.25210   0.00000  Uiso   1.00
C115   C     0.62416   0.16667   0.24975   0.00000  Uiso   1.00
C116   C     0.37584   0.16666   0.25025   0.00000  Uiso   1.00
C117   C     0.51911   0.02428   0.28394   0.00000  Uiso   1.00
C118   C     0.48089   0.30906   0.21606   0.00000  Uiso   1.00
C119   C     0.48102   0.02357   0.21598   0.00000  Uiso   1.00
C120   C     0.51898   0.30977   0.28402   0.00000  Uiso   1.00
N121   N     0.50000   0.28573   0.25000   0.00000  Uiso   1.00
N122   N     0.50000   0.04760   0.25000   0.00000  Uiso   1.00
N123   N     0.41001   0.08714   0.45261   0.00000  Uiso   1.00
O124   O     0.38557   0.10628   0.42330   0.00000  Uiso   1.00
O125   O     0.40045   0.04734   0.46694   0.00000  Uiso   1.00
N126   N     0.58997   0.24621   0.04739   0.00000  Uiso   1.00
O127   O     0.61443   0.22707   0.07669   0.00000  Uiso   1.00
O128   O     0.59951   0.28602   0.03308   0.00000  Uiso   1.00
N129   N     0.54066   0.04805   0.31901   0.00000  Uiso   1.00
O130   O     0.52508   0.04985   0.35895   0.00000  Uiso   1.00
O131   O     0.57896   0.06044   0.31335   0.00000  Uiso   1.00
N132   N     0.45934   0.28528   0.18099   0.00000  Uiso   1.00
O133   O     0.47492   0.28349   0.14105   0.00000  Uiso   1.00
O134   O     0.42105   0.27288   0.18666   0.00000  Uiso   1.00
N135   N     0.46109   0.04655   0.17979   0.00000  Uiso   1.00
O136   O     0.42393   0.06276   0.18480   0.00000  Uiso   1.00
O137   O     0.47631   0.04336   0.13977   0.00000  Uiso   1.00
N138   N     0.53891   0.28678   0.32021   0.00000  Uiso   1.00
O139   O     0.57607   0.27057   0.31520   0.00000  Uiso   1.00
O140   O     0.52369   0.28997   0.36023   0.00000  Uiso   1.00
O141   O     0.77226   0.20487   0.24999   0.00000  Uiso   1.00
O142   O     0.89441   0.12846   0.25000   0.00000  Uiso   1.00
O143   O     0.89441   0.20487   0.25000   0.00000  Uiso   1.00
O144   O     0.77226   0.12846   0.24999   0.00000  Uiso   1.00
C145   C     0.75338   0.16666   0.25011   0.00000  Uiso   1.00
C146   C     0.91329   0.16667   0.24989   0.00000  Uiso   1.00
O147   O     0.83333   0.20489   0.18392   0.00000  Uiso   1.00
O148   O     0.83334   0.12844   0.31607   0.00000  Uiso   1.00
O149   O     0.83334   0.20489   0.31607   0.00000  Uiso   1.00
O150   O     0.83333   0.12844   0.18392   0.00000  Uiso   1.00
C151   C     0.83319   0.16655   0.16355   0.00000  Uiso   1.00
C152   C     0.83348   0.16679   0.33645   0.00000  Uiso   1.00
Zn153  Zn    0.83333   0.21771   0.25000   0.00000  Uiso   1.00
Zn154  Zn    0.83333   0.11563   0.25000   0.00000  Uiso   1.00
C155   C     0.86120   0.19411   0.40763   0.00000  Uiso   1.00
C156   C     0.80547   0.13923   0.09237   0.00000  Uiso   1.00
C157   C     0.83318   0.16692   0.38418   0.00000  Uiso   1.00
C158   C     0.83348   0.16642   0.11582   0.00000  Uiso   1.00
C159   C     0.80518   0.13933   0.40597   0.00000  Uiso   1.00
C160   C     0.86148   0.19400   0.09403   0.00000  Uiso   1.00
C161   C     0.80379   0.13969   0.45255   0.00000  Uiso   1.00
C162   C     0.86287   0.19365   0.04745   0.00000  Uiso   1.00
C163   C     0.83292   0.16684   0.47666   0.00000  Uiso   1.00
C164   C     0.83374   0.16650   0.02334   0.00000  Uiso   1.00
C165   C     0.86143   0.19420   0.45396   0.00000  Uiso   1.00
C166   C     0.80523   0.13914   0.04604   0.00000  Uiso   1.00
C167   C     0.77492   0.11301   0.47567   0.00000  Uiso   1.00
C168   C     0.89174   0.22033   0.02433   0.00000  Uiso   1.00
C169   C     0.77643   0.11259   0.02237   0.00000  Uiso   1.00
C170   C     0.89023   0.22075   0.47763   0.00000  Uiso   1.00
H171   H     0.88362   0.21401   0.38971   0.00000  Uiso   1.00
H172   H     0.78304   0.11933   0.11029   0.00000  Uiso   1.00
H173   H     0.78482   0.11783   0.38608   0.00000  Uiso   1.00
H174   H     0.88184   0.21550   0.11391   0.00000  Uiso   1.00
H175   H     0.75433   0.09226   0.04031   0.00000  Uiso   1.00
H176   H     0.91233   0.24109   0.45969   0.00000  Uiso   1.00
C177   C     0.68793   0.12572   0.24935   0.00000  Uiso   1.00
C178   C     0.97873   0.20761   0.25065   0.00000  Uiso   1.00
C179   C     0.97869   0.12573   0.24892   0.00000  Uiso   1.00
C180   C     0.68797   0.20761   0.25108   0.00000  Uiso   1.00
H181   H     0.70400   0.09376   0.24895   0.00000  Uiso   1.00
H182   H     0.96267   0.23957   0.25105   0.00000  Uiso   1.00
H183   H     0.96259   0.09378   0.24790   0.00000  Uiso   1.00
H184   H     0.70407   0.23956   0.25210   0.00000  Uiso   1.00
C185   C     0.95749   0.16667   0.24975   0.00000  Uiso   1.00
C186   C     0.70918   0.16666   0.25025   0.00000  Uiso   1.00
C187   C     0.85245   0.02428   0.28394   0.00000  Uiso   1.00
C188   C     0.81422   0.30906   0.21606   0.00000  Uiso   1.00
C189   C     0.81435   0.02357   0.21598   0.00000  Uiso   1.00
C190   C     0.85231   0.30977   0.28402   0.00000  Uiso   1.00
N191   N     0.83333   0.28573   0.25000   0.00000  Uiso   1.00
N192   N     0.83333   0.04760   0.25000   0.00000  Uiso   1.00
N193   N     0.74335   0.08714   0.45261   0.00000  Uiso   1.00
O194   O     0.71890   0.10628   0.42330   0.00000  Uiso   1.00
O195   O     0.73378   0.04734   0.46694   0.00000  Uiso   1.00
N196   N     0.92331   0.24621   0.04739   0.00000  Uiso   1.00
O197   O     0.94776   0.22707   0.07669   0.00000  Uiso   1.00
O198   O     0.93285   0.28602   0.03308   0.00000  Uiso   1.00
N199   N     0.87400   0.04805   0.31901   0.00000  Uiso   1.00
O200   O     0.85841   0.04985   0.35895   0.00000  Uiso   1.00
O201   O     0.91229   0.06044   0.31335   0.00000  Uiso   1.00
N202   N     0.79267   0.28528   0.18099   0.00000  Uiso   1.00
O203   O     0.80826   0.28349   0.14105   0.00000  Uiso   1.00
O204   O     0.75438   0.27288   0.18666   0.00000  Uiso   1.00
N205   N     0.79443   0.04655   0.17979   0.00000  Uiso   1.00
O206   O     0.75726   0.06276   0.18480   0.00000  Uiso   1.00
O207   O     0.80964   0.04336   0.13977   0.00000  Uiso   1.00
N208   N     0.87224   0.28678   0.32021   0.00000  Uiso   1.00
O209   O     0.90941   0.27057   0.31520   0.00000  Uiso   1.00
O210   O     0.85703   0.28997   0.36023   0.00000  Uiso   1.00
O211   O     0.10559   0.53821   0.24999   0.00000  Uiso   1.00
O212   O     0.22774   0.46179   0.25000   0.00000  Uiso   1.00
O213   O     0.22774   0.53821   0.25000   0.00000  Uiso   1.00
O214   O     0.10559   0.46179   0.24999   0.00000  Uiso   1.00
C215   C     0.08671   0.50000   0.25011   0.00000  Uiso   1.00
C216   C     0.24662   0.50000   0.24989   0.00000  Uiso   1.00
O217   O     0.16666   0.53823   0.18392   0.00000  Uiso   1.00
O218   O     0.16667   0.46177   0.31607   0.00000  Uiso   1.00
O219   O     0.16667   0.53823   0.31607   0.00000  Uiso   1.00
O220   O     0.16666   0.46177   0.18392   0.00000  Uiso   1.00
C221   C     0.16652   0.49988   0.16355   0.00000  Uiso   1.00
C222   C     0.16681   0.50012   0.33645   0.00000  Uiso   1.00
Zn223  Zn    0.16667   0.55104   0.25000   0.00000  Uiso   1.00
Zn224  Zn    0.16667   0.44896   0.25000   0.00000  Uiso   1.00
C225   C     0.19453   0.52744   0.40763   0.00000  Uiso   1.00
C226   C     0.13880   0.47256   0.09237   0.00000  Uiso   1.00
C227   C     0.16652   0.50025   0.38418   0.00000  Uiso   1.00
C228   C     0.16682   0.49975   0.11582   0.00000  Uiso   1.00
C229   C     0.13852   0.47267   0.40597   0.00000  Uiso   1.00
C230   C     0.19482   0.52733   0.09403   0.00000  Uiso   1.00
C231   C     0.13713   0.47303   0.45255   0.00000  Uiso   1.00
C232   C     0.19620   0.52698   0.04745   0.00000  Uiso   1.00
C233   C     0.16625   0.50017   0.47666   0.00000  Uiso   1.00
C234   C     0.16707   0.49983   0.02334   0.00000  Uiso   1.00
C235   C     0.19476   0.52754   0.45396   0.00000  Uiso   1.00
C236   C     0.13857   0.47247   0.04604   0.00000  Uiso   1.00
C237   C     0.10825   0.44634   0.47567   0.00000  Uiso   1.00
C238   C     0.22507   0.55367   0.02433   0.00000  Uiso   1.00
C239   C     0.10976   0.44593   0.02237   0.00000  Uiso   1.00
C240   C     0.22356   0.55408   0.47763   0.00000  Uiso   1.00
H241   H     0.21695   0.54734   0.38971   0.00000  Uiso   1.00
H242   H     0.11638   0.45266   0.11029   0.00000  Uiso   1.00
H243   H     0.11816   0.45116   0.38608   0.00000  Uiso   1.00
H244   H     0.21518   0.54884   0.11391   0.00000  Uiso   1.00
H245   H     0.08766   0.42559   0.04031   0.00000  Uiso   1.00
H246   H     0.24566   0.57442   0.45969   0.00000  Uiso   1.00
C247   C     0.02127   0.45905   0.24935   0.00000  Uiso   1.00
C248   C     0.31207   0.54095   0.25065   0.00000  Uiso   1.00
C249   C     0.31203   0.45906   0.24892   0.00000  Uiso   1.00
C250   C     0.02131   0.54094   0.25108   0.00000  Uiso   1.00
H251   H     0.03733   0.42709   0.24895   0.00000  Uiso   1.00
H252   H     0.29600   0.57291   0.25105   0.00000  Uiso   1.00
H253   H     0.29593   0.42711   0.24790   0.00000  Uiso   1.00
H254   H     0.03741   0.57289   0.25210   0.00000  Uiso   1.00
C255   C     0.29082   0.50000   0.24975   0.00000  Uiso   1.00
C256   C     0.04251   0.49999   0.25025   0.00000  Uiso   1.00
C257   C     0.18578   0.35761   0.28394   0.00000  Uiso   1.00
C258   C     0.14755   0.64239   0.21606   0.00000  Uiso   1.00
C259   C     0.14769   0.35690   0.21598   0.00000  Uiso   1.00
C260   C     0.18565   0.64310   0.28402   0.00000  Uiso   1.00
N261   N     0.16667   0.61907   0.25000   0.00000  Uiso   1.00
N262   N     0.16667   0.38093   0.25000   0.00000  Uiso   1.00
N263   N     0.07668   0.42047   0.45261   0.00000  Uiso   1.00
O264   O     0.05224   0.43961   0.42330   0.00000  Uiso   1.00
O265   O     0.06711   0.38068   0.46694   0.00000  Uiso   1.00
N266   N     0.25664   0.57955   0.04739   0.00000  Uiso   1.00
O267   O     0.28110   0.56040   0.07669   0.00000  Uiso   1.00
O268   O     0.26618   0.61935   0.03308   0.00000  Uiso   1.00
N269   N     0.20733   0.38138   0.31901   0.00000  Uiso   1.00
O270   O     0.19174   0.38318   0.35895   0.00000  Uiso   1.00
O271   O     0.24562   0.39377   0.31335   0.00000  Uiso   1.00
N272   N     0.12600   0.61862   0.18099   0.00000  Uiso   1.00
O273   O     0.14159   0.61682   0.14105   0.00000  Uiso   1.00
O274   O     0.08771   0.60622   0.18666   0.00000  Uiso   1.00
N275   N     0.12776   0.37989   0.17979   0.00000  Uiso   1.00
O276   O     0.09059   0.39609   0.18480   0.00000  Uiso   1.00
O277   O     0.14297   0.37670   0.13977   0.00000  Uiso   1.00
N278   N     0.20557   0.62011   0.32021   0.00000  Uiso   1.00
O279   O     0.24274   0.60390   0.31520   0.00000  Uiso   1.00
O280   O     0.19036   0.62330   0.36023   0.00000  Uiso   1.00
O281   O     0.43892   0.53821   0.24999   0.00000  Uiso   1.00
O282   O     0.56108   0.46179   0.25000   0.00000  Uiso   1.00
O283   O     0.56108   0.53821   0.25000   0.00000  Uiso   1.00
O284   O     0.43892   0.46179   0.24999   0.00000  Uiso   1.00
C285   C     0.42004   0.50000   0.25011   0.00000  Uiso   1.00
C286   C     0.57996   0.50000   0.24989   0.00000  Uiso   1.00
O287   O     0.49999   0.53823   0.18392   0.00000  Uiso   1.00
O288   O     0.50001   0.46177   0.31607   0.00000  Uiso   1.00
O289   O     0.50001   0.53823   0.31607   0.00000  Uiso   1.00
O290   O     0.49999   0.46177   0.18392   0.00000  Uiso   1.00
C291   C     0.49985   0.49988   0.16355   0.00000  Uiso   1.00
C292   C     0.50015   0.50012   0.33645   0.00000  Uiso   1.00
Zn293  Zn    0.50000   0.55104   0.25000   0.00000  Uiso   1.00
Zn294  Zn    0.50000   0.44896   0.25000   0.00000  Uiso   1.00
C295   C     0.52786   0.52744   0.40763   0.00000  Uiso   1.00
C296   C     0.47213   0.47256   0.09237   0.00000  Uiso   1.00
C297   C     0.49985   0.50025   0.38418   0.00000  Uiso   1.00
C298   C     0.50015   0.49975   0.11582   0.00000  Uiso   1.00
C299   C     0.47185   0.47267   0.40597   0.00000  Uiso   1.00
C300   C     0.52815   0.52733   0.09403   0.00000  Uiso   1.00
C301   C     0.47046   0.47303   0.45255   0.00000  Uiso   1.00
C302   C     0.52953   0.52698   0.04745   0.00000  Uiso   1.00
C303   C     0.49959   0.50017   0.47666   0.00000  Uiso   1.00
C304   C     0.50041   0.49983   0.02334   0.00000  Uiso   1.00
C305   C     0.52810   0.52754   0.45396   0.00000  Uiso   1.00
C306   C     0.47190   0.47247   0.04604   0.00000  Uiso   1.00
C307   C     0.44159   0.44634   0.47567   0.00000  Uiso   1.00
C308   C     0.55841   0.55367   0.02433   0.00000  Uiso   1.00
C309   C     0.44310   0.44593   0.02237   0.00000  Uiso   1.00
C310   C     0.55689   0.55408   0.47763   0.00000  Uiso   1.00
H311   H     0.55029   0.54734   0.38971   0.00000  Uiso   1.00
H312   H     0.44971   0.45266   0.11029   0.00000  Uiso   1.00
H313   H     0.45149   0.45116   0.38608   0.00000  Uiso   1.00
H314   H     0.54851   0.54884   0.11391   0.00000  Uiso   1.00
H315   H     0.42100   0.42559   0.04031   0.00000  Uiso   1.00
H316   H     0.57899   0.57442   0.45969   0.00000  Uiso   1.00
C317   C     0.35460   0.45905   0.24935   0.00000  Uiso   1.00
C318   C     0.64540   0.54095   0.25065   0.00000  Uiso   1.00
C319   C     0.64536   0.45906   0.24892   0.00000  Uiso   1.00
C320   C     0.35464   0.54094   0.25108   0.00000  Uiso   1.00
H321   H     0.37067   0.42709   0.24895   0.00000  Uiso   1.00
H322   H     0.62933   0.57291   0.25105   0.00000  Uiso   1.00
H323   H     0.62926   0.42711   0.24790   0.00000  Uiso   1.00
H324   H     0.37074   0.57289   0.25210   0.00000  Uiso   1.00
C325   C     0.62416   0.50000   0.24975   0.00000  Uiso   1.00
C326   C     0.37584   0.49999   0.25025   0.00000  Uiso   1.00
C327   C     0.51911   0.35761   0.28394   0.00000  Uiso   1.00
C328   C     0.48089   0.64239   0.21606   0.00000  Uiso   1.00
C329   C     0.48102   0.35690   0.21598   0.00000  Uiso   1.00
C330   C     0.51898   0.64310   0.28402   0.00000  Uiso   1.00
N331   N     0.50000   0.61907   0.25000   0.00000  Uiso   1.00
N332   N     0.50000   0.38093   0.25000   0.00000  Uiso   1.00
N333   N     0.41001   0.42047   0.45261   0.00000  Uiso   1.00
O334   O     0.38557   0.43961   0.42330   0.00000  Uiso   1.00
O335   O     0.40045   0.38068   0.46694   0.00000  Uiso   1.00
N336   N     0.58997   0.57955   0.04739   0.00000  Uiso   1.00
O337   O     0.61443   0.56040   0.07669   0.00000  Uiso   1.00
O338   O     0.59951   0.61935   0.03308   0.00000  Uiso   1.00
N339   N     0.54066   0.38138   0.31901   0.00000  Uiso   1.00
O340   O     0.52508   0.38318   0.35895   0.00000  Uiso   1.00
O341   O     0.57896   0.39377   0.31335   0.00000  Uiso   1.00
N342   N     0.45934   0.61862   0.18099   0.00000  Uiso   1.00
O343   O     0.47492   0.61682   0.14105   0.00000  Uiso   1.00
O344   O     0.42105   0.60622   0.18666   0.00000  Uiso   1.00
N345   N     0.46109   0.37989   0.17979   0.00000  Uiso   1.00
O346   O     0.42393   0.39609   0.18480   0.00000  Uiso   1.00
O347   O     0.47631   0.37670   0.13977   0.00000  Uiso   1.00
N348   N     0.53891   0.62011   0.32021   0.00000  Uiso   1.00
O349   O     0.57607   0.60390   0.31520   0.00000  Uiso   1.00
O350   O     0.52369   0.62330   0.36023   0.00000  Uiso   1.00
O351   O     0.77226   0.53821   0.24999   0.00000  Uiso   1.00
O352   O     0.89441   0.46179   0.25000   0.00000  Uiso   1.00
O353   O     0.89441   0.53821   0.25000   0.00000  Uiso   1.00
O354   O     0.77226   0.46179   0.24999   0.00000  Uiso   1.00
C355   C     0.75338   0.50000   0.25011   0.00000  Uiso   1.00
C356   C     0.91329   0.50000   0.24989   0.00000  Uiso   1.00
O357   O     0.83333   0.53823   0.18392   0.00000  Uiso   1.00
O358   O     0.83334   0.46177   0.31607   0.00000  Uiso   1.00
O359   O     0.83334   0.53823   0.31607   0.00000  Uiso   1.00
O360   O     0.83333   0.46177   0.18392   0.00000  Uiso   1.00
C361   C     0.83319   0.49988   0.16355   0.00000  Uiso   1.00
C362   C     0.83348   0.50012   0.33645   0.00000  Uiso   1.00
Zn363  Zn    0.83333   0.55104   0.25000   0.00000  Uiso   1.00
Zn364  Zn    0.83333   0.44896   0.25000   0.00000  Uiso   1.00
C365   C     0.86120   0.52744   0.40763   0.00000  Uiso   1.00
C366   C     0.80547   0.47256   0.09237   0.00000  Uiso   1.00
C367   C     0.83318   0.50025   0.38418   0.00000  Uiso   1.00
C368   C     0.83348   0.49975   0.11582   0.00000  Uiso   1.00
C369   C     0.80518   0.47267   0.40597   0.00000  Uiso   1.00
C370   C     0.86148   0.52733   0.09403   0.00000  Uiso   1.00
C371   C     0.80379   0.47303   0.45255   0.00000  Uiso   1.00
C372   C     0.86287   0.52698   0.04745   0.00000  Uiso   1.00
C373   C     0.83292   0.50017   0.47666   0.00000  Uiso   1.00
C374   C     0.83374   0.49983   0.02334   0.00000  Uiso   1.00
C375   C     0.86143   0.52754   0.45396   0.00000  Uiso   1.00
C376   C     0.80523   0.47247   0.04604   0.00000  Uiso   1.00
C377   C     0.77492   0.44634   0.47567   0.00000  Uiso   1.00
C378   C     0.89174   0.55367   0.02433   0.00000  Uiso   1.00
C379   C     0.77643   0.44593   0.02237   0.00000  Uiso   1.00
C380   C     0.89023   0.55408   0.47763   0.00000  Uiso   1.00
H381   H     0.88362   0.54734   0.38971   0.00000  Uiso   1.00
H382   H     0.78304   0.45266   0.11029   0.00000  Uiso   1.00
H383   H     0.78482   0.45116   0.38608   0.00000  Uiso   1.00
H384   H     0.88184   0.54884   0.11391   0.00000  Uiso   1.00
H385   H     0.75433   0.42559   0.04031   0.00000  Uiso   1.00
H386   H     0.91233   0.57442   0.45969   0.00000  Uiso   1.00
C387   C     0.68793   0.45905   0.24935   0.00000  Uiso   1.00
C388   C     0.97873   0.54095   0.25065   0.00000  Uiso   1.00
C389   C     0.97869   0.45906   0.24892   0.00000  Uiso   1.00
C390   C     0.68797   0.54094   0.25108   0.00000  Uiso   1.00
H391   H     0.70400   0.42709   0.24895   0.00000  Uiso   1.00
H392   H     0.96267   0.57291   0.25105   0.00000  Uiso   1.00
H393   H     0.96259   0.42711   0.24790   0.00000  Uiso   1.00
H394   H     0.70407   0.57289   0.25210   0.00000  Uiso   1.00
C395   C     0.95749   0.50000   0.24975   0.00000  Uiso   1.00
C396   C     0.70918   0.49999   0.25025   0.00000  Uiso   1.00
C397   C     0.85245   0.35761   0.28394   0.00000  Uiso   1.00
C398   C     0.81422   0.64239   0.21606   0.00000  Uiso   1.00
C399   C     0.81435   0.35690   0.21598   0.00000  Uiso   1.00
C400   C     0.85231   0.64310   0.28402   0.00000  Uiso   1.00
N401   N     0.83333   0.61907   0.25000   0.00000  Uiso   1.00
N402   N     0.83333   0.38093   0.25000   0.00000  Uiso   1.00
N403   N     0.74335   0.42047   0.45261   0.00000  Uiso   1.00
O404   O     0.71890   0.43961   0.42330   0.00000  Uiso   1.00
O405   O     0.73378   0.38068   0.46694   0.00000  Uiso   1.00
N406   N     0.92331   0.57955   0.04739   0.00000  Uiso   1.00
O407   O     0.94776   0.56040   0.07669   0.00000  Uiso   1.00
O408   O     0.93285   0.61935   0.03308   0.00000  Uiso   1.00
N409   N     0.87400   0.38138   0.31901   0.00000  Uiso   1.00
O410   O     0.85841   0.38318   0.35895   0.00000  Uiso   1.00
O411   O     0.91229   0.39377   0.31335   0.00000  Uiso   1.00
N412   N     0.79267   0.61862   0.18099   0.00000  Uiso   1.00
O413   O     0.80826   0.61682   0.14105   0.00000  Uiso   1.00
O414   O     0.75438   0.60622   0.18666   0.00000  Uiso   1.00
N415   N     0.79443   0.37989   0.17979   0.00000  Uiso   1.00
O416   O     0.75726   0.39609   0.18480   0.00000  Uiso   1.00
O417   O     0.80964   0.37670   0.13977   0.00000  Uiso   1.00
N418   N     0.87224   0.62011   0.32021   0.00000  Uiso   1.00
O419   O     0.90941   0.60390   0.31520   0.00000  Uiso   1.00
O420   O     0.85703   0.62330   0.36023   0.00000  Uiso   1.00
O421   O     0.10559   0.87154   0.24999   0.00000  Uiso   1.00
O422   O     0.22774   0.79513   0.25000   0.00000  Uiso   1.00
O423   O     0.22774   0.87154   0.25000   0.00000  Uiso   1.00
O424   O     0.10559   0.79513   0.24999   0.00000  Uiso   1.00
C425   C     0.08671   0.83333   0.25011   0.00000  Uiso   1.00
C426   C     0.24662   0.83334   0.24989   0.00000  Uiso   1.00
O427   O     0.16666   0.87156   0.18392   0.00000  Uiso   1.00
O428   O     0.16667   0.79511   0.31607   0.00000  Uiso   1.00
O429   O     0.16667   0.87156   0.31607   0.00000  Uiso   1.00
O430   O     0.16666   0.79511   0.18392   0.00000  Uiso   1.00
C431   C     0.16652   0.83321   0.16355   0.00000  Uiso   1.00
C432   C     0.16681   0.83345   0.33645   0.00000  Uiso   1.00
Zn433  Zn    0.16667   0.88437   0.25000   0.00000  Uiso   1.00
Zn434  Zn    0.16667   0.78229   0.25000   0.00000  Uiso   1.00
C435   C     0.19453   0.86077   0.40763   0.00000  Uiso   1.00
C436   C     0.13880   0.80590   0.09237   0.00000  Uiso   1.00
C437   C     0.16652   0.83358   0.38418   0.00000  Uiso   1.00
C438   C     0.16682   0.83308   0.11582   0.00000  Uiso   1.00
C439   C     0.13852   0.80600   0.40597   0.00000  Uiso   1.00
C440   C     0.19482   0.86067   0.09403   0.00000  Uiso   1.00
C441   C     0.13713   0.80636   0.45255   0.00000  Uiso   1.00
C442   C     0.19620   0.86031   0.04745   0.00000  Uiso   1.00
C443   C     0.16625   0.83350   0.47666   0.00000  Uiso   1.00
C444   C     0.16707   0.83317   0.02334   0.00000  Uiso   1.00
C445   C     0.19476   0.86087   0.45396   0.00000  Uiso   1.00
C446   C     0.13857   0.80580   0.04604   0.00000  Uiso   1.00
C447   C     0.10825   0.77968   0.47567   0.00000  Uiso   1.00
C448   C     0.22507   0.88700   0.02433   0.00000  Uiso   1.00
C449   C     0.10976   0.77926   0.02237   0.00000  Uiso   1.00
C450   C     0.22356   0.88741   0.47763   0.00000  Uiso   1.00
H451   H     0.21695   0.88068   0.38971   0.00000  Uiso   1.00
H452   H     0.11638   0.78599   0.11029   0.00000  Uiso   1.00
H453   H     0.11816   0.78449   0.38608   0.00000  Uiso   1.00
H454   H     0.21518   0.88217   0.11391   0.00000  Uiso   1.00
H455   H     0.08766   0.75892   0.04031   0.00000  Uiso   1.00
H456   H     0.24566   0.90775   0.45969   0.00000  Uiso   1.00
C457   C     0.02127   0.79238   0.24935   0.00000  Uiso   1.00
C458   C     0.31207   0.87428   0.25065   0.00000  Uiso   1.00
C459   C     0.31203   0.79239   0.24892   0.00000  Uiso   1.00
C460   C     0.02131   0.87427   0.25108   0.00000  Uiso   1.00
H461   H     0.03733   0.76043   0.24895   0.00000  Uiso   1.00
H462   H     0.29600   0.90624   0.25105   0.00000  Uiso   1.00
H463   H     0.29593   0.76044   0.24790   0.00000  Uiso   1.00
H464   H     0.03741   0.90622   0.25210   0.00000  Uiso   1.00
C465   C     0.29082   0.83334   0.24975   0.00000  Uiso   1.00
C466   C     0.04251   0.83333   0.25025   0.00000  Uiso   1.00
C467   C     0.18578   0.69094   0.28394   0.00000  Uiso   1.00
C468   C     0.14755   0.97572   0.21606   0.00000  Uiso   1.00
C469   C     0.14769   0.69023   0.21598   0.00000  Uiso   1.00
C470   C     0.18565   0.97643   0.28402   0.00000  Uiso   1.00
N471   N     0.16667   0.95240   0.25000   0.00000  Uiso   1.00
N472   N     0.16667   0.71427   0.25000   0.00000  Uiso   1.00
N473   N     0.07668   0.75380   0.45261   0.00000  Uiso   1.00
O474   O     0.05224   0.77295   0.42330   0.00000  Uiso   1.00
O475   O     0.06711   0.71401   0.46694   0.00000  Uiso   1.00
N476   N     0.25664   0.91288   0.04739   0.00000  Uiso   1.00
O477   O     0.28110   0.89374   0.07669   0.00000  Uiso   1.00
O478   O     0.26618   0.95269   0.03308   0.00000  Uiso   1.00
N479   N     0.20733   0.71472   0.31901   0.00000  Uiso   1.00
O480   O     0.19174   0.71651   0.35895   0.00000  Uiso   1.00
O481   O     0.24562   0.72711   0.31335   0.00000  Uiso   1.00
N482   N     0.12600   0.95195   0.18099   0.00000  Uiso   1.00
O483   O     0.14159   0.95015   0.14105   0.00000  Uiso   1.00
O484   O     0.08771   0.93955   0.18666   0.00000  Uiso   1.00
N485   N     0.12776   0.71322   0.17979   0.00000  Uiso   1.00
O486   O     0.09059   0.72943   0.18480   0.00000  Uiso   1.00
O487   O     0.14297   0.71003   0.13977   0.00000  Uiso   1.00
N488   N     0.20557   0.95345   0.32021   0.00000  Uiso   1.00
O489   O     0.24274   0.93724   0.31520   0.00000  Uiso   1.00
O490   O     0.19036   0.95664   0.36023   0.00000  Uiso   1.00
O491   O     0.43892   0.87154   0.24999   0.00000  Uiso   1.00
O492   O     0.56108   0.79513   0.25000   0.00000  Uiso   1.00
O493   O     0.56108   0.87154   0.25000   0.00000  Uiso   1.00
O494   O     0.43892   0.79513   0.24999   0.00000  Uiso   1.00
C495   C     0.42004   0.83333   0.25011   0.00000  Uiso   1.00
C496   C     0.57996   0.83334   0.24989   0.00000  Uiso   1.00
O497   O     0.49999   0.87156   0.18392   0.00000  Uiso   1.00
O498   O     0.50001   0.79511   0.31607   0.00000  Uiso   1.00
O499   O     0.50001   0.87156   0.31607   0.00000  Uiso   1.00
O500   O     0.49999   0.79511   0.18392   0.00000  Uiso   1.00
C501   C     0.49985   0.83321   0.16355   0.00000  Uiso   1.00
C502   C     0.50015   0.83345   0.33645   0.00000  Uiso   1.00
Zn503  Zn    0.50000   0.88437   0.25000   0.00000  Uiso   1.00
Zn504  Zn    0.50000   0.78229   0.25000   0.00000  Uiso   1.00
C505   C     0.52786   0.86077   0.40763   0.00000  Uiso   1.00
C506   C     0.47213   0.80590   0.09237   0.00000  Uiso   1.00
C507   C     0.49985   0.83358   0.38418   0.00000  Uiso   1.00
C508   C     0.50015   0.83308   0.11582   0.00000  Uiso   1.00
C509   C     0.47185   0.80600   0.40597   0.00000  Uiso   1.00
C510   C     0.52815   0.86067   0.09403   0.00000  Uiso   1.00
C511   C     0.47046   0.80636   0.45255   0.00000  Uiso   1.00
C512   C     0.52953   0.86031   0.04745   0.00000  Uiso   1.00
C513   C     0.49959   0.83350   0.47666   0.00000  Uiso   1.00
C514   C     0.50041   0.83317   0.02334   0.00000  Uiso   1.00
C515   C     0.52810   0.86087   0.45396   0.00000  Uiso   1.00
C516   C     0.47190   0.80580   0.04604   0.00000  Uiso   1.00
C517   C     0.44159   0.77968   0.47567   0.00000  Uiso   1.00
C518   C     0.55841   0.88700   0.02433   0.00000  Uiso   1.00
C519   C     0.44310   0.77926   0.02237   0.00000  Uiso   1.00
C520   C     0.55689   0.88741   0.47763   0.00000  Uiso   1.00
H521   H     0.55029   0.88068   0.38971   0.00000  Uiso   1.00
H522   H     0.44971   0.78599   0.11029   0.00000  Uiso   1.00
H523   H     0.45149   0.78449   0.38608   0.00000  Uiso   1.00
H524   H     0.54851   0.88217   0.11391   0.00000  Uiso   1.00
H525   H     0.42100   0.75892   0.04031   0.00000  Uiso   1.00
H526   H     0.57899   0.90775   0.45969   0.00000  Uiso   1.00
C527   C     0.35460   0.79238   0.24935   0.00000  Uiso   1.00
C528   C     0.64540   0.87428   0.25065   0.00000  Uiso   1.00
C529   C     0.64536   0.79239   0.24892   0.00000  Uiso   1.00
C530   C     0.35464   0.87427   0.25108   0.00000  Uiso   1.00
H531   H     0.37067   0.76043   0.24895   0.00000  Uiso   1.00
H532   H     0.62933   0.90624   0.25105   0.00000  Uiso   1.00
H533   H     0.62926   0.76044   0.24790   0.00000  Uiso   1.00
H534   H     0.37074   0.90622   0.25210   0.00000  Uiso   1.00
C535   C     0.62416   0.83334   0.24975   0.00000  Uiso   1.00
C536   C     0.37584   0.83333   0.25025   0.00000  Uiso   1.00
C537   C     0.51911   0.69094   0.28394   0.00000  Uiso   1.00
C538   C     0.48089   0.97572   0.21606   0.00000  Uiso   1.00
C539   C     0.48102   0.69023   0.21598   0.00000  Uiso   1.00
C540   C     0.51898   0.97643   0.28402   0.00000  Uiso   1.00
N541   N     0.50000   0.95240   0.25000   0.00000  Uiso   1.00
N542   N     0.50000   0.71427   0.25000   0.00000  Uiso   1.00
N543   N     0.41001   0.75380   0.45261   0.00000  Uiso   1.00
O544   O     0.38557   0.77295   0.42330   0.00000  Uiso   1.00
O545   O     0.40045   0.71401   0.46694   0.00000  Uiso   1.00
N546   N     0.58997   0.91288   0.04739   0.00000  Uiso   1.00
O547   O     0.61443   0.89374   0.07669   0.00000  Uiso   1.00
O548   O     0.59951   0.95269   0.03308   0.00000  Uiso   1.00
N549   N     0.54066   0.71472   0.31901   0.00000  Uiso   1.00
O550   O     0.52508   0.71651   0.35895   0.00000  Uiso   1.00
O551   O     0.57896   0.72711   0.31335   0.00000  Uiso   1.00
N552   N     0.45934   0.95195   0.18099   0.00000  Uiso   1.00
O553   O     0.47492   0.95015   0.14105   0.00000  Uiso   1.00
O554   O     0.42105   0.93955   0.18666   0.00000  Uiso   1.00
N555   N     0.46109   0.71322   0.17979   0.00000  Uiso   1.00
O556   O     0.42393   0.72943   0.18480   0.00000  Uiso   1.00
O557   O     0.47631   0.71003   0.13977   0.00000  Uiso   1.00
N558   N     0.53891   0.95345   0.32021   0.00000  Uiso   1.00
O559   O     0.57607   0.93724   0.31520   0.00000  Uiso   1.00
O560   O     0.52369   0.95664   0.36023   0.00000  Uiso   1.00
O561   O     0.77226   0.87154   0.24999   0.00000  Uiso   1.00
O562   O     0.89441   0.79513   0.25000   0.00000  Uiso   1.00
O563   O     0.89441   0.87154   0.25000   0.00000  Uiso   1.00
O564   O     0.77226   0.79513   0.24999   0.00000  Uiso   1.00
C565   C     0.75338   0.83333   0.25011   0.00000  Uiso   1.00
C566   C     0.91329   0.83334   0.24989   0.00000  Uiso   1.00
O567   O     0.83333   0.87156   0.18392   0.00000  Uiso   1.00
O568   O     0.83334   0.79511   0.31607   0.00000  Uiso   1.00
O569   O     0.83334   0.87156   0.31607   0.00000  Uiso   1.00
O570   O     0.83333   0.79511   0.18392   0.00000  Uiso   1.00
C571   C     0.83319   0.83321   0.16355   0.00000  Uiso   1.00
C572   C     0.83348   0.83345   0.33645   0.00000  Uiso   1.00
Zn573  Zn    0.83333   0.88437   0.25000   0.00000  Uiso   1.00
Zn574  Zn    0.83333   0.78229   0.25000   0.00000  Uiso   1.00
C575   C     0.86120   0.86077   0.40763   0.00000  Uiso   1.00
C576   C     0.80547   0.80590   0.09237   0.00000  Uiso   1.00
C577   C     0.83318   0.83358   0.38418   0.00000  Uiso   1.00
C578   C     0.83348   0.83308   0.11582   0.00000  Uiso   1.00
C579   C     0.80518   0.80600   0.40597   0.00000  Uiso   1.00
C580   C     0.86148   0.86067   0.09403   0.00000  Uiso   1.00
C581   C     0.80379   0.80636   0.45255   0.00000  Uiso   1.00
C582   C     0.86287   0.86031   0.04745   0.00000  Uiso   1.00
C583   C     0.83292   0.83350   0.47666   0.00000  Uiso   1.00
C584   C     0.83374   0.83317   0.02334   0.00000  Uiso   1.00
C585   C     0.86143   0.86087   0.45396   0.00000  Uiso   1.00
C586   C     0.80523   0.80580   0.04604   0.00000  Uiso   1.00
C587   C     0.77492   0.77968   0.47567   0.00000  Uiso   1.00
C588   C     0.89174   0.88700   0.02433   0.00000  Uiso   1.00
C589   C     0.77643   0.77926   0.02237   0.00000  Uiso   1.00
C590   C     0.89023   0.88741   0.47763   0.00000  Uiso   1.00
H591   H     0.88362   0.88068   0.38971   0.00000  Uiso   1.00
H592   H     0.78304   0.78599   0.11029   0.00000  Uiso   1.00
H593   H     0.78482   0.78449   0.38608   0.00000  Uiso   1.00
H594   H     0.88184   0.88217   0.11391   0.00000  Uiso   1.00
H595   H     0.75433   0.75892   0.04031   0.00000  Uiso   1.00
H596   H     0.91233   0.90775   0.45969   0.00000  Uiso   1.00
C597   C     0.68793   0.79238   0.24935   0.00000  Uiso   1.00
C598   C     0.97873   0.87428   0.25065   0.00000  Uiso   1.00
C599   C     0.97869   0.79239   0.24892   0.00000  Uiso   1.00
C600   C     0.68797   0.87427   0.25108   0.00000  Uiso   1.00
H601   H     0.70400   0.76043   0.24895   0.00000  Uiso   1.00
H602   H     0.96267   0.90624   0.25105   0.00000  Uiso   1.00
H603   H     0.96259   0.76044   0.24790   0.00000  Uiso   1.00
H604   H     0.70407   0.90622   0.25210   0.00000  Uiso   1.00
C605   C     0.95749   0.83334   0.24975   0.00000  Uiso   1.00
C606   C     0.70918   0.83333   0.25025   0.00000  Uiso   1.00
C607   C     0.85245   0.69094   0.28394   0.00000  Uiso   1.00
C608   C     0.81422   0.97572   0.21606   0.00000  Uiso   1.00
C609   C     0.81435   0.69023   0.21598   0.00000  Uiso   1.00
C610   C     0.85231   0.97643   0.28402   0.00000  Uiso   1.00
N611   N     0.83333   0.95240   0.25000   0.00000  Uiso   1.00
N612   N     0.83333   0.71427   0.25000   0.00000  Uiso   1.00
N613   N     0.74335   0.75380   0.45261   0.00000  Uiso   1.00
O614   O     0.71890   0.77295   0.42330   0.00000  Uiso   1.00
O615   O     0.73378   0.71401   0.46694   0.00000  Uiso   1.00
N616   N     0.92331   0.91288   0.04739   0.00000  Uiso   1.00
O617   O     0.94776   0.89374   0.07669   0.00000  Uiso   1.00
O618   O     0.93285   0.95269   0.03308   0.00000  Uiso   1.00
N619   N     0.87400   0.71472   0.31901   0.00000  Uiso   1.00
O620   O     0.85841   0.71651   0.35895   0.00000  Uiso   1.00
O621   O     0.91229   0.72711   0.31335   0.00000  Uiso   1.00
N622   N     0.79267   0.95195   0.18099   0.00000  Uiso   1.00
O623   O     0.80826   0.95015   0.14105   0.00000  Uiso   1.00
O624   O     0.75438   0.93955   0.18666   0.00000  Uiso   1.00
N625   N     0.79443   0.71322   0.17979   0.00000  Uiso   1.00
O626   O     0.75726   0.72943   0.18480   0.00000  Uiso   1.00
O627   O     0.80964   0.71003   0.13977   0.00000  Uiso   1.00
N628   N     0.87224   0.95345   0.32021   0.00000  Uiso   1.00
O629   O     0.90941   0.93724   0.31520   0.00000  Uiso   1.00
O630   O     0.85703   0.95664   0.36023   0.00000  Uiso   1.00
O631   O     0.10559   0.20487   0.74999   0.00000  Uiso   1.00
O632   O     0.22774   0.12846   0.75000   0.00000  Uiso   1.00
O633   O     0.22774   0.20487   0.75000   0.00000  Uiso   1.00
O634   O     0.10559   0.12846   0.74999   0.00000  Uiso   1.00
C635   C     0.08671   0.16666   0.75011   0.00000  Uiso   1.00
C636   C     0.24662   0.16667   0.74989   0.00000  Uiso   1.00
O637   O     0.16666   0.20489   0.68392   0.00000  Uiso   1.00
O638   O     0.16667   0.12844   0.81607   0.00000  Uiso   1.00
O639   O     0.16667   0.20489   0.81607   0.00000  Uiso   1.00
O640   O     0.16666   0.12844   0.68392   0.00000  Uiso   1.00
C641   C     0.16652   0.16655   0.66355   0.00000  Uiso   1.00
C642   C     0.16681   0.16679   0.83645   0.00000  Uiso   1.00
Zn643  Zn    0.16667   0.21771   0.75000   0.00000  Uiso   1.00
Zn644  Zn    0.16667   0.11563   0.75000   0.00000  Uiso   1.00
C645   C     0.19453   0.19411   0.90763   0.00000  Uiso   1.00
C646   C     0.13880   0.13923   0.59237   0.00000  Uiso   1.00
C647   C     0.16652   0.16692   0.88418   0.00000  Uiso   1.00
C648   C     0.16682   0.16642   0.61582   0.00000  Uiso   1.00
C649   C     0.13852   0.13933   0.90597   0.00000  Uiso   1.00
C650   C     0.19482   0.19400   0.59403   0.00000  Uiso   1.00
C651   C     0.13713   0.13969   0.95255   0.00000  Uiso   1.00
C652   C     0.19620   0.19365   0.54745   0.00000  Uiso   1.00
C653   C     0.16625   0.16684   0.97666   0.00000  Uiso   1.00
C654   C     0.16707   0.16650   0.52334   0.00000  Uiso   1.00
C655   C     0.19476   0.19420   0.95396   0.00000  Uiso   1.00
C656   C     0.13857   0.13914   0.54604   0.00000  Uiso   1.00
C657   C     0.10825   0.11301   0.97567   0.00000  Uiso   1.00
C658   C     0.22507   0.22033   0.52433   0.00000  Uiso   1.00
C659   C     0.10976   0.11259   0.52237   0.00000  Uiso   1.00
C660   C     0.22356   0.22075   0.97763   0.00000  Uiso   1.00
H661   H     0.21695   0.21401   0.88971   0.00000  Uiso   1.00
H662   H     0.11638   0.11933   0.61029   0.00000  Uiso   1.00
H663   H     0.11816   0.11783   0.88608   0.00000  Uiso   1.00
H664   H     0.21518   0.21550   0.61391   0.00000  Uiso   1.00
H665   H     0.08766   0.09226   0.54031   0.00000  Uiso   1.00
H666   H     0.24566   0.24109   0.95969   0.00000  Uiso   1.00
C667   C     0.02127   0.12572   0.74935   0.00000  Uiso   1.00
C668   C     0.31207   0.20761   0.75065   0.00000  Uiso   1.00
C669   C     0.31203   0.12573   0.74892   0.00000  Uiso   1.00
C670   C     0.02131   0.20761   0.75108   0.00000  Uiso   1.00
H671   H     0.03733   0.09376   0.74895   0.00000  Uiso   1.00
H672   H     0.29600   0.23957   0.75105   0.00000  Uiso   1.00
H673   H     0.29593   0.09378   0.74790   0.00000  Uiso   1.00
H674   H     0.03741   0.23956   0.75210   0.00000  Uiso   1.00
C675   C     0.29082   0.16667   0.74975   0.00000  Uiso   1.00
C676   C     0.04251   0.16666   0.75025   0.00000  Uiso   1.00
C677   C     0.18578   0.02428   0.78394   0.00000  Uiso   1.00
C678   C     0.14755   0.30906   0.71606   0.00000  Uiso   1.00
C679   C     0.14769   0.02357   0.71598   0.00000  Uiso   1.00
C680   C     0.18565   0.30977   0.78402   0.00000  Uiso   1.00
N681   N     0.16667   0.28573   0.75000   0.00000  Uiso   1.00
N682   N     0.16667   0.04760   0.75000   0.00000  Uiso   1.00
N683   N     0.07668   0.08714   0.95261   0.00000  Uiso   1.00
O684   O     0.05224   0.10628   0.92330   0.00000  Uiso   1.00
O685   O     0.06711   0.04734   0.96694   0.00000  Uiso   1.00
N686   N     0.25664   0.24621   0.54739   0.00000  Uiso   1.00
O687   O     0.28110   0.22707   0.57669   0.00000  Uiso   1.00
O688   O     0.26618   0.28602   0.53308   0.00000  Uiso   1.00
N689   N     0.20733   0.04805   0.81901   0.00000  Uiso   1.00
O690   O     0.19174   0.04985   0.85895   0.00000  Uiso   1.00
O691   O     0.24562   0.06044   0.81335   0.00000  Uiso   1.00
N692   N     0.12600   0.28528   0.68099   0.00000  Uiso   1.00
O693   O     0.14159   0.28349   0.64105   0.00000  Uiso   1.00
O694   O     0.08771   0.27288   0.68666   0.00000  Uiso   1.00
N695   N     0.12776   0.04655   0.67979   0.00000  Uiso   1.00
O696   O     0.09059   0.06276   0.68480   0.00000  Uiso   1.00
O697   O     0.14297   0.04336   0.63977   0.00000  Uiso   1.00
N698   N     0.20557   0.28678   0.82021   0.00000  Uiso   1.00
O699   O     0.24274   0.27057   0.81520   0.00000  Uiso   1.00
O700   O     0.19036   0.28997   0.86023   0.00000  Uiso   1.00
O701   O     0.43892   0.20487   0.74999   0.00000  Uiso   1.00
O702   O     0.56108   0.12846   0.75000   0.00000  Uiso   1.00
O703   O     0.56108   0.20487   0.75000   0.00000  Uiso   1.00
O704   O     0.43892   0.12846   0.74999   0.00000  Uiso   1.00
C705   C     0.42004   0.16666   0.75011   0.00000  Uiso   1.00
C706   C     0.57996   0.16667   0.74989   0.00000  Uiso   1.00
O707   O     0.49999   0.20489   0.68392   0.00000  Uiso   1.00
O708   O     0.50001   0.12844   0.81607   0.00000  Uiso   1.00
O709   O     0.50001   0.20489   0.81607   0.00000  Uiso   1.00
O710   O     0.49999   0.12844   0.68392   0.00000  Uiso   1.00
C711   C     0.49985   0.16655   0.66355   0.00000  Uiso   1.00
C712   C     0.50015   0.16679   0.83645   0.00000  Uiso   1.00
Zn713  Zn    0.50000   0.21771   0.75000   0.00000  Uiso   1.00
Zn714  Zn    0.50000   0.11563   0.75000   0.00000  Uiso   1.00
C715   C     0.52786   0.19411   0.90763   0.00000  Uiso   1.00
C716   C     0.47213   0.13923   0.59237   0.00000  Uiso   1.00
C717   C     0.49985   0.16692   0.88418   0.00000  Uiso   1.00
C718   C     0.50015   0.16642   0.61582   0.00000  Uiso   1.00
C719   C     0.47185   0.13933   0.90597   0.00000  Uiso   1.00
C720   C     0.52815   0.19400   0.59403   0.00000  Uiso   1.00
C721   C     0.47046   0.13969   0.95255   0.00000  Uiso   1.00
C722   C     0.52953   0.19365   0.54745   0.00000  Uiso   1.00
C723   C     0.49959   0.16684   0.97666   0.00000  Uiso   1.00
C724   C     0.50041   0.16650   0.52334   0.00000  Uiso   1.00
C725   C     0.52810   0.19420   0.95396   0.00000  Uiso   1.00
C726   C     0.47190   0.13914   0.54604   0.00000  Uiso   1.00
C727   C     0.44159   0.11301   0.97567   0.00000  Uiso   1.00
C728   C     0.55841   0.22033   0.52433   0.00000  Uiso   1.00
C729   C     0.44310   0.11259   0.52237   0.00000  Uiso   1.00
C730   C     0.55689   0.22075   0.97763   0.00000  Uiso   1.00
H731   H     0.55029   0.21401   0.88971   0.00000  Uiso   1.00
H732   H     0.44971   0.11933   0.61029   0.00000  Uiso   1.00
H733   H     0.45149   0.11783   0.88608   0.00000  Uiso   1.00
H734   H     0.54851   0.21550   0.61391   0.00000  Uiso   1.00
H735   H     0.42100   0.09226   0.54031   0.00000  Uiso   1.00
H736   H     0.57899   0.24109   0.95969   0.00000  Uiso   1.00
C737   C     0.35460   0.12572   0.74935   0.00000  Uiso   1.00
C738   C     0.64540   0.20761   0.75065   0.00000  Uiso   1.00
C739   C     0.64536   0.12573   0.74892   0.00000  Uiso   1.00
C740   C     0.35464   0.20761   0.75108   0.00000  Uiso   1.00
H741   H     0.37067   0.09376   0.74895   0.00000  Uiso   1.00
H742   H     0.62933   0.23957   0.75105   0.00000  Uiso   1.00
H743   H     0.62926   0.09378   0.74790   0.00000  Uiso   1.00
H744   H     0.37074   0.23956   0.75210   0.00000  Uiso   1.00
C745   C     0.62416   0.16667   0.74975   0.00000  Uiso   1.00
C746   C     0.37584   0.16666   0.75025   0.00000  Uiso   1.00
C747   C     0.51911   0.02428   0.78394   0.00000  Uiso   1.00
C748   C     0.48089   0.30906   0.71606   0.00000  Uiso   1.00
C749   C     0.48102   0.02357   0.71598   0.00000  Uiso   1.00
C750   C     0.51898   0.30977   0.78402   0.00000  Uiso   1.00
N751   N     0.50000   0.28573   0.75000   0.00000  Uiso   1.00
N752   N     0.50000   0.04760   0.75000   0.00000  Uiso   1.00
N753   N     0.41001   0.08714   0.95261   0.00000  Uiso   1.00
O754   O     0.38557   0.10628   0.92330   0.00000  Uiso   1.00
O755   O     0.40045   0.04734   0.96694   0.00000  Uiso   1.00
N756   N     0.58997   0.24621   0.54739   0.00000  Uiso   1.00
O757   O     0.61443   0.22707   0.57669   0.00000  Uiso   1.00
O758   O     0.59951   0.28602   0.53308   0.00000  Uiso   1.00
N759   N     0.54066   0.04805   0.81901   0.00000  Uiso   1.00
O760   O     0.52508   0.04985   0.85895   0.00000  Uiso   1.00
O761   O     0.57896   0.06044   0.81335   0.00000  Uiso   1.00
N762   N     0.45934   0.28528   0.68099   0.00000  Uiso   1.00
O763   O     0.47492   0.28349   0.64105   0.00000  Uiso   1.00
O764   O     0.42105   0.27288   0.68666   0.00000  Uiso   1.00
N765   N     0.46109   0.04655   0.67979   0.00000  Uiso   1.00
O766   O     0.42393   0.06276   0.68480   0.00000  Uiso   1.00
O767   O     0.47631   0.04336   0.63977   0.00000  Uiso   1.00
N768   N     0.53891   0.28678   0.82021   0.00000  Uiso   1.00
O769   O     0.57607   0.27057   0.81520   0.00000  Uiso   1.00
O770   O     0.52369   0.28997   0.86023   0.00000  Uiso   1.00
O771   O     0.77226   0.20487   0.74999   0.00000  Uiso   1.00
O772   O     0.89441   0.12846   0.75000   0.00000  Uiso   1.00
O773   O     0.89441   0.20487   0.75000   0.00000  Uiso   1.00
O774   O     0.77226   0.12846   0.74999   0.00000  Uiso   1.00
C775   C     0.75338   0.16666   0.75011   0.00000  Uiso   1.00
C776   C     0.91329   0.16667   0.74989   0.00000  Uiso   1.00
O777   O     0.83333   0.20489   0.68392   0.00000  Uiso   1.00
O778   O     0.83334   0.12844   0.81607   0.00000  Uiso   1.00
O779   O     0.83334   0.20489   0.81607   0.00000  Uiso   1.00
O780   O     0.83333   0.12844   0.68392   0.00000  Uiso   1.00
C781   C     0.83319   0.16655   0.66355   0.00000  Uiso   1.00
C782   C     0.83348   0.16679   0.83645   0.00000  Uiso   1.00
Zn783  Zn    0.83333   0.21771   0.75000   0.00000  Uiso   1.00
Zn784  Zn    0.83333   0.11563   0.75000   0.00000  Uiso   1.00
C785   C     0.86120   0.19411   0.90763   0.00000  Uiso   1.00
C786   C     0.80547   0.13923   0.59237   0.00000  Uiso   1.00
C787   C     0.83318   0.16692   0.88418   0.00000  Uiso   1.00
C788   C     0.83348   0.16642   0.61582   0.00000  Uiso   1.00
C789   C     0.80518   0.13933   0.90597   0.00000  Uiso   1.00
C790   C     0.86148   0.19400   0.59403   0.00000  Uiso   1.00
C791   C     0.80379   0.13969   0.95255   0.00000  Uiso   1.00
C792   C     0.86287   0.19365   0.54745   0.00000  Uiso   1.00
C793   C     0.83292   0.16684   0.97666   0.00000  Uiso   1.00
C794   C     0.83374   0.16650   0.52334   0.00000  Uiso   1.00
C795   C     0.86143   0.19420   0.95396   0.00000  Uiso   1.00
C796   C     0.80523   0.13914   0.54604   0.00000  Uiso   1.00
C797   C     0.77492   0.11301   0.97567   0.00000  Uiso   1.00
C798   C     0.89174   0.22033   0.52433   0.00000  Uiso   1.00
C799   C     0.77643   0.11259   0.52237   0.00000  Uiso   1.00
C800   C     0.89023   0.22075   0.97763   0.00000  Uiso   1.00
H801   H     0.88362   0.21401   0.88971   0.00000  Uiso   1.00
H802   H     0.78304   0.11933   0.61029   0.00000  Uiso   1.00
H803   H     0.78482   0.11783   0.88608   0.00000  Uiso   1.00
H804   H     0.88184   0.21550   0.61391   0.00000  Uiso   1.00
H805   H     0.75433   0.09226   0.54031   0.00000  Uiso   1.00
H806   H     0.91233   0.24109   0.95969   0.00000  Uiso   1.00
C807   C     0.68793   0.12572   0.74935   0.00000  Uiso   1.00
C808   C     0.97873   0.20761   0.75065   0.00000  Uiso   1.00
C809   C     0.97869   0.12573   0.74892   0.00000  Uiso   1.00
C810   C     0.68797   0.20761   0.75108   0.00000  Uiso   1.00
H811   H     0.70400   0.09376   0.74895   0.00000  Uiso   1.00
H812   H     0.96267   0.23957   0.75105   0.00000  Uiso   1.00
H813   H     0.96259   0.09378   0.74790   0.00000  Uiso   1.00
H814   H     0.70407   0.23956   0.75210   0.00000  Uiso   1.00
C815   C     0.95749   0.16667   0.74975   0.00000  Uiso   1.00
C816   C     0.70918   0.16666   0.75025   0.00000  Uiso   1.00
C817   C     0.85245   0.02428   0.78394   0.00000  Uiso   1.00
C818   C     0.81422   0.30906   0.71606   0.00000  Uiso   1.00
C819   C     0.81435   0.02357   0.71598   0.00000  Uiso   1.00
C820   C     0.85231   0.30977   0.78402   0.00000  Uiso   1.00
N821   N     0.83333   0.28573   0.75000   0.00000  Uiso   1.00
N822   N     0.83333   0.04760   0.75000   0.00000  Uiso   1.00
N823   N     0.74335   0.08714   0.95261   0.00000  Uiso   1.00
O824   O     0.71890   0.10628   0.92330   0.00000  Uiso   1.00
O825   O     0.73378   0.04734   0.96694   0.00000  Uiso   1.00
N826   N     0.92331   0.24621   0.54739   0.00000  Uiso   1.00
O827   O     0.94776   0.22707   0.57669   0.00000  Uiso   1.00
O828   O     0.93285   0.28602   0.53308   0.00000  Uiso   1.00
N829   N     0.87400   0.04805   0.81901   0.00000  Uiso   1.00
O830   O     0.85841   0.04985   0.85895   0.00000  Uiso   1.00
O831   O     0.91229   0.06044   0.81335   0.00000  Uiso   1.00
N832   N     0.79267   0.28528   0.68099   0.00000  Uiso   1.00
O833   O     0.80826   0.28349   0.64105   0.00000  Uiso   1.00
O834   O     0.75438   0.27288   0.68666   0.00000  Uiso   1.00
N835   N     0.79443   0.04655   0.67979   0.00000  Uiso   1.00
O836   O     0.75726   0.06276   0.68480   0.00000  Uiso   1.00
O837   O     0.80964   0.04336   0.63977   0.00000  Uiso   1.00
N838   N     0.87224   0.28678   0.82021   0.00000  Uiso   1.00
O839   O     0.90941   0.27057   0.81520   0.00000  Uiso   1.00
O840   O     0.85703   0.28997   0.86023   0.00000  Uiso   1.00
O841   O     0.10559   0.53821   0.74999   0.00000  Uiso   1.00
O842   O     0.22774   0.46179   0.75000   0.00000  Uiso   1.00
O843   O     0.22774   0.53821   0.75000   0.00000  Uiso   1.00
O844   O     0.10559   0.46179   0.74999   0.00000  Uiso   1.00
C845   C     0.08671   0.50000   0.75011   0.00000  Uiso   1.00
C846   C     0.24662   0.50000   0.74989   0.00000  Uiso   1.00
O847   O     0.16666   0.53823   0.68392   0.00000  Uiso   1.00
O848   O     0.16667   0.46177   0.81607   0.00000  Uiso   1.00
O849   O     0.16667   0.53823   0.81607   0.00000  Uiso   1.00
O850   O     0.16666   0.46177   0.68392   0.00000  Uiso   1.00
C851   C     0.16652   0.49988   0.66355   0.00000  Uiso   1.00
C852   C     0.16681   0.50012   0.83645   0.00000  Uiso   1.00
Zn853  Zn    0.16667   0.55104   0.75000   0.00000  Uiso   1.00
Zn854  Zn    0.16667   0.44896   0.75000   0.00000  Uiso   1.00
C855   C     0.19453   0.52744   0.90763   0.00000  Uiso   1.00
C856   C     0.13880   0.47256   0.59237   0.00000  Uiso   1.00
C857   C     0.16652   0.50025   0.88418   0.00000  Uiso   1.00
C858   C     0.16682   0.49975   0.61582   0.00000  Uiso   1.00
C859   C     0.13852   0.47267   0.90597   0.00000  Uiso   1.00
C860   C     0.19482   0.52733   0.59403   0.00000  Uiso   1.00
C861   C     0.13713   0.47303   0.95255   0.00000  Uiso   1.00
C862   C     0.19620   0.52698   0.54745   0.00000  Uiso   1.00
C863   C     0.16625   0.50017   0.97666   0.00000  Uiso   1.00
C864   C     0.16707   0.49983   0.52334   0.00000  Uiso   1.00
C865   C     0.19476   0.52754   0.95396   0.00000  Uiso   1.00
C866   C     0.13857   0.47247   0.54604   0.00000  Uiso   1.00
C867   C     0.10825   0.44634   0.97567   0.00000  Uiso   1.00
C868   C     0.22507   0.55367   0.52433   0.00000  Uiso   1.00
C869   C     0.10976   0.44593   0.52237   0.00000  Uiso   1.00
C870   C     0.22356   0.55408   0.97763   0.00000  Uiso   1.00
H871   H     0.21695   0.54734   0.88971   0.00000  Uiso   1.00
H872   H     0.11638   0.45266   0.61029   0.00000  Uiso   1.00
H873   H     0.11816   0.45116   0.88608   0.00000  Uiso   1.00
H874   H     0.21518   0.54884   0.61391   0.00000  Uiso   1.00
H875   H     0.08766   0.42559   0.54031   0.00000  Uiso   1.00
H876   H     0.24566   0.57442   0.95969   0.00000  Uiso   1.00
C877   C     0.02127   0.45905   0.74935   0.00000  Uiso   1.00
C878   C     0.31207   0.54095   0.75065   0.00000  Uiso   1.00
C879   C     0.31203   0.45906   0.74892   0.00000  Uiso   1.00
C880   C     0.02131   0.54094   0.75108   0.00000  Uiso   1.00
H881   H     0.03733   0.42709   0.74895   0.00000  Uiso   1.00
H882   H     0.29600   0.57291   0.75105   0.00000  Uiso   1.00
H883   H     0.29593   0.42711   0.74790   0.00000  Uiso   1.00
H884   H     0.03741   0.57289   0.75210   0.00000  Uiso   1.00
C885   C     0.29082   0.50000   0.74975   0.00000  Uiso   1.00
C886   C     0.04251   0.49999   0.75025   0.00000  Uiso   1.00
C887   C     0.18578   0.35761   0.78394   0.00000  Uiso   1.00
C888   C     0.14755   0.64239   0.71606   0.00000  Uiso   1.00
C889   C     0.14769   0.35690   0.71598   0.00000  Uiso   1.00
C890   C     0.18565   0.64310   0.78402   0.00000  Uiso   1.00
N891   N     0.16667   0.61907   0.75000   0.00000  Uiso   1.00
N892   N     0.16667   0.38093   0.75000   0.00000  Uiso   1.00
N893   N     0.07668   0.42047   0.95261   0.00000  Uiso   1.00
O894   O     0.05224   0.43961   0.92330   0.00000  Uiso   1.00
O895   O     0.06711   0.38068   0.96694   0.00000  Uiso   1.00
N896   N     0.25664   0.57955   0.54739   0.00000  Uiso   1.00
O897   O     0.28110   0.56040   0.57669   0.00000  Uiso   1.00
O898   O     0.26618   0.61935   0.53308   0.00000  Uiso   1.00
N899   N     0.20733   0.38138   0.81901   0.00000  Uiso   1.00
O900   O     0.19174   0.38318   0.85895   0.00000  Uiso   1.00
O901   O     0.24562   0.39377   0.81335   0.00000  Uiso   1.00
N902   N     0.12600   0.61862   0.68099   0.00000  Uiso   1.00
O903   O     0.14159   0.61682   0.64105   0.00000  Uiso   1.00
O904   O     0.08771   0.60622   0.68666   0.00000  Uiso   1.00
N905   N     0.12776   0.37989   0.67979   0.00000  Uiso   1.00
O906   O     0.09059   0.39609   0.68480   0.00000  Uiso   1.00
O907   O     0.14297   0.37670   0.63977   0.00000  Uiso   1.00
N908   N     0.20557   0.62011   0.82021   0.00000  Uiso   1.00
O909   O     0.24274   0.60390   0.81520   0.00000  Uiso   1.00
O910   O     0.19036   0.62330   0.86023   0.00000  Uiso   1.00
O911   O     0.43892   0.53821   0.74999   0.00000  Uiso   1.00
O912   O     0.56108   0.46179   0.75000   0.00000  Uiso   1.00
O913   O     0.56108   0.53821   0.75000   0.00000  Uiso   1.00
O914   O     0.43892   0.46179   0.74999   0.00000  Uiso   1.00
C915   C     0.42004   0.50000   0.75011   0.00000  Uiso   1.00
C916   C     0.57996   0.50000   0.74989   0.00000  Uiso   1.00
O917   O     0.49999   0.53823   0.68392   0.00000  Uiso   1.00
O918   O     0.50001   0.46177   0.81607   0.00000  Uiso   1.00
O919   O     0.50001   0.53823   0.81607   0.00000  Uiso   1.00
O920   O     0.49999   0.46177   0.68392   0.00000  Uiso   1.00
C921   C     0.49985   0.49988   0.66355   0.00000  Uiso   1.00
C922   C     0.50015   0.50012   0.83645   0.00000  Uiso   1.00
Zn923  Zn    0.50000   0.55104   0.75000   0.00000  Uiso   1.00
Zn924  Zn    0.50000   0.44896   0.75000   0.00000  Uiso   1.00
C925   C     0.52786   0.52744   0.90763   0.00000  Uiso   1.00
C926   C     0.47213   0.47256   0.59237   0.00000  Uiso   1.00
C927   C     0.49985   0.50025   0.88418   0.00000  Uiso   1.00
C928   C     0.50015   0.49975   0.61582   0.00000  Uiso   1.00
C929   C     0.47185   0.47267   0.90597   0.00000  Uiso   1.00
C930   C     0.52815   0.52733   0.59403   0.00000  Uiso   1.00
C931   C     0.47046   0.47303   0.95255   0.00000  Uiso   1.00
C932   C     0.52953   0.52698   0.54745   0.00000  Uiso   1.00
C933   C     0.49959   0.50017   0.97666   0.00000  Uiso   1.00
C934   C     0.50041   0.49983   0.52334   0.00000  Uiso   1.00
C935   C     0.52810   0.52754   0.95396   0.00000  Uiso   1.00
C936   C     0.47190   0.47247   0.54604   0.00000  Uiso   1.00
C937   C     0.44159   0.44634   0.97567   0.00000  Uiso   1.00
C938   C     0.55841   0.55367   0.52433   0.00000  Uiso   1.00
C939   C     0.44310   0.44593   0.52237   0.00000  Uiso   1.00
C940   C     0.55689   0.55408   0.97763   0.00000  Uiso   1.00
H941   H     0.55029   0.54734   0.88971   0.00000  Uiso   1.00
H942   H     0.44971   0.45266   0.61029   0.00000  Uiso   1.00
H943   H     0.45149   0.45116   0.88608   0.00000  Uiso   1.00
H944   H     0.54851   0.54884   0.61391   0.00000  Uiso   1.00
H945   H     0.42100   0.42559   0.54031   0.00000  Uiso   1.00
H946   H     0.57899   0.57442   0.95969   0.00000  Uiso   1.00
C947   C     0.35460   0.45905   0.74935   0.00000  Uiso   1.00
C948   C     0.64540   0.54095   0.75065   0.00000  Uiso   1.00
C949   C     0.64536   0.45906   0.74892   0.00000  Uiso   1.00
C950   C     0.35464   0.54094   0.75108   0.00000  Uiso   1.00
H951   H     0.37067   0.42709   0.74895   0.00000  Uiso   1.00
H952   H     0.62933   0.57291   0.75105   0.00000  Uiso   1.00
H953   H     0.62926   0.42711   0.74790   0.00000  Uiso   1.00
H954   H     0.37074   0.57289   0.75210   0.00000  Uiso   1.00
C955   C     0.62416   0.50000   0.74975   0.00000  Uiso   1.00
C956   C     0.37584   0.49999   0.75025   0.00000  Uiso   1.00
C957   C     0.51911   0.35761   0.78394   0.00000  Uiso   1.00
C958   C     0.48089   0.64239   0.71606   0.00000  Uiso   1.00
C959   C     0.48102   0.35690   0.71598   0.00000  Uiso   1.00
C960   C     0.51898   0.64310   0.78402   0.00000  Uiso   1.00
N961   N     0.50000   0.61907   0.75000   0.00000  Uiso   1.00
N962   N     0.50000   0.38093   0.75000   0.00000  Uiso   1.00
N963   N     0.41001   0.42047   0.95261   0.00000  Uiso   1.00
O964   O     0.38557   0.43961   0.92330   0.00000  Uiso   1.00
O965   O     0.40045   0.38068   0.96694   0.00000  Uiso   1.00
N966   N     0.58997   0.57955   0.54739   0.00000  Uiso   1.00
O967   O     0.61443   0.56040   0.57669   0.00000  Uiso   1.00
O968   O     0.59951   0.61935   0.53308   0.00000  Uiso   1.00
N969   N     0.54066   0.38138   0.81901   0.00000  Uiso   1.00
O970   O     0.52508   0.38318   0.85895   0.00000  Uiso   1.00
O971   O     0.57896   0.39377   0.81335   0.00000  Uiso   1.00
N972   N     0.45934   0.61862   0.68099   0.00000  Uiso   1.00
O973   O     0.47492   0.61682   0.64105   0.00000  Uiso   1.00
O974   O     0.42105   0.60622   0.68666   0.00000  Uiso   1.00
N975   N     0.46109   0.37989   0.67979   0.00000  Uiso   1.00
O976   O     0.42393   0.39609   0.68480   0.00000  Uiso   1.00
O977   O     0.47631   0.37670   0.63977   0.00000  Uiso   1.00
N978   N     0.53891   0.62011   0.82021   0.00000  Uiso   1.00
O979   O     0.57607   0.60390   0.81520   0.00000  Uiso   1.00
O980   O     0.52369   0.62330   0.86023   0.00000  Uiso   1.00
O981   O     0.77226   0.53821   0.74999   0.00000  Uiso   1.00
O982   O     0.89441   0.46179   0.75000   0.00000  Uiso   1.00
O983   O     0.89441   0.53821   0.75000   0.00000  Uiso   1.00
O984   O     0.77226   0.46179   0.74999   0.00000  Uiso   1.00
C985   C     0.75338   0.50000   0.75011   0.00000  Uiso   1.00
C986   C     0.91329   0.50000   0.74989   0.00000  Uiso   1.00
O987   O     0.83333   0.53823   0.68392   0.00000  Uiso   1.00
O988   O     0.83334   0.46177   0.81607   0.00000  Uiso   1.00
O989   O     0.83334   0.53823   0.81607   0.00000  Uiso   1.00
O990   O     0.83333   0.46177   0.68392   0.00000  Uiso   1.00
C991   C     0.83319   0.49988   0.66355   0.00000  Uiso   1.00
C992   C     0.83348   0.50012   0.83645   0.00000  Uiso   1.00
Zn993  Zn    0.83333   0.55104   0.75000   0.00000  Uiso   1.00
Zn994  Zn    0.83333   0.44896   0.75000   0.00000  Uiso   1.00
C995   C     0.86120   0.52744   0.90763   0.00000  Uiso   1.00
C996   C     0.80547   0.47256   0.59237   0.00000  Uiso   1.00
C997   C     0.83318   0.50025   0.88418   0.00000  Uiso   1.00
C998   C     0.83348   0.49975   0.61582   0.00000  Uiso   1.00
C999   C     0.80518   0.47267   0.90597   0.00000  Uiso   1.00
C1000  C     0.86148   0.52733   0.59403   0.00000  Uiso   1.00
C1001  C     0.80379   0.47303   0.95255   0.00000  Uiso   1.00
C1002  C     0.86287   0.52698   0.54745   0.00000  Uiso   1.00
C1003  C     0.83292   0.50017   0.97666   0.00000  Uiso   1.00
C1004  C     0.83374   0.49983   0.52334   0.00000  Uiso   1.00
C1005  C     0.86143   0.52754   0.95396   0.00000  Uiso   1.00
C1006  C     0.80523   0.47247   0.54604   0.00000  Uiso   1.00
C1007  C     0.77492   0.44634   0.97567   0.00000  Uiso   1.00
C1008  C     0.89174   0.55367   0.52433   0.00000  Uiso   1.00
C1009  C     0.77643   0.44593   0.52237   0.00000  Uiso   1.00
C1010  C     0.89023   0.55408   0.97763   0.00000  Uiso   1.00
H1011  H     0.88362   0.54734   0.88971   0.00000  Uiso   1.00
H1012  H     0.78304   0.45266   0.61029   0.00000  Uiso   1.00
H1013  H     0.78482   0.45116   0.88608   0.00000  Uiso   1.00
H1014  H     0.88184   0.54884   0.61391   0.00000  Uiso   1.00
H1015  H     0.75433   0.42559   0.54031   0.00000  Uiso   1.00
H1016  H     0.91233   0.57442   0.95969   0.00000  Uiso   1.00
C1017  C     0.68793   0.45905   0.74935   0.00000  Uiso   1.00
C1018  C     0.97873   0.54095   0.75065   0.00000  Uiso   1.00
C1019  C     0.97869   0.45906   0.74892   0.00000  Uiso   1.00
C1020  C     0.68797   0.54094   0.75108   0.00000  Uiso   1.00
H1021  H     0.70400   0.42709   0.74895   0.00000  Uiso   1.00
H1022  H     0.96267   0.57291   0.75105   0.00000  Uiso   1.00
H1023  H     0.96259   0.42711   0.74790   0.00000  Uiso   1.00
H1024  H     0.70407   0.57289   0.75210   0.00000  Uiso   1.00
C1025  C     0.95749   0.50000   0.74975   0.00000  Uiso   1.00
C1026  C     0.70918   0.49999   0.75025   0.00000  Uiso   1.00
C1027  C     0.85245   0.35761   0.78394   0.00000  Uiso   1.00
C1028  C     0.81422   0.64239   0.71606   0.00000  Uiso   1.00
C1029  C     0.81435   0.35690   0.71598   0.00000  Uiso   1.00
C1030  C     0.85231   0.64310   0.78402   0.00000  Uiso   1.00
N1031  N     0.83333   0.61907   0.75000   0.00000  Uiso   1.00
N1032  N     0.83333   0.38093   0.75000   0.00000  Uiso   1.00
N1033  N     0.74335   0.42047   0.95261   0.00000  Uiso   1.00
O1034  O     0.71890   0.43961   0.92330   0.00000  Uiso   1.00
O1035  O     0.73378   0.38068   0.96694   0.00000  Uiso   1.00
N1036  N     0.92331   0.57955   0.54739   0.00000  Uiso   1.00
O1037  O     0.94776   0.56040   0.57669   0.00000  Uiso   1.00
O1038  O     0.93285   0.61935   0.53308   0.00000  Uiso   1.00
N1039  N     0.87400   0.38138   0.81901   0.00000  Uiso   1.00
O1040  O     0.85841   0.38318   0.85895   0.00000  Uiso   1.00
O1041  O     0.91229   0.39377   0.81335   0.00000  Uiso   1.00
N1042  N     0.79267   0.61862   0.68099   0.00000  Uiso   1.00
O1043  O     0.80826   0.61682   0.64105   0.00000  Uiso   1.00
O1044  O     0.75438   0.60622   0.68666   0.00000  Uiso   1.00
N1045  N     0.79443   0.37989   0.67979   0.00000  Uiso   1.00
O1046  O     0.75726   0.39609   0.68480   0.00000  Uiso   1.00
O1047  O     0.80964   0.37670   0.63977   0.00000  Uiso   1.00
N1048  N     0.87224   0.62011   0.82021   0.00000  Uiso   1.00
O1049  O     0.90941   0.60390   0.81520   0.00000  Uiso   1.00
O1050  O     0.85703   0.62330   0.86023   0.00000  Uiso   1.00
O1051  O     0.10559   0.87154   0.74999   0.00000  Uiso   1.00
O1052  O     0.22774   0.79513   0.75000   0.00000  Uiso   1.00
O1053  O     0.22774   0.87154   0.75000   0.00000  Uiso   1.00
O1054  O     0.10559   0.79513   0.74999   0.00000  Uiso   1.00
C1055  C     0.08671   0.83333   0.75011   0.00000  Uiso   1.00
C1056  C     0.24662   0.83334   0.74989   0.00000  Uiso   1.00
O1057  O     0.16666   0.87156   0.68392   0.00000  Uiso   1.00
O1058  O     0.16667   0.79511   0.81607   0.00000  Uiso   1.00
O1059  O     0.16667   0.87156   0.81607   0.00000  Uiso   1.00
O1060  O     0.16666   0.79511   0.68392   0.00000  Uiso   1.00
C1061  C     0.16652   0.83321   0.66355   0.00000  Uiso   1.00
C1062  C     0.16681   0.83345   0.83645   0.00000  Uiso   1.00
Zn1063 Zn    0.16667   0.88437   0.75000   0.00000  Uiso   1.00
Zn1064 Zn    0.16667   0.78229   0.75000   0.00000  Uiso   1.00
C1065  C     0.19453   0.86077   0.90763   0.00000  Uiso   1.00
C1066  C     0.13880   0.80590   0.59237   0.00000  Uiso   1.00
C1067  C     0.16652   0.83358   0.88418   0.00000  Uiso   1.00
C1068  C     0.16682   0.83308   0.61582   0.00000  Uiso   1.00
C1069  C     0.13852   0.80600   0.90597   0.00000  Uiso   1.00
C1070  C     0.19482   0.86067   0.59403   0.00000  Uiso   1.00
C1071  C     0.13713   0.80636   0.95255   0.00000  Uiso   1.00
C1072  C     0.19620   0.86031   0.54745   0.00000  Uiso   1.00
C1073  C     0.16625   0.83350   0.97666   0.00000  Uiso   1.00
C1074  C     0.16707   0.83317   0.52334   0.00000  Uiso   1.00
C1075  C     0.19476   0.86087   0.95396   0.00000  Uiso   1.00
C1076  C     0.13857   0.80580   0.54604   0.00000  Uiso   1.00
C1077  C     0.10825   0.77968   0.97567   0.00000  Uiso   1.00
C1078  C     0.22507   0.88700   0.52433   0.00000  Uiso   1.00
C1079  C     0.10976   0.77926   0.52237   0.00000  Uiso   1.00
C1080  C     0.22356   0.88741   0.97763   0.00000  Uiso   1.00
H1081  H     0.21695   0.88068   0.88971   0.00000  Uiso   1.00
H1082  H     0.11638   0.78599   0.61029   0.00000  Uiso   1.00
H1083  H     0.11816   0.78449   0.88608   0.00000  Uiso   1.00
H1084  H     0.21518   0.88217   0.61391   0.00000  Uiso   1.00
H1085  H     0.08766   0.75892   0.54031   0.00000  Uiso   1.00
H1086  H     0.24566   0.90775   0.95969   0.00000  Uiso   1.00
C1087  C     0.02127   0.79238   0.74935   0.00000  Uiso   1.00
C1088  C     0.31207   0.87428   0.75065   0.00000  Uiso   1.00
C1089  C     0.31203   0.79239   0.74892   0.00000  Uiso   1.00
C1090  C     0.02131   0.87427   0.75108   0.00000  Uiso   1.00
H1091  H     0.03733   0.76043   0.74895   0.00000  Uiso   1.00
H1092  H     0.29600   0.90624   0.75105   0.00000  Uiso   1.00
H1093  H     0.29593   0.76044   0.74790   0.00000  Uiso   1.00
H1094  H     0.03741   0.90622   0.75210   0.00000  Uiso   1.00
C1095  C     0.29082   0.83334   0.74975   0.00000  Uiso   1.00
C1096  C     0.04251   0.83333   0.75025   0.00000  Uiso   1.00
C1097  C     0.18578   0.69094   0.78394   0.00000  Uiso   1.00
C1098  C     0.14755   0.97572   0.71606   0.00000  Uiso   1.00
C1099  C     0.14769   0.69023   0.71598   0.00000  Uiso   1.00
C1100  C     0.18565   0.97643   0.78402   0.00000  Uiso   1.00
N1101  N     0.16667   0.95240   0.75000   0.00000  Uiso   1.00
N1102  N     0.16667   0.71427   0.75000   0.00000  Uiso   1.00
N1103  N     0.07668   0.75380   0.95261   0.00000  Uiso   1.00
O1104  O     0.05224   0.77295   0.92330   0.00000  Uiso   1.00
O1105  O     0.06711   0.71401   0.96694   0.00000  Uiso   1.00
N1106  N     0.25664   0.91288   0.54739   0.00000  Uiso   1.00
O1107  O     0.28110   0.89374   0.57669   0.00000  Uiso   1.00
O1108  O     0.26618   0.95269   0.53308   0.00000  Uiso   1.00
N1109  N     0.20733   0.71472   0.81901   0.00000  Uiso   1.00
O1110  O     0.19174   0.71651   0.85895   0.00000  Uiso   1.00
O1111  O     0.24562   0.72711   0.81335   0.00000  Uiso   1.00
N1112  N     0.12600   0.95195   0.68099   0.00000  Uiso   1.00
O1113  O     0.14159   0.95015   0.64105   0.00000  Uiso   1.00
O1114  O     0.08771   0.93955   0.68666   0.00000  Uiso   1.00
N1115  N     0.12776   0.71322   0.67979   0.00000  Uiso   1.00
O1116  O     0.09059   0.72943   0.68480   0.00000  Uiso   1.00
O1117  O     0.14297   0.71003   0.63977   0.00000  Uiso   1.00
N1118  N     0.20557   0.95345   0.82021   0.00000  Uiso   1.00
O1119  O     0.24274   0.93724   0.81520   0.00000  Uiso   1.00
O1120  O     0.19036   0.95664   0.86023   0.00000  Uiso   1.00
O1121  O     0.43892   0.87154   0.74999   0.00000  Uiso   1.00
O1122  O     0.56108   0.79513   0.75000   0.00000  Uiso   1.00
O1123  O     0.56108   0.87154   0.75000   0.00000  Uiso   1.00
O1124  O     0.43892   0.79513   0.74999   0.00000  Uiso   1.00
C1125  C     0.42004   0.83333   0.75011   0.00000  Uiso   1.00
C1126  C     0.57996   0.83334   0.74989   0.00000  Uiso   1.00
O1127  O     0.49999   0.87156   0.68392   0.00000  Uiso   1.00
O1128  O     0.50001   0.79511   0.81607   0.00000  Uiso   1.00
O1129  O     0.50001   0.87156   0.81607   0.00000  Uiso   1.00
O1130  O     0.49999   0.79511   0.68392   0.00000  Uiso   1.00
C1131  C     0.49985   0.83321   0.66355   0.00000  Uiso   1.00
C1132  C     0.50015   0.83345   0.83645   0.00000  Uiso   1.00
Zn1133 Zn    0.50000   0.88437   0.75000   0.00000  Uiso   1.00
Zn1134 Zn    0.50000   0.78229   0.75000   0.00000  Uiso   1.00
C1135  C     0.52786   0.86077   0.90763   0.00000  Uiso   1.00
C1136  C     0.47213   0.80590   0.59237   0.00000  Uiso   1.00
C1137  C     0.49985   0.83358   0.88418   0.00000  Uiso   1.00
C1138  C     0.50015   0.83308   0.61582   0.00000  Uiso   1.00
C1139  C     0.47185   0.80600   0.90597   0.00000  Uiso   1.00
C1140  C     0.52815   0.86067   0.59403   0.00000  Uiso   1.00
C1141  C     0.47046   0.80636   0.95255   0.00000  Uiso   1.00
C1142  C     0.52953   0.86031   0.54745   0.00000  Uiso   1.00
C1143  C     0.49959   0.83350   0.97666   0.00000  Uiso   1.00
C1144  C     0.50041   0.83317   0.52334   0.00000  Uiso   1.00
C1145  C     0.52810   0.86087   0.95396   0.00000  Uiso   1.00
C1146  C     0.47190   0.80580   0.54604   0.00000  Uiso   1.00
C1147  C     0.44159   0.77968   0.97567   0.00000  Uiso   1.00
C1148  C     0.55841   0.88700   0.52433   0.00000  Uiso   1.00
C1149  C     0.44310   0.77926   0.52237   0.00000  Uiso   1.00
C1150  C     0.55689   0.88741   0.97763   0.00000  Uiso   1.00
H1151  H     0.55029   0.88068   0.88971   0.00000  Uiso   1.00
H1152  H     0.44971   0.78599   0.61029   0.00000  Uiso   1.00
H1153  H     0.45149   0.78449   0.88608   0.00000  Uiso   1.00
H1154  H     0.54851   0.88217   0.61391   0.00000  Uiso   1.00
H1155  H     0.42100   0.75892   0.54031   0.00000  Uiso   1.00
H1156  H     0.57899   0.90775   0.95969   0.00000  Uiso   1.00
C1157  C     0.35460   0.79238   0.74935   0.00000  Uiso   1.00
C1158  C     0.64540   0.87428   0.75065   0.00000  Uiso   1.00
C1159  C     0.64536   0.79239   0.74892   0.00000  Uiso   1.00
C1160  C     0.35464   0.87427   0.75108   0.00000  Uiso   1.00
H1161  H     0.37067   0.76043   0.74895   0.00000  Uiso   1.00
H1162  H     0.62933   0.90624   0.75105   0.00000  Uiso   1.00
H1163  H     0.62926   0.76044   0.74790   0.00000  Uiso   1.00
H1164  H     0.37074   0.90622   0.75210   0.00000  Uiso   1.00
C1165  C     0.62416   0.83334   0.74975   0.00000  Uiso   1.00
C1166  C     0.37584   0.83333   0.75025   0.00000  Uiso   1.00
C1167  C     0.51911   0.69094   0.78394   0.00000  Uiso   1.00
C1168  C     0.48089   0.97572   0.71606   0.00000  Uiso   1.00
C1169  C     0.48102   0.69023   0.71598   0.00000  Uiso   1.00
C1170  C     0.51898   0.97643   0.78402   0.00000  Uiso   1.00
N1171  N     0.50000   0.95240   0.75000   0.00000  Uiso   1.00
N1172  N     0.50000   0.71427   0.75000   0.00000  Uiso   1.00
N1173  N     0.41001   0.75380   0.95261   0.00000  Uiso   1.00
O1174  O     0.38557   0.77295   0.92330   0.00000  Uiso   1.00
O1175  O     0.40045   0.71401   0.96694   0.00000  Uiso   1.00
N1176  N     0.58997   0.91288   0.54739   0.00000  Uiso   1.00
O1177  O     0.61443   0.89374   0.57669   0.00000  Uiso   1.00
O1178  O     0.59951   0.95269   0.53308   0.00000  Uiso   1.00
N1179  N     0.54066   0.71472   0.81901   0.00000  Uiso   1.00
O1180  O     0.52508   0.71651   0.85895   0.00000  Uiso   1.00
O1181  O     0.57896   0.72711   0.81335   0.00000  Uiso   1.00
N1182  N     0.45934   0.95195   0.68099   0.00000  Uiso   1.00
O1183  O     0.47492   0.95015   0.64105   0.00000  Uiso   1.00
O1184  O     0.42105   0.93955   0.68666   0.00000  Uiso   1.00
N1185  N     0.46109   0.71322   0.67979   0.00000  Uiso   1.00
O1186  O     0.42393   0.72943   0.68480   0.00000  Uiso   1.00
O1187  O     0.47631   0.71003   0.63977   0.00000  Uiso   1.00
N1188  N     0.53891   0.95345   0.82021   0.00000  Uiso   1.00
O1189  O     0.57607   0.93724   0.81520   0.00000  Uiso   1.00
O1190  O     0.52369   0.95664   0.86023   0.00000  Uiso   1.00
O1191  O     0.77226   0.87154   0.74999   0.00000  Uiso   1.00
O1192  O     0.89441   0.79513   0.75000   0.00000  Uiso   1.00
O1193  O     0.89441   0.87154   0.75000   0.00000  Uiso   1.00
O1194  O     0.77226   0.79513   0.74999   0.00000  Uiso   1.00
C1195  C     0.75338   0.83333   0.75011   0.00000  Uiso   1.00
C1196  C     0.91329   0.83334   0.74989   0.00000  Uiso   1.00
O1197  O     0.83333   0.87156   0.68392   0.00000  Uiso   1.00
O1198  O     0.83334   0.79511   0.81607   0.00000  Uiso   1.00
O1199  O     0.83334   0.87156   0.81607   0.00000  Uiso   1.00
O1200  O     0.83333   0.79511   0.68392   0.00000  Uiso   1.00
C1201  C     0.83319   0.83321   0.66355   0.00000  Uiso   1.00
C1202  C     0.83348   0.83345   0.83645   0.00000  Uiso   1.00
Zn1203 Zn    0.83333   0.88437   0.75000   0.00000  Uiso   1.00
Zn1204 Zn    0.83333   0.78229   0.75000   0.00000  Uiso   1.00
C1205  C     0.86120   0.86077   0.90763   0.00000  Uiso   1.00
C1206  C     0.80547   0.80590   0.59237   0.00000  Uiso   1.00
C1207  C     0.83318   0.83358   0.88418   0.00000  Uiso   1.00
C1208  C     0.83348   0.83308   0.61582   0.00000  Uiso   1.00
C1209  C     0.80518   0.80600   0.90597   0.00000  Uiso   1.00
C1210  C     0.86148   0.86067   0.59403   0.00000  Uiso   1.00
C1211  C     0.80379   0.80636   0.95255   0.00000  Uiso   1.00
C1212  C     0.86287   0.86031   0.54745   0.00000  Uiso   1.00
C1213  C     0.83292   0.83350   0.97666   0.00000  Uiso   1.00
C1214  C     0.83374   0.83317   0.52334   0.00000  Uiso   1.00
C1215  C     0.86143   0.86087   0.95396   0.00000  Uiso   1.00
C1216  C     0.80523   0.80580   0.54604   0.00000  Uiso   1.00
C1217  C     0.77492   0.77968   0.97567   0.00000  Uiso   1.00
C1218  C     0.89174   0.88700   0.52433   0.00000  Uiso   1.00
C1219  C     0.77643   0.77926   0.52237   0.00000  Uiso   1.00
C1220  C     0.89023   0.88741   0.97763   0.00000  Uiso   1.00
H1221  H     0.88362   0.88068   0.88971   0.00000  Uiso   1.00
H1222  H     0.78304   0.78599   0.61029   0.00000  Uiso   1.00
H1223  H     0.78482   0.78449   0.88608   0.00000  Uiso   1.00
H1224  H     0.88184   0.88217   0.61391   0.00000  Uiso   1.00
H1225  H     0.75433   0.75892   0.54031   0.00000  Uiso   1.00
H1226  H     0.91233   0.90775   0.95969   0.00000  Uiso   1.00
C1227  C     0.68793   0.79238   0.74935   0.00000  Uiso   1.00
C1228  C     0.97873   0.87428   0.75065   0.00000  Uiso   1.00
C1229  C     0.97869   0.79239   0.74892   0.00000  Uiso   1.00
C1230  C     0.68797   0.87427   0.75108   0.00000  Uiso   1.00
H1231  H     0.70400   0.76043   0.74895   0.00000  Uiso   1.00
H1232  H     0.96267   0.90624   0.75105   0.00000  Uiso   1.00
H1233  H     0.96259   0.76044   0.74790   0.00000  Uiso   1.00
H1234  H     0.70407   0.90622   0.75210   0.00000  Uiso   1.00
C1235  C     0.95749   0.83334   0.74975   0.00000  Uiso   1.00
C1236  C     0.70918   0.83333   0.75025   0.00000  Uiso   1.00
C1237  C     0.85245   0.69094   0.78394   0.00000  Uiso   1.00
C1238  C     0.81422   0.97572   0.71606   0.00000  Uiso   1.00
C1239  C     0.81435   0.69023   0.71598   0.00000  Uiso   1.00
C1240  C     0.85231   0.97643   0.78402   0.00000  Uiso   1.00
N1241  N     0.83333   0.95240   0.75000   0.00000  Uiso   1.00
N1242  N     0.83333   0.71427   0.75000   0.00000  Uiso   1.00
N1243  N     0.74335   0.75380   0.95261   0.00000  Uiso   1.00
O1244  O     0.71890   0.77295   0.92330   0.00000  Uiso   1.00
O1245  O     0.73378   0.71401   0.96694   0.00000  Uiso   1.00
N1246  N     0.92331   0.91288   0.54739   0.00000  Uiso   1.00
O1247  O     0.94776   0.89374   0.57669   0.00000  Uiso   1.00
O1248  O     0.93285   0.95269   0.53308   0.00000  Uiso   1.00
N1249  N     0.87400   0.71472   0.81901   0.00000  Uiso   1.00
O1250  O     0.85841   0.71651   0.85895   0.00000  Uiso   1.00
O1251  O     0.91229   0.72711   0.81335   0.00000  Uiso   1.00
N1252  N     0.79267   0.95195   0.68099   0.00000  Uiso   1.00
O1253  O     0.80826   0.95015   0.64105   0.00000  Uiso   1.00
O1254  O     0.75438   0.93955   0.68666   0.00000  Uiso   1.00
N1255  N     0.79443   0.71322   0.67979   0.00000  Uiso   1.00
O1256  O     0.75726   0.72943   0.68480   0.00000  Uiso   1.00
O1257  O     0.80964   0.71003   0.63977   0.00000  Uiso   1.00
N1258  N     0.87224   0.95345   0.82021   0.00000  Uiso   1.00
O1259  O     0.90941   0.93724   0.81520   0.00000  Uiso   1.00
O1260  O     0.85703   0.95664   0.86023   0.00000  Uiso   1.00
loop_
_geom_bond_atom_site_label_1
_geom_bond_atom_site_label_2
_geom_bond_distance
_geom_bond_site_symmetry_2
_ccdc_geom_bond_type
O1     C5      1.290   .     A
O1     Zn13    2.001   .     S
O2     Zn14    2.001   .     S
O2     C6      1.290   .     A
O3     Zn13    2.001   .     S
O3     C6      1.290   .     A
O4     Zn14    2.001   .     S
O4     C5      1.290   .     A
C5     C46     1.422   .     S
C6     C45     1.422   .     S
O7     Zn13    2.005   .     S
O7     C11     1.289   .     A
O8     C12     1.289   .     A
O8     Zn14    2.005   .     S
O9     C12     1.292   .     A
O9     Zn13    2.011   .     S
O10    C11     1.292   .     A
O10    Zn14    2.011   .     S
C11    C18     1.424   .     S
C12    C17     1.424   .     S
Zn13   N51     2.026   .     S
Zn14   N52     2.026   .     S
C15    H31     1.084   .     S
C15    C25     1.382   .     A
C15    C17     1.388   .     A
C16    C26     1.382   .     A
C16    C18     1.388   .     A
C16    H32     1.084   .     S
C17    C19     1.391   .     A
C18    C20     1.391   .     A
C19    C21     1.391   .     A
C19    H33     1.082   .     S
C20    C22     1.391   .     A
C20    H34     1.082   .     S
C21    C27     1.414   .     A
C21    C23     1.420   .     A
C22    C28     1.414   .     A
C22    C24     1.420   .     A
C23    C25     1.412   .     A
C23    C654    1.393   .     S
C24    C26     1.412   .     A
C24    C653    1.393   1_554 S
C25    C30     1.396   .     A
C26    C29     1.396   .     A
C27    N53     1.437   .     S
C27    C659    1.394   .     S
C28    N56     1.437   .     S
C28    C660    1.394   1_554 S
C29    H35     1.085   .     S
C29    C657    1.394   1_554 S
C30    H36     1.085   .     S
C30    C658    1.394   .     S
C37    H41     1.083   .     S
C37    C46     1.397   .     A
C37    C179    1.369   1_455 S
C38    H42     1.083   .     S
C38    C45     1.397   .     A
C38    C110    1.369   .     S
C39    H43     1.083   .     S
C39    C45     1.397   .     A
C39    C107    1.369   .     S
C40    C46     1.397   .     A
C40    H44     1.083   .     S
C40    C178    1.369   1_455 S
C47    N52     1.370   .     A
C47    N59     1.428   .     S
C47    C470    1.425   1_545 S
C48    N62     1.428   .     S
C48    N51     1.370   .     A
C48    C259    1.425   .     S
C49    N52     1.372   .     A
C49    N65     1.427   .     S
C49    C468    1.425   1_545 S
C50    N51     1.372   .     A
C50    N68     1.427   .     S
C50    C257    1.425   .     S
N53    O54     1.302   .     A
N53    O55     1.302   .     A
N56    O58     1.302   .     A
N56    O57     1.302   .     A
N59    O60     1.301   .     A
N59    O61     1.300   .     A
N62    O63     1.301   .     A
N62    O64     1.300   .     A
N65    O66     1.300   .     A
N65    O67     1.301   .     A
N68    O70     1.301   .     A
N68    O69     1.300   .     A
O71    C75     1.290   .     A
O71    Zn83    2.001   .     S
O72    Zn84    2.001   .     S
O72    C76     1.290   .     A
O73    Zn83    2.001   .     S
O73    C76     1.290   .     A
O74    Zn84    2.001   .     S
O74    C75     1.290   .     A
C75    C116    1.422   .     S
C76    C115    1.422   .     S
O77    Zn83    2.005   .     S
O77    C81     1.289   .     A
O78    C82     1.289   .     A
O78    Zn84    2.005   .     S
O79    C82     1.292   .     A
O79    Zn83    2.011   .     S
O80    C81     1.292   .     A
O80    Zn84    2.011   .     S
C81    C88     1.424   .     S
C82    C87     1.424   .     S
Zn83   N121    2.026   .     S
Zn84   N122    2.026   .     S
C85    H101    1.084   .     S
C85    C95     1.382   .     A
C85    C87     1.388   .     A
C86    C96     1.382   .     A
C86    C88     1.388   .     A
C86    H102    1.084   .     S
C87    C89     1.391   .     A
C88    C90     1.391   .     A
C89    C91     1.391   .     A
C89    H103    1.082   .     S
C90    C92     1.391   .     A
C90    H104    1.082   .     S
C91    C97     1.414   .     A
C91    C93     1.420   .     A
C92    C98     1.414   .     A
C92    C94     1.420   .     A
C93    C95     1.412   .     A
C93    C724    1.393   .     S
C94    C96     1.412   .     A
C94    C723    1.393   1_554 S
C95    C100    1.396   .     A
C96    C99     1.396   .     A
C97    N123    1.437   .     S
C97    C729    1.394   .     S
C98    N126    1.437   .     S
C98    C730    1.394   1_554 S
C99    H105    1.085   .     S
C99    C727    1.394   1_554 S
C100   H106    1.085   .     S
C100   C728    1.394   .     S
C107   H111    1.083   .     S
C107   C116    1.397   .     A
C108   H112    1.083   .     S
C108   C115    1.397   .     A
C108   C180    1.369   .     S
C109   H113    1.083   .     S
C109   C115    1.397   .     A
C109   C177    1.369   .     S
C110   C116    1.397   .     A
C110   H114    1.083   .     S
C117   N122    1.370   .     A
C117   N129    1.428   .     S
C117   C540    1.425   1_545 S
C118   N132    1.428   .     S
C118   N121    1.370   .     A
C118   C329    1.425   .     S
C119   N122    1.372   .     A
C119   N135    1.427   .     S
C119   C538    1.425   1_545 S
C120   N121    1.372   .     A
C120   N138    1.427   .     S
C120   C327    1.425   .     S
N123   O124    1.302   .     A
N123   O125    1.302   .     A
N126   O128    1.302   .     A
N126   O127    1.302   .     A
N129   O130    1.301   .     A
N129   O131    1.300   .     A
N132   O133    1.301   .     A
N132   O134    1.300   .     A
N135   O136    1.300   .     A
N135   O137    1.301   .     A
N138   O140    1.301   .     A
N138   O139    1.300   .     A
O141   C145    1.290   .     A
O141   Zn153   2.001   .     S
O142   Zn154   2.001   .     S
O142   C146    1.290   .     A
O143   Zn153   2.001   .     S
O143   C146    1.290   .     A
O144   Zn154   2.001   .     S
O144   C145    1.290   .     A
C145   C186    1.422   .     S
C146   C185    1.422   .     S
O147   Zn153   2.005   .     S
O147   C151    1.289   .     A
O148   C152    1.289   .     A
O148   Zn154   2.005   .     S
O149   C152    1.292   .     A
O149   Zn153   2.011   .     S
O150   C151    1.292   .     A
O150   Zn154   2.011   .     S
C151   C158    1.424   .     S
C152   C157    1.424   .     S
Zn153  N191    2.026   .     S
Zn154  N192    2.026   .     S
C155   H171    1.084   .     S
C155   C165    1.382   .     A
C155   C157    1.388   .     A
C156   C166    1.382   .     A
C156   C158    1.388   .     A
C156   H172    1.084   .     S
C157   C159    1.391   .     A
C158   C160    1.391   .     A
C159   C161    1.391   .     A
C159   H173    1.082   .     S
C160   C162    1.391   .     A
C160   H174    1.082   .     S
C161   C167    1.414   .     A
C161   C163    1.420   .     A
C162   C168    1.414   .     A
C162   C164    1.420   .     A
C163   C165    1.412   .     A
C163   C794    1.393   .     S
C164   C166    1.412   .     A
C164   C793    1.393   1_554 S
C165   C170    1.396   .     A
C166   C169    1.396   .     A
C167   N193    1.437   .     S
C167   C799    1.394   .     S
C168   N196    1.437   .     S
C168   C800    1.394   1_554 S
C169   H175    1.085   .     S
C169   C797    1.394   1_554 S
C170   H176    1.085   .     S
C170   C798    1.394   .     S
C177   H181    1.083   .     S
C177   C186    1.397   .     A
C178   H182    1.083   .     S
C178   C185    1.397   .     A
C178   C40     1.369   1_655 S
C179   H183    1.083   .     S
C179   C185    1.397   .     A
C179   C37     1.369   1_655 S
C180   C186    1.397   .     A
C180   H184    1.083   .     S
C187   N192    1.370   .     A
C187   N199    1.428   .     S
C187   C610    1.425   1_545 S
C188   N202    1.428   .     S
C188   N191    1.370   .     A
C188   C399    1.425   .     S
C189   N192    1.372   .     A
C189   N205    1.427   .     S
C189   C608    1.425   1_545 S
C190   N191    1.372   .     A
C190   N208    1.427   .     S
C190   C397    1.425   .     S
N193   O194    1.302   .     A
N193   O195    1.302   .     A
N196   O198    1.302   .     A
N196   O197    1.302   .     A
N199   O200    1.301   .     A
N199   O201    1.300   .     A
N202   O203    1.301   .     A
N202   O204    1.300   .     A
N205   O206    1.300   .     A
N205   O207    1.301   .     A
N208   O210    1.301   .     A
N208   O209    1.300   .     A
O211   C215    1.290   .     A
O211   Zn223   2.001   .     S
O212   Zn224   2.001   .     S
O212   C216    1.290   .     A
O213   Zn223   2.001   .     S
O213   C216    1.290   .     A
O214   Zn224   2.001   .     S
O214   C215    1.290   .     A
C215   C256    1.422   .     S
C216   C255    1.422   .     S
O217   Zn223   2.005   .     S
O217   C221    1.289   .     A
O218   C222    1.289   .     A
O218   Zn224   2.005   .     S
O219   C222    1.292   .     A
O219   Zn223   2.011   .     S
O220   C221    1.292   .     A
O220   Zn224   2.011   .     S
C221   C228    1.424   .     S
C222   C227    1.424   .     S
Zn223  N261    2.026   .     S
Zn224  N262    2.026   .     S
C225   H241    1.084   .     S
C225   C235    1.382   .     A
C225   C227    1.388   .     A
C226   C236    1.382   .     A
C226   C228    1.388   .     A
C226   H242    1.084   .     S
C227   C229    1.391   .     A
C228   C230    1.391   .     A
C229   C231    1.391   .     A
C229   H243    1.082   .     S
C230   C232    1.391   .     A
C230   H244    1.082   .     S
C231   C237    1.414   .     A
C231   C233    1.420   .     A
C232   C238    1.414   .     A
C232   C234    1.420   .     A
C233   C235    1.412   .     A
C233   C864    1.393   .     S
C234   C236    1.412   .     A
C234   C863    1.393   1_554 S
C235   C240    1.396   .     A
C236   C239    1.396   .     A
C237   N263    1.437   .     S
C237   C869    1.394   .     S
C238   N266    1.437   .     S
C238   C870    1.394   1_554 S
C239   H245    1.085   .     S
C239   C867    1.394   1_554 S
C240   H246    1.085   .     S
C240   C868    1.394   .     S
C247   H251    1.083   .     S
C247   C256    1.397   .     A
C247   C389    1.369   1_455 S
C248   H252    1.083   .     S
C248   C255    1.397   .     A
C248   C320    1.369   .     S
C249   H253    1.083   .     S
C249   C255    1.397   .     A
C249   C317    1.369   .     S
C250   C256    1.397   .     A
C250   H254    1.083   .     S
C250   C388    1.369   1_455 S
C257   N262    1.370   .     A
C257   N269    1.428   .     S
C258   N272    1.428   .     S
C258   N261    1.370   .     A
C258   C469    1.425   .     S
C259   N262    1.372   .     A
C259   N275    1.427   .     S
C260   N261    1.372   .     A
C260   N278    1.427   .     S
C260   C467    1.425   .     S
N263   O264    1.302   .     A
N263   O265    1.302   .     A
N266   O268    1.302   .     A
N266   O267    1.302   .     A
N269   O270    1.301   .     A
N269   O271    1.300   .     A
N272   O273    1.301   .     A
N272   O274    1.300   .     A
N275   O276    1.300   .     A
N275   O277    1.301   .     A
N278   O280    1.301   .     A
N278   O279    1.300   .     A
O281   C285    1.290   .     A
O281   Zn293   2.001   .     S
O282   Zn294   2.001   .     S
O282   C286    1.290   .     A
O283   Zn293   2.001   .     S
O283   C286    1.290   .     A
O284   Zn294   2.001   .     S
O284   C285    1.290   .     A
C285   C326    1.422   .     S
C286   C325    1.422   .     S
O287   Zn293   2.005   .     S
O287   C291    1.289   .     A
O288   C292    1.289   .     A
O288   Zn294   2.005   .     S
O289   C292    1.292   .     A
O289   Zn293   2.011   .     S
O290   C291    1.292   .     A
O290   Zn294   2.011   .     S
C291   C298    1.424   .     S
C292   C297    1.424   .     S
Zn293  N331    2.026   .     S
Zn294  N332    2.026   .     S
C295   H311    1.084   .     S
C295   C305    1.382   .     A
C295   C297    1.388   .     A
C296   C306    1.382   .     A
C296   C298    1.388   .     A
C296   H312    1.084   .     S
C297   C299    1.391   .     A
C298   C300    1.391   .     A
C299   C301    1.391   .     A
C299   H313    1.082   .     S
C300   C302    1.391   .     A
C300   H314    1.082   .     S
C301   C307    1.414   .     A
C301   C303    1.420   .     A
C302   C308    1.414   .     A
C302   C304    1.420   .     A
C303   C305    1.412   .     A
C303   C934    1.393   .     S
C304   C306    1.412   .     A
C304   C933    1.393   1_554 S
C305   C310    1.396   .     A
C306   C309    1.396   .     A
C307   N333    1.437   .     S
C307   C939    1.394   .     S
C308   N336    1.437   .     S
C308   C940    1.394   1_554 S
C309   H315    1.085   .     S
C309   C937    1.394   1_554 S
C310   H316    1.085   .     S
C310   C938    1.394   .     S
C317   H321    1.083   .     S
C317   C326    1.397   .     A
C318   H322    1.083   .     S
C318   C325    1.397   .     A
C318   C390    1.369   .     S
C319   H323    1.083   .     S
C319   C325    1.397   .     A
C319   C387    1.369   .     S
C320   C326    1.397   .     A
C320   H324    1.083   .     S
C327   N332    1.370   .     A
C327   N339    1.428   .     S
C328   N342    1.428   .     S
C328   N331    1.370   .     A
C328   C539    1.425   .     S
C329   N332    1.372   .     A
C329   N345    1.427   .     S
C330   N331    1.372   .     A
C330   N348    1.427   .     S
C330   C537    1.425   .     S
N333   O334    1.302   .     A
N333   O335    1.302   .     A
N336   O338    1.302   .     A
N336   O337    1.302   .     A
N339   O340    1.301   .     A
N339   O341    1.300   .     A
N342   O343    1.301   .     A
N342   O344    1.300   .     A
N345   O346    1.300   .     A
N345   O347    1.301   .     A
N348   O350    1.301   .     A
N348   O349    1.300   .     A
O351   C355    1.290   .     A
O351   Zn363   2.001   .     S
O352   Zn364   2.001   .     S
O352   C356    1.290   .     A
O353   Zn363   2.001   .     S
O353   C356    1.290   .     A
O354   Zn364   2.001   .     S
O354   C355    1.290   .     A
C355   C396    1.422   .     S
C356   C395    1.422   .     S
O357   Zn363   2.005   .     S
O357   C361    1.289   .     A
O358   C362    1.289   .     A
O358   Zn364   2.005   .     S
O359   C362    1.292   .     A
O359   Zn363   2.011   .     S
O360   C361    1.292   .     A
O360   Zn364   2.011   .     S
C361   C368    1.424   .     S
C362   C367    1.424   .     S
Zn363  N401    2.026   .     S
Zn364  N402    2.026   .     S
C365   H381    1.084   .     S
C365   C375    1.382   .     A
C365   C367    1.388   .     A
C366   C376    1.382   .     A
C366   C368    1.388   .     A
C366   H382    1.084   .     S
C367   C369    1.391   .     A
C368   C370    1.391   .     A
C369   C371    1.391   .     A
C369   H383    1.082   .     S
C370   C372    1.391   .     A
C370   H384    1.082   .     S
C371   C377    1.414   .     A
C371   C373    1.420   .     A
C372   C378    1.414   .     A
C372   C374    1.420   .     A
C373   C375    1.412   .     A
C373   C1004   1.393   .     S
C374   C376    1.412   .     A
C374   C1003   1.393   1_554 S
C375   C380    1.396   .     A
C376   C379    1.396   .     A
C377   N403    1.437   .     S
C377   C1009   1.394   .     S
C378   N406    1.437   .     S
C378   C1010   1.394   1_554 S
C379   H385    1.085   .     S
C379   C1007   1.394   1_554 S
C380   H386    1.085   .     S
C380   C1008   1.394   .     S
C387   H391    1.083   .     S
C387   C396    1.397   .     A
C388   H392    1.083   .     S
C388   C395    1.397   .     A
C388   C250    1.369   1_655 S
C389   H393    1.083   .     S
C389   C395    1.397   .     A
C389   C247    1.369   1_655 S
C390   C396    1.397   .     A
C390   H394    1.083   .     S
C397   N402    1.370   .     A
C397   N409    1.428   .     S
C398   N412    1.428   .     S
C398   N401    1.370   .     A
C398   C609    1.425   .     S
C399   N402    1.372   .     A
C399   N415    1.427   .     S
C400   N401    1.372   .     A
C400   N418    1.427   .     S
C400   C607    1.425   .     S
N403   O404    1.302   .     A
N403   O405    1.302   .     A
N406   O408    1.302   .     A
N406   O407    1.302   .     A
N409   O410    1.301   .     A
N409   O411    1.300   .     A
N412   O413    1.301   .     A
N412   O414    1.300   .     A
N415   O416    1.300   .     A
N415   O417    1.301   .     A
N418   O420    1.301   .     A
N418   O419    1.300   .     A
O421   C425    1.290   .     A
O421   Zn433   2.001   .     S
O422   Zn434   2.001   .     S
O422   C426    1.290   .     A
O423   Zn433   2.001   .     S
O423   C426    1.290   .     A
O424   Zn434   2.001   .     S
O424   C425    1.290   .     A
C425   C466    1.422   .     S
C426   C465    1.422   .     S
O427   Zn433   2.005   .     S
O427   C431    1.289   .     A
O428   C432    1.289   .     A
O428   Zn434   2.005   .     S
O429   C432    1.292   .     A
O429   Zn433   2.011   .     S
O430   C431    1.292   .     A
O430   Zn434   2.011   .     S
C431   C438    1.424   .     S
C432   C437    1.424   .     S
Zn433  N471    2.026   .     S
Zn434  N472    2.026   .     S
C435   H451    1.084   .     S
C435   C445    1.382   .     A
C435   C437    1.388   .     A
C436   C446    1.382   .     A
C436   C438    1.388   .     A
C436   H452    1.084   .     S
C437   C439    1.391   .     A
C438   C440    1.391   .     A
C439   C441    1.391   .     A
C439   H453    1.082   .     S
C440   C442    1.391   .     A
C440   H454    1.082   .     S
C441   C447    1.414   .     A
C441   C443    1.420   .     A
C442   C448    1.414   .     A
C442   C444    1.420   .     A
C443   C445    1.412   .     A
C443   C1074   1.393   .     S
C444   C446    1.412   .     A
C444   C1073   1.393   1_554 S
C445   C450    1.396   .     A
C446   C449    1.396   .     A
C447   N473    1.437   .     S
C447   C1079   1.394   .     S
C448   N476    1.437   .     S
C448   C1080   1.394   1_554 S
C449   H455    1.085   .     S
C449   C1077   1.394   1_554 S
C450   H456    1.085   .     S
C450   C1078   1.394   .     S
C457   H461    1.083   .     S
C457   C466    1.397   .     A
C457   C599    1.369   1_455 S
C458   H462    1.083   .     S
C458   C465    1.397   .     A
C458   C530    1.369   .     S
C459   H463    1.083   .     S
C459   C465    1.397   .     A
C459   C527    1.369   .     S
C460   C466    1.397   .     A
C460   H464    1.083   .     S
C460   C598    1.369   1_455 S
C467   N472    1.370   .     A
C467   N479    1.428   .     S
C468   N482    1.428   .     S
C468   N471    1.370   .     A
C468   C49     1.425   1_565 S
C469   N472    1.372   .     A
C469   N485    1.427   .     S
C470   N471    1.372   .     A
C470   N488    1.427   .     S
C470   C47     1.425   1_565 S
N473   O474    1.302   .     A
N473   O475    1.302   .     A
N476   O478    1.302   .     A
N476   O477    1.302   .     A
N479   O480    1.301   .     A
N479   O481    1.300   .     A
N482   O483    1.301   .     A
N482   O484    1.300   .     A
N485   O486    1.300   .     A
N485   O487    1.301   .     A
N488   O490    1.301   .     A
N488   O489    1.300   .     A
O491   C495    1.290   .     A
O491   Zn503   2.001   .     S
O492   Zn504   2.001   .     S
O492   C496    1.290   .     A
O493   Zn503   2.001   .     S
O493   C496    1.290   .     A
O494   Zn504   2.001   .     S
O494   C495    1.290   .     A
C495   C536    1.422   .     S
C496   C535    1.422   .     S
O497   Zn503   2.005   .     S
O497   C501    1.289   .     A
O498   C502    1.289   .     A
O498   Zn504   2.005   .     S
O499   C502    1.292   .     A
O499   Zn503   2.011   .     S
O500   C501    1.292   .     A
O500   Zn504   2.011   .     S
C501   C508    1.424   .     S
C502   C507    1.424   .     S
Zn503  N541    2.026   .     S
Zn504  N542    2.026   .     S
C505   H521    1.084   .     S
C505   C515    1.382   .     A
C505   C507    1.388   .     A
C506   C516    1.382   .     A
C506   C508    1.388   .     A
C506   H522    1.084   .     S
C507   C509    1.391   .     A
C508   C510    1.391   .     A
C509   C511    1.391   .     A
C509   H523    1.082   .     S
C510   C512    1.391   .     A
C510   H524    1.082   .     S
C511   C517    1.414   .     A
C511   C513    1.420   .     A
C512   C518    1.414   .     A
C512   C514    1.420   .     A
C513   C515    1.412   .     A
C513   C1144   1.393   .     S
C514   C516    1.412   .     A
C514   C1143   1.393   1_554 S
C515   C520    1.396   .     A
C516   C519    1.396   .     A
C517   N543    1.437   .     S
C517   C1149   1.394   .     S
C518   N546    1.437   .     S
C518   C1150   1.394   1_554 S
C519   H525    1.085   .     S
C519   C1147   1.394   1_554 S
C520   H526    1.085   .     S
C520   C1148   1.394   .     S
C527   H531    1.083   .     S
C527   C536    1.397   .     A
C528   H532    1.083   .     S
C528   C535    1.397   .     A
C528   C600    1.369   .     S
C529   H533    1.083   .     S
C529   C535    1.397   .     A
C529   C597    1.369   .     S
C530   C536    1.397   .     A
C530   H534    1.083   .     S
C537   N542    1.370   .     A
C537   N549    1.428   .     S
C538   N552    1.428   .     S
C538   N541    1.370   .     A
C538   C119    1.425   1_565 S
C539   N542    1.372   .     A
C539   N555    1.427   .     S
C540   N541    1.372   .     A
C540   N558    1.427   .     S
C540   C117    1.425   1_565 S
N543   O544    1.302   .     A
N543   O545    1.302   .     A
N546   O548    1.302   .     A
N546   O547    1.302   .     A
N549   O550    1.301   .     A
N549   O551    1.300   .     A
N552   O553    1.301   .     A
N552   O554    1.300   .     A
N555   O556    1.300   .     A
N555   O557    1.301   .     A
N558   O560    1.301   .     A
N558   O559    1.300   .     A
O561   C565    1.290   .     A
O561   Zn573   2.001   .     S
O562   Zn574   2.001   .     S
O562   C566    1.290   .     A
O563   Zn573   2.001   .     S
O563   C566    1.290   .     A
O564   Zn574   2.001   .     S
O564   C565    1.290   .     A
C565   C606    1.422   .     S
C566   C605    1.422   .     S
O567   Zn573   2.005   .     S
O567   C571    1.289   .     A
O568   C572    1.289   .     A
O568   Zn574   2.005   .     S
O569   C572    1.292   .     A
O569   Zn573   2.011   .     S
O570   C571    1.292   .     A
O570   Zn574   2.011   .     S
C571   C578    1.424   .     S
C572   C577    1.424   .     S
Zn573  N611    2.026   .     S
Zn574  N612    2.026   .     S
C575   H591    1.084   .     S
C575   C585    1.382   .     A
C575   C577    1.388   .     A
C576   C586    1.382   .     A
C576   C578    1.388   .     A
C576   H592    1.084   .     S
C577   C579    1.391   .     A
C578   C580    1.391   .     A
C579   C581    1.391   .     A
C579   H593    1.082   .     S
C580   C582    1.391   .     A
C580   H594    1.082   .     S
C581   C587    1.414   .     A
C581   C583    1.420   .     A
C582   C588    1.414   .     A
C582   C584    1.420   .     A
C583   C585    1.412   .     A
C583   C1214   1.393   .     S
C584   C586    1.412   .     A
C584   C1213   1.393   1_554 S
C585   C590    1.396   .     A
C586   C589    1.396   .     A
C587   N613    1.437   .     S
C587   C1219   1.394   .     S
C588   N616    1.437   .     S
C588   C1220   1.394   1_554 S
C589   H595    1.085   .     S
C589   C1217   1.394   1_554 S
C590   H596    1.085   .     S
C590   C1218   1.394   .     S
C597   H601    1.083   .     S
C597   C606    1.397   .     A
C598   H602    1.083   .     S
C598   C605    1.397   .     A
C598   C460    1.369   1_655 S
C599   H603    1.083   .     S
C599   C605    1.397   .     A
C599   C457    1.369   1_655 S
C600   C606    1.397   .     A
C600   H604    1.083   .     S
C607   N612    1.370   .     A
C607   N619    1.428   .     S
C608   N622    1.428   .     S
C608   N611    1.370   .     A
C608   C189    1.425   1_565 S
C609   N612    1.372   .     A
C609   N625    1.427   .     S
C610   N611    1.372   .     A
C610   N628    1.427   .     S
C610   C187    1.425   1_565 S
N613   O614    1.302   .     A
N613   O615    1.302   .     A
N616   O618    1.302   .     A
N616   O617    1.302   .     A
N619   O620    1.301   .     A
N619   O621    1.300   .     A
N622   O623    1.301   .     A
N622   O624    1.300   .     A
N625   O626    1.300   .     A
N625   O627    1.301   .     A
N628   O630    1.301   .     A
N628   O629    1.300   .     A
O631   C635    1.290   .     A
O631   Zn643   2.001   .     S
O632   Zn644   2.001   .     S
O632   C636    1.290   .     A
O633   Zn643   2.001   .     S
O633   C636    1.290   .     A
O634   Zn644   2.001   .     S
O634   C635    1.290   .     A
C635   C676    1.422   .     S
C636   C675    1.422   .     S
O637   Zn643   2.005   .     S
O637   C641    1.289   .     A
O638   C642    1.289   .     A
O638   Zn644   2.005   .     S
O639   C642    1.292   .     A
O639   Zn643   2.011   .     S
O640   C641    1.292   .     A
O640   Zn644   2.011   .     S
C641   C648    1.424   .     S
C642   C647    1.424   .     S
Zn643  N681    2.026   .     S
Zn644  N682    2.026   .     S
C645   H661    1.084   .     S
C645   C655    1.382   .     A
C645   C647    1.388   .     A
C646   C656    1.382   .     A
C646   C648    1.388   .     A
C646   H662    1.084   .     S
C647   C649    1.391   .     A
C648   C650    1.391   .     A
C649   C651    1.391   .     A
C649   H663    1.082   .     S
C650   C652    1.391   .     A
C650   H664    1.082   .     S
C651   C657    1.414   .     A
C651   C653    1.420   .     A
C652   C658    1.414   .     A
C652   C654    1.420   .     A
C653   C655    1.412   .     A
C653   C24     1.393   1_556 S
C654   C656    1.412   .     A
C655   C660    1.396   .     A
C656   C659    1.396   .     A
C657   N683    1.437   .     S
C657   C29     1.394   1_556 S
C658   N686    1.437   .     S
C659   H665    1.085   .     S
C660   H666    1.085   .     S
C660   C28     1.394   1_556 S
C667   H671    1.083   .     S
C667   C676    1.397   .     A
C667   C809    1.369   1_455 S
C668   H672    1.083   .     S
C668   C675    1.397   .     A
C668   C740    1.369   .     S
C669   H673    1.083   .     S
C669   C675    1.397   .     A
C669   C737    1.369   .     S
C670   C676    1.397   .     A
C670   H674    1.083   .     S
C670   C808    1.369   1_455 S
C677   N682    1.370   .     A
C677   N689    1.428   .     S
C677   C1100   1.425   1_545 S
C678   N692    1.428   .     S
C678   N681    1.370   .     A
C678   C889    1.425   .     S
C679   N682    1.372   .     A
C679   N695    1.427   .     S
C679   C1098   1.425   1_545 S
C680   N681    1.372   .     A
C680   N698    1.427   .     S
C680   C887    1.425   .     S
N683   O684    1.302   .     A
N683   O685    1.302   .     A
N686   O688    1.302   .     A
N686   O687    1.302   .     A
N689   O690    1.301   .     A
N689   O691    1.300   .     A
N692   O693    1.301   .     A
N692   O694    1.300   .     A
N695   O696    1.300   .     A
N695   O697    1.301   .     A
N698   O700    1.301   .     A
N698   O699    1.300   .     A
O701   C705    1.290   .     A
O701   Zn713   2.001   .     S
O702   Zn714   2.001   .     S
O702   C706    1.290   .     A
O703   Zn713   2.001   .     S
O703   C706    1.290   .     A
O704   Zn714   2.001   .     S
O704   C705    1.290   .     A
C705   C746    1.422   .     S
C706   C745    1.422   .     S
O707   Zn713   2.005   .     S
O707   C711    1.289   .     A
O708   C712    1.289   .     A
O708   Zn714   2.005   .     S
O709   C712    1.292   .     A
O709   Zn713   2.011   .     S
O710   C711    1.292   .     A
O710   Zn714   2.011   .     S
C711   C718    1.424   .     S
C712   C717    1.424   .     S
Zn713  N751    2.026   .     S
Zn714  N752    2.026   .     S
C715   H731    1.084   .     S
C715   C725    1.382   .     A
C715   C717    1.388   .     A
C716   C726    1.382   .     A
C716   C718    1.388   .     A
C716   H732    1.084   .     S
C717   C719    1.391   .     A
C718   C720    1.391   .     A
C719   C721    1.391   .     A
C719   H733    1.082   .     S
C720   C722    1.391   .     A
C720   H734    1.082   .     S
C721   C727    1.414   .     A
C721   C723    1.420   .     A
C722   C728    1.414   .     A
C722   C724    1.420   .     A
C723   C725    1.412   .     A
C723   C94     1.393   1_556 S
C724   C726    1.412   .     A
C725   C730    1.396   .     A
C726   C729    1.396   .     A
C727   N753    1.437   .     S
C727   C99     1.394   1_556 S
C728   N756    1.437   .     S
C729   H735    1.085   .     S
C730   H736    1.085   .     S
C730   C98     1.394   1_556 S
C737   H741    1.083   .     S
C737   C746    1.397   .     A
C738   H742    1.083   .     S
C738   C745    1.397   .     A
C738   C810    1.369   .     S
C739   H743    1.083   .     S
C739   C745    1.397   .     A
C739   C807    1.369   .     S
C740   C746    1.397   .     A
C740   H744    1.083   .     S
C747   N752    1.370   .     A
C747   N759    1.428   .     S
C747   C1170   1.425   1_545 S
C748   N762    1.428   .     S
C748   N751    1.370   .     A
C748   C959    1.425   .     S
C749   N752    1.372   .     A
C749   N765    1.427   .     S
C749   C1168   1.425   1_545 S
C750   N751    1.372   .     A
C750   N768    1.427   .     S
C750   C957    1.425   .     S
N753   O754    1.302   .     A
N753   O755    1.302   .     A
N756   O758    1.302   .     A
N756   O757    1.302   .     A
N759   O760    1.301   .     A
N759   O761    1.300   .     A
N762   O763    1.301   .     A
N762   O764    1.300   .     A
N765   O766    1.300   .     A
N765   O767    1.301   .     A
N768   O770    1.301   .     A
N768   O769    1.300   .     A
O771   C775    1.290   .     A
O771   Zn783   2.001   .     S
O772   Zn784   2.001   .     S
O772   C776    1.290   .     A
O773   Zn783   2.001   .     S
O773   C776    1.290   .     A
O774   Zn784   2.001   .     S
O774   C775    1.290   .     A
C775   C816    1.422   .     S
C776   C815    1.422   .     S
O777   Zn783   2.005   .     S
O777   C781    1.289   .     A
O778   C782    1.289   .     A
O778   Zn784   2.005   .     S
O779   C782    1.292   .     A
O779   Zn783   2.011   .     S
O780   C781    1.292   .     A
O780   Zn784   2.011   .     S
C781   C788    1.424   .     S
C782   C787    1.424   .     S
Zn783  N821    2.026   .     S
Zn784  N822    2.026   .     S
C785   H801    1.084   .     S
C785   C795    1.382   .     A
C785   C787    1.388   .     A
C786   C796    1.382   .     A
C786   C788    1.388   .     A
C786   H802    1.084   .     S
C787   C789    1.391   .     A
C788   C790    1.391   .     A
C789   C791    1.391   .     A
C789   H803    1.082   .     S
C790   C792    1.391   .     A
C790   H804    1.082   .     S
C791   C797    1.414   .     A
C791   C793    1.420   .     A
C792   C798    1.414   .     A
C792   C794    1.420   .     A
C793   C795    1.412   .     A
C793   C164    1.393   1_556 S
C794   C796    1.412   .     A
C795   C800    1.396   .     A
C796   C799    1.396   .     A
C797   N823    1.437   .     S
C797   C169    1.394   1_556 S
C798   N826    1.437   .     S
C799   H805    1.085   .     S
C800   H806    1.085   .     S
C800   C168    1.394   1_556 S
C807   H811    1.083   .     S
C807   C816    1.397   .     A
C808   H812    1.083   .     S
C808   C815    1.397   .     A
C808   C670    1.369   1_655 S
C809   H813    1.083   .     S
C809   C815    1.397   .     A
C809   C667    1.369   1_655 S
C810   C816    1.397   .     A
C810   H814    1.083   .     S
C817   N822    1.370   .     A
C817   N829    1.428   .     S
C817   C1240   1.425   1_545 S
C818   N832    1.428   .     S
C818   N821    1.370   .     A
C818   C1029   1.425   .     S
C819   N822    1.372   .     A
C819   N835    1.427   .     S
C819   C1238   1.425   1_545 S
C820   N821    1.372   .     A
C820   N838    1.427   .     S
C820   C1027   1.425   .     S
N823   O824    1.302   .     A
N823   O825    1.302   .     A
N826   O828    1.302   .     A
N826   O827    1.302   .     A
N829   O830    1.301   .     A
N829   O831    1.300   .     A
N832   O833    1.301   .     A
N832   O834    1.300   .     A
N835   O836    1.300   .     A
N835   O837    1.301   .     A
N838   O840    1.301   .     A
N838   O839    1.300   .     A
O841   C845    1.290   .     A
O841   Zn853   2.001   .     S
O842   Zn854   2.001   .     S
O842   C846    1.290   .     A
O843   Zn853   2.001   .     S
O843   C846    1.290   .     A
O844   Zn854   2.001   .     S
O844   C845    1.290   .     A
C845   C886    1.422   .     S
C846   C885    1.422   .     S
O847   Zn853   2.005   .     S
O847   C851    1.289   .     A
O848   C852    1.289   .     A
O848   Zn854   2.005   .     S
O849   C852    1.292   .     A
O849   Zn853   2.011   .     S
O850   C851    1.292   .     A
O850   Zn854   2.011   .     S
C851   C858    1.424   .     S
C852   C857    1.424   .     S
Zn853  N891    2.026   .     S
Zn854  N892    2.026   .     S
C855   H871    1.084   .     S
C855   C865    1.382   .     A
C855   C857    1.388   .     A
C856   C866    1.382   .     A
C856   C858    1.388   .     A
C856   H872    1.084   .     S
C857   C859    1.391   .     A
C858   C860    1.391   .     A
C859   C861    1.391   .     A
C859   H873    1.082   .     S
C860   C862    1.391   .     A
C860   H874    1.082   .     S
C861   C867    1.414   .     A
C861   C863    1.420   .     A
C862   C868    1.414   .     A
C862   C864    1.420   .     A
C863   C865    1.412   .     A
C863   C234    1.393   1_556 S
C864   C866    1.412   .     A
C865   C870    1.396   .     A
C866   C869    1.396   .     A
C867   N893    1.437   .     S
C867   C239    1.394   1_556 S
C868   N896    1.437   .     S
C869   H875    1.085   .     S
C870   H876    1.085   .     S
C870   C238    1.394   1_556 S
C877   H881    1.083   .     S
C877   C886    1.397   .     A
C877   C1019   1.369   1_455 S
C878   H882    1.083   .     S
C878   C885    1.397   .     A
C878   C950    1.369   .     S
C879   H883    1.083   .     S
C879   C885    1.397   .     A
C879   C947    1.369   .     S
C880   C886    1.397   .     A
C880   H884    1.083   .     S
C880   C1018   1.369   1_455 S
C887   N892    1.370   .     A
C887   N899    1.428   .     S
C888   N902    1.428   .     S
C888   N891    1.370   .     A
C888   C1099   1.425   .     S
C889   N892    1.372   .     A
C889   N905    1.427   .     S
C890   N891    1.372   .     A
C890   N908    1.427   .     S
C890   C1097   1.425   .     S
N893   O894    1.302   .     A
N893   O895    1.302   .     A
N896   O898    1.302   .     A
N896   O897    1.302   .     A
N899   O900    1.301   .     A
N899   O901    1.300   .     A
N902   O903    1.301   .     A
N902   O904    1.300   .     A
N905   O906    1.300   .     A
N905   O907    1.301   .     A
N908   O910    1.301   .     A
N908   O909    1.300   .     A
O911   C915    1.290   .     A
O911   Zn923   2.001   .     S
O912   Zn924   2.001   .     S
O912   C916    1.290   .     A
O913   Zn923   2.001   .     S
O913   C916    1.290   .     A
O914   Zn924   2.001   .     S
O914   C915    1.290   .     A
C915   C956    1.422   .     S
C916   C955    1.422   .     S
O917   Zn923   2.005   .     S
O917   C921    1.289   .     A
O918   C922    1.289   .     A
O918   Zn924   2.005   .     S
O919   C922    1.292   .     A
O919   Zn923   2.011   .     S
O920   C921    1.292   .     A
O920   Zn924   2.011   .     S
C921   C928    1.424   .     S
C922   C927    1.424   .     S
Zn923  N961    2.026   .     S
Zn924  N962    2.026   .     S
C925   H941    1.084   .     S
C925   C935    1.382   .     A
C925   C927    1.388   .     A
C926   C936    1.382   .     A
C926   C928    1.388   .     A
C926   H942    1.084   .     S
C927   C929    1.391   .     A
C928   C930    1.391   .     A
C929   C931    1.391   .     A
C929   H943    1.082   .     S
C930   C932    1.391   .     A
C930   H944    1.082   .     S
C931   C937    1.414   .     A
C931   C933    1.420   .     A
C932   C938    1.414   .     A
C932   C934    1.420   .     A
C933   C935    1.412   .     A
C933   C304    1.393   1_556 S
C934   C936    1.412   .     A
C935   C940    1.396   .     A
C936   C939    1.396   .     A
C937   N963    1.437   .     S
C937   C309    1.394   1_556 S
C938   N966    1.437   .     S
C939   H945    1.085   .     S
C940   H946    1.085   .     S
C940   C308    1.394   1_556 S
C947   H951    1.083   .     S
C947   C956    1.397   .     A
C948   H952    1.083   .     S
C948   C955    1.397   .     A
C948   C1020   1.369   .     S
C949   H953    1.083   .     S
C949   C955    1.397   .     A
C949   C1017   1.369   .     S
C950   C956    1.397   .     A
C950   H954    1.083   .     S
C957   N962    1.370   .     A
C957   N969    1.428   .     S
C958   N972    1.428   .     S
C958   N961    1.370   .     A
C958   C1169   1.425   .     S
C959   N962    1.372   .     A
C959   N975    1.427   .     S
C960   N961    1.372   .     A
C960   N978    1.427   .     S
C960   C1167   1.425   .     S
N963   O964    1.302   .     A
N963   O965    1.302   .     A
N966   O968    1.302   .     A
N966   O967    1.302   .     A
N969   O970    1.301   .     A
N969   O971    1.300   .     A
N972   O973    1.301   .     A
N972   O974    1.300   .     A
N975   O976    1.300   .     A
N975   O977    1.301   .     A
N978   O980    1.301   .     A
N978   O979    1.300   .     A
O981   C985    1.290   .     A
O981   Zn993   2.001   .     S
O982   Zn994   2.001   .     S
O982   C986    1.290   .     A
O983   Zn993   2.001   .     S
O983   C986    1.290   .     A
O984   Zn994   2.001   .     S
O984   C985    1.290   .     A
C985   C1026   1.422   .     S
C986   C1025   1.422   .     S
O987   Zn993   2.005   .     S
O987   C991    1.289   .     A
O988   C992    1.289   .     A
O988   Zn994   2.005   .     S
O989   C992    1.292   .     A
O989   Zn993   2.011   .     S
O990   C991    1.292   .     A
O990   Zn994   2.011   .     S
C991   C998    1.424   .     S
C992   C997    1.424   .     S
Zn993  N1031   2.026   .     S
Zn994  N1032   2.026   .     S
C995   H1011   1.084   .     S
C995   C1005   1.382   .     A
C995   C997    1.388   .     A
C996   C1006   1.382   .     A
C996   C998    1.388   .     A
C996   H1012   1.084   .     S
C997   C999    1.391   .     A
C998   C1000   1.391   .     A
C999   C1001   1.391   .     A
C999   H1013   1.082   .     S
C1000  C1002   1.391   .     A
C1000  H1014   1.082   .     S
C1001  C1007   1.414   .     A
C1001  C1003   1.420   .     A
C1002  C1008   1.414   .     A
C1002  C1004   1.420   .     A
C1003  C1005   1.412   .     A
C1003  C374    1.393   1_556 S
C1004  C1006   1.412   .     A
C1005  C1010   1.396   .     A
C1006  C1009   1.396   .     A
C1007  N1033   1.437   .     S
C1007  C379    1.394   1_556 S
C1008  N1036   1.437   .     S
C1009  H1015   1.085   .     S
C1010  H1016   1.085   .     S
C1010  C378    1.394   1_556 S
C1017  H1021   1.083   .     S
C1017  C1026   1.397   .     A
C1018  H1022   1.083   .     S
C1018  C1025   1.397   .     A
C1018  C880    1.369   1_655 S
C1019  H1023   1.083   .     S
C1019  C1025   1.397   .     A
C1019  C877    1.369   1_655 S
C1020  C1026   1.397   .     A
C1020  H1024   1.083   .     S
C1027  N1032   1.370   .     A
C1027  N1039   1.428   .     S
C1028  N1042   1.428   .     S
C1028  N1031   1.370   .     A
C1028  C1239   1.425   .     S
C1029  N1032   1.372   .     A
C1029  N1045   1.427   .     S
C1030  N1031   1.372   .     A
C1030  N1048   1.427   .     S
C1030  C1237   1.425   .     S
N1033  O1034   1.302   .     A
N1033  O1035   1.302   .     A
N1036  O1038   1.302   .     A
N1036  O1037   1.302   .     A
N1039  O1040   1.301   .     A
N1039  O1041   1.300   .     A
N1042  O1043   1.301   .     A
N1042  O1044   1.300   .     A
N1045  O1046   1.300   .     A
N1045  O1047   1.301   .     A
N1048  O1050   1.301   .     A
N1048  O1049   1.300   .     A
O1051  C1055   1.290   .     A
O1051  Zn1063  2.001   .     S
O1052  Zn1064  2.001   .     S
O1052  C1056   1.290   .     A
O1053  Zn1063  2.001   .     S
O1053  C1056   1.290   .     A
O1054  Zn1064  2.001   .     S
O1054  C1055   1.290   .     A
C1055  C1096   1.422   .     S
C1056  C1095   1.422   .     S
O1057  Zn1063  2.005   .     S
O1057  C1061   1.289   .     A
O1058  C1062   1.289   .     A
O1058  Zn1064  2.005   .     S
O1059  C1062   1.292   .     A
O1059  Zn1063  2.011   .     S
O1060  C1061   1.292   .     A
O1060  Zn1064  2.011   .     S
C1061  C1068   1.424   .     S
C1062  C1067   1.424   .     S
Zn1063 N1101   2.026   .     S
Zn1064 N1102   2.026   .     S
C1065  H1081   1.084   .     S
C1065  C1075   1.382   .     A
C1065  C1067   1.388   .     A
C1066  C1076   1.382   .     A
C1066  C1068   1.388   .     A
C1066  H1082   1.084   .     S
C1067  C1069   1.391   .     A
C1068  C1070   1.391   .     A
C1069  C1071   1.391   .     A
C1069  H1083   1.082   .     S
C1070  C1072   1.391   .     A
C1070  H1084   1.082   .     S
C1071  C1077   1.414   .     A
C1071  C1073   1.420   .     A
C1072  C1078   1.414   .     A
C1072  C1074   1.420   .     A
C1073  C1075   1.412   .     A
C1073  C444    1.393   1_556 S
C1074  C1076   1.412   .     A
C1075  C1080   1.396   .     A
C1076  C1079   1.396   .     A
C1077  N1103   1.437   .     S
C1077  C449    1.394   1_556 S
C1078  N1106   1.437   .     S
C1079  H1085   1.085   .     S
C1080  H1086   1.085   .     S
C1080  C448    1.394   1_556 S
C1087  H1091   1.083   .     S
C1087  C1096   1.397   .     A
C1087  C1229   1.369   1_455 S
C1088  H1092   1.083   .     S
C1088  C1095   1.397   .     A
C1088  C1160   1.369   .     S
C1089  H1093   1.083   .     S
C1089  C1095   1.397   .     A
C1089  C1157   1.369   .     S
C1090  C1096   1.397   .     A
C1090  H1094   1.083   .     S
C1090  C1228   1.369   1_455 S
C1097  N1102   1.370   .     A
C1097  N1109   1.428   .     S
C1098  N1112   1.428   .     S
C1098  N1101   1.370   .     A
C1098  C679    1.425   1_565 S
C1099  N1102   1.372   .     A
C1099  N1115   1.427   .     S
C1100  N1101   1.372   .     A
C1100  N1118   1.427   .     S
C1100  C677    1.425   1_565 S
N1103  O1104   1.302   .     A
N1103  O1105   1.302   .     A
N1106  O1108   1.302   .     A
N1106  O1107   1.302   .     A
N1109  O1110   1.301   .     A
N1109  O1111   1.300   .     A
N1112  O1113   1.301   .     A
N1112  O1114   1.300   .     A
N1115  O1116   1.300   .     A
N1115  O1117   1.301   .     A
N1118  O1120   1.301   .     A
N1118  O1119   1.300   .     A
O1121  C1125   1.290   .     A
O1121  Zn1133  2.001   .     S
O1122  Zn1134  2.001   .     S
O1122  C1126   1.290   .     A
O1123  Zn1133  2.001   .     S
O1123  C1126   1.290   .     A
O1124  Zn1134  2.001   .     S
O1124  C1125   1.290   .     A
C1125  C1166   1.422   .     S
C1126  C1165   1.422   .     S
O1127  Zn1133  2.005   .     S
O1127  C1131   1.289   .     A
O1128  C1132   1.289   .     A
O1128  Zn1134  2.005   .     S
O1129  C1132   1.292   .     A
O1129  Zn1133  2.011   .     S
O1130  C1131   1.292   .     A
O1130  Zn1134  2.011   .     S
C1131  C1138   1.424   .     S
C1132  C1137   1.424   .     S
Zn1133 N1171   2.026   .     S
Zn1134 N1172   2.026   .     S
C1135  H1151   1.084   .     S
C1135  C1145   1.382   .     A
C1135  C1137   1.388   .     A
C1136  C1146   1.382   .     A
C1136  C1138   1.388   .     A
C1136  H1152   1.084   .     S
C1137  C1139   1.391   .     A
C1138  C1140   1.391   .     A
C1139  C1141   1.391   .     A
C1139  H1153   1.082   .     S
C1140  C1142   1.391   .     A
C1140  H1154   1.082   .     S
C1141  C1147   1.414   .     A
C1141  C1143   1.420   .     A
C1142  C1148   1.414   .     A
C1142  C1144   1.420   .     A
C1143  C1145   1.412   .     A
C1143  C514    1.393   1_556 S
C1144  C1146   1.412   .     A
C1145  C1150   1.396   .     A
C1146  C1149   1.396   .     A
C1147  N1173   1.437   .     S
C1147  C519    1.394   1_556 S
C1148  N1176   1.437   .     S
C1149  H1155   1.085   .     S
C1150  H1156   1.085   .     S
C1150  C518    1.394   1_556 S
C1157  H1161   1.083   .     S
C1157  C1166   1.397   .     A
C1158  H1162   1.083   .     S
C1158  C1165   1.397   .     A
C1158  C1230   1.369   .     S
C1159  H1163   1.083   .     S
C1159  C1165   1.397   .     A
C1159  C1227   1.369   .     S
C1160  C1166   1.397   .     A
C1160  H1164   1.083   .     S
C1167  N1172   1.370   .     A
C1167  N1179   1.428   .     S
C1168  N1182   1.428   .     S
C1168  N1171   1.370   .     A
C1168  C749    1.425   1_565 S
C1169  N1172   1.372   .     A
C1169  N1185   1.427   .     S
C1170  N1171   1.372   .     A
C1170  N1188   1.427   .     S
C1170  C747    1.425   1_565 S
N1173  O1174   1.302   .     A
N1173  O1175   1.302   .     A
N1176  O1178   1.302   .     A
N1176  O1177   1.302   .     A
N1179  O1180   1.301   .     A
N1179  O1181   1.300   .     A
N1182  O1183   1.301   .     A
N1182  O1184   1.300   .     A
N1185  O1186   1.300   .     A
N1185  O1187   1.301   .     A
N1188  O1190   1.301   .     A
N1188  O1189   1.300   .     A
O1191  C1195   1.290   .     A
O1191  Zn1203  2.001   .     S
O1192  Zn1204  2.001   .     S
O1192  C1196   1.290   .     A
O1193  Zn1203  2.001   .     S
O1193  C1196   1.290   .     A
O1194  Zn1204  2.001   .     S
O1194  C1195   1.290   .     A
C1195  C1236   1.422   .     S
C1196  C1235   1.422   .     S
O1197  Zn1203  2.005   .     S
O1197  C1201   1.289   .     A
O1198  C1202   1.289   .     A
O1198  Zn1204  2.005   .     S
O1199  C1202   1.292   .     A
O1199  Zn1203  2.011   .     S
O1200  C1201   1.292   .     A
O1200  Zn1204  2.011   .     S
C1201  C1208   1.424   .     S
C1202  C1207   1.424   .     S
Zn1203 N1241   2.026   .     S
Zn1204 N1242   2.026   .     S
C1205  H1221   1.084   .     S
C1205  C1215   1.382   .     A
C1205  C1207   1.388   .     A
C1206  C1216   1.382   .     A
C1206  C1208   1.388   .     A
C1206  H1222   1.084   .     S
C1207  C1209   1.391   .     A
C1208  C1210   1.391   .     A
C1209  C1211   1.391   .     A
C1209  H1223   1.082   .     S
C1210  C1212   1.391   .     A
C1210  H1224   1.082   .     S
C1211  C1217   1.414   .     A
C1211  C1213   1.420   .     A
C1212  C1218   1.414   .     A
C1212  C1214   1.420   .     A
C1213  C1215   1.412   .     A
C1213  C584    1.393   1_556 S
C1214  C1216   1.412   .     A
C1215  C1220   1.396   .     A
C1216  C1219   1.396   .     A
C1217  N1243   1.437   .     S
C1217  C589    1.394   1_556 S
C1218  N1246   1.437   .     S
C1219  H1225   1.085   .     S
C1220  H1226   1.085   .     S
C1220  C588    1.394   1_556 S
C1227  H1231   1.083   .     S
C1227  C1236   1.397   .     A
C1228  H1232   1.083   .     S
C1228  C1235   1.397   .     A
C1228  C1090   1.369   1_655 S
C1229  H1233   1.083   .     S
C1229  C1235   1.397   .     A
C1229  C1087   1.369   1_655 S
C1230  C1236   1.397   .     A
C1230  H1234   1.083   .     S
C1237  N1242   1.370   .     A
C1237  N1249   1.428   .     S
C1238  N1252   1.428   .     S
C1238  N1241   1.370   .     A
C1238  C819    1.425   1_565 S
C1239  N1242   1.372   .     A
C1239  N1255   1.427   .     S
C1240  N1241   1.372   .     A
C1240  N1258   1.427   .     S
C1240  C817    1.425   1_565 S
N1243  O1244   1.302   .     A
N1243  O1245   1.302   .     A
N1246  O1248   1.302   .     A
N1246  O1247   1.302   .     A
N1249  O1250   1.301   .     A
N1249  O1251   1.300   .     A
N1252  O1253   1.301   .     A
N1252  O1254   1.300   .     A
N1255  O1256   1.300   .     A
N1255  O1257   1.301   .     A
N1258  O1260   1.301   .     A
N1258  O1259   1.300   .     A
