data_str_m2_o2_o10_pcu_sym.57
_audit_creation_date              2020-01-03
_audit_creation_method            'Materials Studio'
_symmetry_space_group_name_H-M    'P1'
_symmetry_Int_Tables_number       1
_symmetry_cell_setting            triclinic
loop_
_symmetry_equiv_pos_as_xyz
  x,y,z
_cell_length_a                    26.3031
_cell_length_b                    30.2738
_cell_length_c                    27.8230
_cell_angle_alpha                 89.0458
_cell_angle_beta                  97.2343
_cell_angle_gamma                 90.9556
loop_
_atom_site_label
_atom_site_type_symbol
_atom_site_fract_x
_atom_site_fract_y
_atom_site_fract_z
_atom_site_U_iso_or_equiv
_atom_site_adp_type
_atom_site_occupancy
C1     C     0.16672   0.16527   0.25041   0.00000  Uiso   1.00
C2     C     0.19391   0.28254   0.44832   0.00000  Uiso   1.00
C3     C     0.16568   0.25046   0.02719   0.00000  Uiso   1.00
C4     C     0.16582   0.25073   0.47250   0.00000  Uiso   1.00
C5     C     0.06816   0.24907   0.23792   0.00000  Uiso   1.00
C6     C     0.26519   0.25081   0.26207   0.00000  Uiso   1.00
C7     C     0.01359   0.24191   0.23289   0.00000  Uiso   1.00
C8     C     0.31975   0.25800   0.26702   0.00000  Uiso   1.00
C9     C     0.20454   0.04703   0.27459   0.00000  Uiso   1.00
C10    C     0.15858   0.45616   0.20814   0.00000  Uiso   1.00
C11    C     0.20742   0.09334   0.27393   0.00000  Uiso   1.00
C12    C     0.16552   0.33526   0.24945   0.00000  Uiso   1.00
C13    C     0.15963   0.40988   0.20557   0.00000  Uiso   1.00
C14    C     0.16548   0.11741   0.25160   0.00000  Uiso   1.00
C15    C     0.16236   0.38405   0.24878   0.00000  Uiso   1.00
C16    C     0.12058   0.09598   0.23172   0.00000  Uiso   1.00
C17    C     0.16109   0.40510   0.29320   0.00000  Uiso   1.00
C18    C     0.11598   0.05010   0.23432   0.00000  Uiso   1.00
C19    C     0.15750   0.45091   0.29606   0.00000  Uiso   1.00
C20    C     0.15863   0.02534   0.25514   0.00000  Uiso   1.00
C21    C     0.15708   0.47664   0.25314   0.00000  Uiso   1.00
C22    C     0.32564   0.20965   0.19520   0.00000  Uiso   1.00
C23    C     0.20380   0.27318   0.05765   0.00000  Uiso   1.00
C24    C     0.00764   0.29074   0.30420   0.00000  Uiso   1.00
C25    C     0.24898   0.02172   0.29424   0.00000  Uiso   1.00
C26    C     0.16025   0.48291   0.16447   0.00000  Uiso   1.00
C27    C     0.25355   0.11616   0.29523   0.00000  Uiso   1.00
C28    C     0.15669   0.38992   0.15824   0.00000  Uiso   1.00
C29    C     0.06658   0.02910   0.21373   0.00000  Uiso   1.00
C30    C     0.15417   0.47068   0.34439   0.00000  Uiso   1.00
C31    C     0.24075   0.30071   0.13627   0.00000  Uiso   1.00
C32    C     0.10502   0.18832   0.36475   0.00000  Uiso   1.00
C33    C     0.13781   0.21896   0.44328   0.00000  Uiso   1.00
C34    C     0.20307   0.27358   0.10805   0.00000  Uiso   1.00
C35    C     0.13761   0.21967   0.39273   0.00000  Uiso   1.00
C36    C     0.12952   0.22719   0.10095   0.00000  Uiso   1.00
C37    C     0.19444   0.28112   0.39785   0.00000  Uiso   1.00
C38    C     0.12779   0.22759   0.05016   0.00000  Uiso   1.00
Cu39   Cu    0.16667   0.24999   0.29821   0.00000  Uiso   1.00
Cu40   Cu    0.16667   0.25000   0.20178   0.00000  Uiso   1.00
H41    H     0.08838   0.11536   0.21544   0.00000  Uiso   1.00
H42    H     0.05061   0.34581   0.31955   0.00000  Uiso   1.00
H43    H     0.06016   0.49003   0.27240   0.00000  Uiso   1.00
H44    H     0.13228   0.02156   0.38270   0.00000  Uiso   1.00
H45    H     0.16193   0.38554   0.32625   0.00000  Uiso   1.00
H46    H     0.23457   0.29075   0.04293   0.00000  Uiso   1.00
H47    H     0.11603   0.19320   0.45913   0.00000  Uiso   1.00
H48    H     0.10049   0.20893   0.11759   0.00000  Uiso   1.00
H49    H     0.21668   0.30552   0.38035   0.00000  Uiso   1.00
H50    H     0.09626   0.21031   0.02958   0.00000  Uiso   1.00
H51    H     0.21511   0.30902   0.46758   0.00000  Uiso   1.00
H52    H     0.28272   0.15475   0.17895   0.00000  Uiso   1.00
N53    N     0.16667   0.25001   0.12934   0.00000  Uiso   1.00
N54    N     0.16667   0.24999   0.37065   0.00000  Uiso   1.00
N55    N     0.28439   0.00152   0.30990   0.00000  Uiso   1.00
N56    N     0.16161   0.00423   0.12973   0.00000  Uiso   1.00
N57    N     0.29030   0.13438   0.31229   0.00000  Uiso   1.00
N58    N     0.15399   0.37442   0.12024   0.00000  Uiso   1.00
N59    N     0.27113   0.32283   0.15849   0.00000  Uiso   1.00
N60    N     0.07858   0.16305   0.34257   0.00000  Uiso   1.00
O61    O     0.16667   0.18572   0.29071   0.00000  Uiso   1.00
O62    O     0.29463   0.17432   0.20752   0.00000  Uiso   1.00
O63    O     0.33030   0.28745   0.34565   0.00000  Uiso   1.00
O64    O     0.03859   0.32593   0.29127   0.00000  Uiso   1.00
O65    O     0.04496   0.04245   0.17492   0.00000  Uiso   1.00
O66    O     0.04346   0.49495   0.23801   0.00000  Uiso   1.00
O67    O     0.16998   0.45026   0.38144   0.00000  Uiso   1.00
O68    O     0.13221   0.01208   0.34792   0.00000  Uiso   1.00
O69    O     0.16666   0.31427   0.20928   0.00000  Uiso   1.00
O70    O     0.16667   0.18573   0.20928   0.00000  Uiso   1.00
O71    O     0.16666   0.31427   0.29072   0.00000  Uiso   1.00
O72    O     0.09161   0.24999   0.28132   0.00000  Uiso   1.00
O73    O     0.24172   0.25000   0.21868   0.00000  Uiso   1.00
O74    O     0.09161   0.25000   0.19989   0.00000  Uiso   1.00
O75    O     0.24172   0.25000   0.30011   0.00000  Uiso   1.00
O76    O     0.00290   0.21355   0.15377   0.00000  Uiso   1.00
C77    C     0.50005   0.16527   0.25041   0.00000  Uiso   1.00
C78    C     0.52724   0.28254   0.44832   0.00000  Uiso   1.00
C79    C     0.49901   0.25046   0.02719   0.00000  Uiso   1.00
C80    C     0.49916   0.25073   0.47250   0.00000  Uiso   1.00
C81    C     0.40149   0.24907   0.23792   0.00000  Uiso   1.00
C82    C     0.59852   0.25081   0.26207   0.00000  Uiso   1.00
C83    C     0.34693   0.24191   0.23289   0.00000  Uiso   1.00
C84    C     0.65309   0.25800   0.26702   0.00000  Uiso   1.00
C85    C     0.53787   0.04703   0.27459   0.00000  Uiso   1.00
C86    C     0.49191   0.45616   0.20814   0.00000  Uiso   1.00
C87    C     0.54076   0.09334   0.27393   0.00000  Uiso   1.00
C88    C     0.49885   0.33526   0.24945   0.00000  Uiso   1.00
C89    C     0.49296   0.40988   0.20557   0.00000  Uiso   1.00
C90    C     0.49881   0.11741   0.25160   0.00000  Uiso   1.00
C91    C     0.49570   0.38405   0.24878   0.00000  Uiso   1.00
C92    C     0.45392   0.09598   0.23172   0.00000  Uiso   1.00
C93    C     0.49442   0.40510   0.29320   0.00000  Uiso   1.00
C94    C     0.44931   0.05010   0.23432   0.00000  Uiso   1.00
C95    C     0.49084   0.45091   0.29606   0.00000  Uiso   1.00
C96    C     0.49196   0.02534   0.25514   0.00000  Uiso   1.00
C97    C     0.49042   0.47664   0.25314   0.00000  Uiso   1.00
C98    C     0.65897   0.20965   0.19520   0.00000  Uiso   1.00
C99    C     0.53713   0.27318   0.05765   0.00000  Uiso   1.00
C100   C     0.34098   0.29074   0.30420   0.00000  Uiso   1.00
C101   C     0.58231   0.02172   0.29424   0.00000  Uiso   1.00
C102   C     0.49359   0.48291   0.16447   0.00000  Uiso   1.00
C103   C     0.58688   0.11616   0.29523   0.00000  Uiso   1.00
C104   C     0.49002   0.38992   0.15824   0.00000  Uiso   1.00
C105   C     0.39991   0.02910   0.21373   0.00000  Uiso   1.00
C106   C     0.48750   0.47068   0.34439   0.00000  Uiso   1.00
C107   C     0.57408   0.30071   0.13627   0.00000  Uiso   1.00
C108   C     0.43835   0.18832   0.36475   0.00000  Uiso   1.00
C109   C     0.47115   0.21896   0.44328   0.00000  Uiso   1.00
C110   C     0.53640   0.27358   0.10805   0.00000  Uiso   1.00
C111   C     0.47094   0.21967   0.39273   0.00000  Uiso   1.00
C112   C     0.46285   0.22719   0.10095   0.00000  Uiso   1.00
C113   C     0.52777   0.28112   0.39785   0.00000  Uiso   1.00
C114   C     0.46112   0.22759   0.05016   0.00000  Uiso   1.00
Cu115  Cu    0.50000   0.24999   0.29821   0.00000  Uiso   1.00
Cu116  Cu    0.50000   0.25000   0.20178   0.00000  Uiso   1.00
H117   H     0.42171   0.11536   0.21544   0.00000  Uiso   1.00
H118   H     0.38395   0.34581   0.31955   0.00000  Uiso   1.00
H119   H     0.39350   0.49003   0.27240   0.00000  Uiso   1.00
H120   H     0.46561   0.02156   0.38270   0.00000  Uiso   1.00
H121   H     0.49527   0.38554   0.32625   0.00000  Uiso   1.00
H122   H     0.56790   0.29075   0.04293   0.00000  Uiso   1.00
H123   H     0.44936   0.19320   0.45913   0.00000  Uiso   1.00
H124   H     0.43383   0.20893   0.11759   0.00000  Uiso   1.00
H125   H     0.55001   0.30552   0.38035   0.00000  Uiso   1.00
H126   H     0.42959   0.21031   0.02958   0.00000  Uiso   1.00
H127   H     0.54844   0.30902   0.46758   0.00000  Uiso   1.00
H128   H     0.61605   0.15475   0.17895   0.00000  Uiso   1.00
N129   N     0.50000   0.25001   0.12934   0.00000  Uiso   1.00
N130   N     0.50000   0.24999   0.37065   0.00000  Uiso   1.00
N131   N     0.61773   0.00152   0.30990   0.00000  Uiso   1.00
N132   N     0.49494   0.00423   0.12973   0.00000  Uiso   1.00
N133   N     0.62363   0.13438   0.31229   0.00000  Uiso   1.00
N134   N     0.48732   0.37442   0.12024   0.00000  Uiso   1.00
N135   N     0.60447   0.32283   0.15849   0.00000  Uiso   1.00
N136   N     0.41191   0.16305   0.34257   0.00000  Uiso   1.00
O137   O     0.50000   0.18572   0.29071   0.00000  Uiso   1.00
O138   O     0.62797   0.17432   0.20752   0.00000  Uiso   1.00
O139   O     0.66364   0.28745   0.34565   0.00000  Uiso   1.00
O140   O     0.37193   0.32593   0.29127   0.00000  Uiso   1.00
O141   O     0.37829   0.04245   0.17492   0.00000  Uiso   1.00
O142   O     0.37679   0.49495   0.23801   0.00000  Uiso   1.00
O143   O     0.50331   0.45026   0.38144   0.00000  Uiso   1.00
O144   O     0.46555   0.01208   0.34792   0.00000  Uiso   1.00
O145   O     0.50000   0.31427   0.20928   0.00000  Uiso   1.00
O146   O     0.50000   0.18573   0.20928   0.00000  Uiso   1.00
O147   O     0.50000   0.31427   0.29072   0.00000  Uiso   1.00
O148   O     0.42495   0.24999   0.28132   0.00000  Uiso   1.00
O149   O     0.57505   0.25000   0.21868   0.00000  Uiso   1.00
O150   O     0.42495   0.25000   0.19989   0.00000  Uiso   1.00
O151   O     0.57505   0.25000   0.30011   0.00000  Uiso   1.00
O152   O     0.33623   0.21355   0.15377   0.00000  Uiso   1.00
C153   C     0.83338   0.16527   0.25041   0.00000  Uiso   1.00
C154   C     0.86057   0.28254   0.44832   0.00000  Uiso   1.00
C155   C     0.83235   0.25046   0.02719   0.00000  Uiso   1.00
C156   C     0.83249   0.25073   0.47250   0.00000  Uiso   1.00
C157   C     0.73482   0.24907   0.23792   0.00000  Uiso   1.00
C158   C     0.93185   0.25081   0.26207   0.00000  Uiso   1.00
C159   C     0.68026   0.24191   0.23289   0.00000  Uiso   1.00
C160   C     0.98642   0.25800   0.26702   0.00000  Uiso   1.00
C161   C     0.87120   0.04703   0.27459   0.00000  Uiso   1.00
C162   C     0.82524   0.45616   0.20814   0.00000  Uiso   1.00
C163   C     0.87409   0.09334   0.27393   0.00000  Uiso   1.00
C164   C     0.83218   0.33526   0.24945   0.00000  Uiso   1.00
C165   C     0.82629   0.40988   0.20557   0.00000  Uiso   1.00
C166   C     0.83215   0.11741   0.25160   0.00000  Uiso   1.00
C167   C     0.82903   0.38405   0.24878   0.00000  Uiso   1.00
C168   C     0.78725   0.09598   0.23172   0.00000  Uiso   1.00
C169   C     0.82775   0.40510   0.29320   0.00000  Uiso   1.00
C170   C     0.78265   0.05010   0.23432   0.00000  Uiso   1.00
C171   C     0.82417   0.45091   0.29606   0.00000  Uiso   1.00
C172   C     0.82529   0.02534   0.25514   0.00000  Uiso   1.00
C173   C     0.82375   0.47664   0.25314   0.00000  Uiso   1.00
C174   C     0.99231   0.20965   0.19520   0.00000  Uiso   1.00
C175   C     0.87046   0.27318   0.05765   0.00000  Uiso   1.00
C176   C     0.67431   0.29074   0.30420   0.00000  Uiso   1.00
C177   C     0.91565   0.02172   0.29424   0.00000  Uiso   1.00
C178   C     0.82692   0.48291   0.16447   0.00000  Uiso   1.00
C179   C     0.92022   0.11616   0.29523   0.00000  Uiso   1.00
C180   C     0.82336   0.38992   0.15824   0.00000  Uiso   1.00
C181   C     0.73325   0.02910   0.21373   0.00000  Uiso   1.00
C182   C     0.82083   0.47068   0.34439   0.00000  Uiso   1.00
C183   C     0.90742   0.30071   0.13627   0.00000  Uiso   1.00
C184   C     0.77169   0.18832   0.36475   0.00000  Uiso   1.00
C185   C     0.80448   0.21896   0.44328   0.00000  Uiso   1.00
C186   C     0.86974   0.27358   0.10805   0.00000  Uiso   1.00
C187   C     0.80428   0.21967   0.39273   0.00000  Uiso   1.00
C188   C     0.79619   0.22719   0.10095   0.00000  Uiso   1.00
C189   C     0.86110   0.28112   0.39785   0.00000  Uiso   1.00
C190   C     0.79445   0.22759   0.05016   0.00000  Uiso   1.00
Cu191  Cu    0.83333   0.24999   0.29821   0.00000  Uiso   1.00
Cu192  Cu    0.83333   0.25000   0.20178   0.00000  Uiso   1.00
H193   H     0.75505   0.11536   0.21544   0.00000  Uiso   1.00
H194   H     0.71728   0.34581   0.31955   0.00000  Uiso   1.00
H195   H     0.72683   0.49003   0.27240   0.00000  Uiso   1.00
H196   H     0.79894   0.02156   0.38270   0.00000  Uiso   1.00
H197   H     0.82860   0.38554   0.32625   0.00000  Uiso   1.00
H198   H     0.90123   0.29075   0.04293   0.00000  Uiso   1.00
H199   H     0.78270   0.19320   0.45913   0.00000  Uiso   1.00
H200   H     0.76716   0.20893   0.11759   0.00000  Uiso   1.00
H201   H     0.88334   0.30552   0.38035   0.00000  Uiso   1.00
H202   H     0.76293   0.21031   0.02958   0.00000  Uiso   1.00
H203   H     0.88178   0.30902   0.46758   0.00000  Uiso   1.00
H204   H     0.94939   0.15475   0.17895   0.00000  Uiso   1.00
N205   N     0.83333   0.25001   0.12934   0.00000  Uiso   1.00
N206   N     0.83333   0.24999   0.37065   0.00000  Uiso   1.00
N207   N     0.95106   0.00152   0.30990   0.00000  Uiso   1.00
N208   N     0.82827   0.00423   0.12973   0.00000  Uiso   1.00
N209   N     0.95696   0.13438   0.31229   0.00000  Uiso   1.00
N210   N     0.82065   0.37442   0.12024   0.00000  Uiso   1.00
N211   N     0.93780   0.32283   0.15849   0.00000  Uiso   1.00
N212   N     0.74525   0.16305   0.34257   0.00000  Uiso   1.00
O213   O     0.83334   0.18572   0.29071   0.00000  Uiso   1.00
O214   O     0.96130   0.17432   0.20752   0.00000  Uiso   1.00
O215   O     0.99697   0.28745   0.34565   0.00000  Uiso   1.00
O216   O     0.70526   0.32593   0.29127   0.00000  Uiso   1.00
O217   O     0.71163   0.04245   0.17492   0.00000  Uiso   1.00
O218   O     0.71012   0.49495   0.23801   0.00000  Uiso   1.00
O219   O     0.83664   0.45026   0.38144   0.00000  Uiso   1.00
O220   O     0.79888   0.01208   0.34792   0.00000  Uiso   1.00
O221   O     0.83333   0.31427   0.20928   0.00000  Uiso   1.00
O222   O     0.83334   0.18573   0.20928   0.00000  Uiso   1.00
O223   O     0.83333   0.31427   0.29072   0.00000  Uiso   1.00
O224   O     0.75828   0.24999   0.28132   0.00000  Uiso   1.00
O225   O     0.90839   0.25000   0.21868   0.00000  Uiso   1.00
O226   O     0.75828   0.25000   0.19989   0.00000  Uiso   1.00
O227   O     0.90839   0.25000   0.30011   0.00000  Uiso   1.00
O228   O     0.66957   0.21355   0.15377   0.00000  Uiso   1.00
C229   C     0.16672   0.66527   0.25041   0.00000  Uiso   1.00
C230   C     0.19391   0.78254   0.44832   0.00000  Uiso   1.00
C231   C     0.16568   0.75046   0.02719   0.00000  Uiso   1.00
C232   C     0.16582   0.75073   0.47250   0.00000  Uiso   1.00
C233   C     0.06816   0.74907   0.23792   0.00000  Uiso   1.00
C234   C     0.26519   0.75081   0.26207   0.00000  Uiso   1.00
C235   C     0.01359   0.74191   0.23289   0.00000  Uiso   1.00
C236   C     0.31975   0.75800   0.26702   0.00000  Uiso   1.00
C237   C     0.20454   0.54703   0.27459   0.00000  Uiso   1.00
C238   C     0.15858   0.95616   0.20814   0.00000  Uiso   1.00
C239   C     0.20742   0.59334   0.27393   0.00000  Uiso   1.00
C240   C     0.16552   0.83526   0.24945   0.00000  Uiso   1.00
C241   C     0.15963   0.90988   0.20557   0.00000  Uiso   1.00
C242   C     0.16548   0.61741   0.25160   0.00000  Uiso   1.00
C243   C     0.16236   0.88405   0.24878   0.00000  Uiso   1.00
C244   C     0.12058   0.59598   0.23172   0.00000  Uiso   1.00
C245   C     0.16109   0.90510   0.29320   0.00000  Uiso   1.00
C246   C     0.11598   0.55010   0.23432   0.00000  Uiso   1.00
C247   C     0.15750   0.95091   0.29606   0.00000  Uiso   1.00
C248   C     0.15863   0.52534   0.25514   0.00000  Uiso   1.00
C249   C     0.15708   0.97664   0.25314   0.00000  Uiso   1.00
C250   C     0.32564   0.70965   0.19520   0.00000  Uiso   1.00
C251   C     0.20380   0.77318   0.05765   0.00000  Uiso   1.00
C252   C     0.00764   0.79074   0.30420   0.00000  Uiso   1.00
C253   C     0.24898   0.52172   0.29424   0.00000  Uiso   1.00
C254   C     0.16025   0.98291   0.16447   0.00000  Uiso   1.00
C255   C     0.25355   0.61616   0.29523   0.00000  Uiso   1.00
C256   C     0.15669   0.88992   0.15824   0.00000  Uiso   1.00
C257   C     0.06658   0.52910   0.21373   0.00000  Uiso   1.00
C258   C     0.15417   0.97068   0.34439   0.00000  Uiso   1.00
C259   C     0.24075   0.80071   0.13627   0.00000  Uiso   1.00
C260   C     0.10502   0.68832   0.36475   0.00000  Uiso   1.00
C261   C     0.13781   0.71896   0.44328   0.00000  Uiso   1.00
C262   C     0.20307   0.77358   0.10805   0.00000  Uiso   1.00
C263   C     0.13761   0.71967   0.39273   0.00000  Uiso   1.00
C264   C     0.12952   0.72719   0.10095   0.00000  Uiso   1.00
C265   C     0.19444   0.78112   0.39785   0.00000  Uiso   1.00
C266   C     0.12779   0.72759   0.05016   0.00000  Uiso   1.00
Cu267  Cu    0.16667   0.74999   0.29821   0.00000  Uiso   1.00
Cu268  Cu    0.16667   0.75000   0.20178   0.00000  Uiso   1.00
H269   H     0.08838   0.61536   0.21544   0.00000  Uiso   1.00
H270   H     0.05061   0.84581   0.31955   0.00000  Uiso   1.00
H271   H     0.06016   0.99003   0.27240   0.00000  Uiso   1.00
H272   H     0.13228   0.52156   0.38270   0.00000  Uiso   1.00
H273   H     0.16193   0.88554   0.32625   0.00000  Uiso   1.00
H274   H     0.23457   0.79075   0.04293   0.00000  Uiso   1.00
H275   H     0.11603   0.69320   0.45913   0.00000  Uiso   1.00
H276   H     0.10049   0.70893   0.11759   0.00000  Uiso   1.00
H277   H     0.21668   0.80552   0.38035   0.00000  Uiso   1.00
H278   H     0.09626   0.71031   0.02958   0.00000  Uiso   1.00
H279   H     0.21511   0.80902   0.46758   0.00000  Uiso   1.00
H280   H     0.28272   0.65475   0.17895   0.00000  Uiso   1.00
N281   N     0.16667   0.75001   0.12934   0.00000  Uiso   1.00
N282   N     0.16667   0.74999   0.37065   0.00000  Uiso   1.00
N283   N     0.28439   0.50152   0.30990   0.00000  Uiso   1.00
N284   N     0.16161   0.50423   0.12973   0.00000  Uiso   1.00
N285   N     0.29030   0.63438   0.31229   0.00000  Uiso   1.00
N286   N     0.15399   0.87442   0.12024   0.00000  Uiso   1.00
N287   N     0.27113   0.82283   0.15849   0.00000  Uiso   1.00
N288   N     0.07858   0.66305   0.34257   0.00000  Uiso   1.00
O289   O     0.16667   0.68572   0.29071   0.00000  Uiso   1.00
O290   O     0.29463   0.67432   0.20752   0.00000  Uiso   1.00
O291   O     0.33030   0.78745   0.34565   0.00000  Uiso   1.00
O292   O     0.03859   0.82593   0.29127   0.00000  Uiso   1.00
O293   O     0.04496   0.54245   0.17492   0.00000  Uiso   1.00
O294   O     0.04346   0.99495   0.23801   0.00000  Uiso   1.00
O295   O     0.16998   0.95026   0.38144   0.00000  Uiso   1.00
O296   O     0.13221   0.51208   0.34792   0.00000  Uiso   1.00
O297   O     0.16666   0.81427   0.20928   0.00000  Uiso   1.00
O298   O     0.16667   0.68573   0.20928   0.00000  Uiso   1.00
O299   O     0.16666   0.81427   0.29072   0.00000  Uiso   1.00
O300   O     0.09161   0.74999   0.28132   0.00000  Uiso   1.00
O301   O     0.24172   0.75000   0.21868   0.00000  Uiso   1.00
O302   O     0.09161   0.75000   0.19989   0.00000  Uiso   1.00
O303   O     0.24172   0.75000   0.30011   0.00000  Uiso   1.00
O304   O     0.00290   0.71355   0.15377   0.00000  Uiso   1.00
C305   C     0.50005   0.66527   0.25041   0.00000  Uiso   1.00
C306   C     0.52724   0.78254   0.44832   0.00000  Uiso   1.00
C307   C     0.49901   0.75046   0.02719   0.00000  Uiso   1.00
C308   C     0.49916   0.75073   0.47250   0.00000  Uiso   1.00
C309   C     0.40149   0.74907   0.23792   0.00000  Uiso   1.00
C310   C     0.59852   0.75081   0.26207   0.00000  Uiso   1.00
C311   C     0.34693   0.74191   0.23289   0.00000  Uiso   1.00
C312   C     0.65309   0.75800   0.26702   0.00000  Uiso   1.00
C313   C     0.53787   0.54703   0.27459   0.00000  Uiso   1.00
C314   C     0.49191   0.95616   0.20814   0.00000  Uiso   1.00
C315   C     0.54076   0.59334   0.27393   0.00000  Uiso   1.00
C316   C     0.49885   0.83526   0.24945   0.00000  Uiso   1.00
C317   C     0.49296   0.90988   0.20557   0.00000  Uiso   1.00
C318   C     0.49881   0.61741   0.25160   0.00000  Uiso   1.00
C319   C     0.49570   0.88405   0.24878   0.00000  Uiso   1.00
C320   C     0.45392   0.59598   0.23172   0.00000  Uiso   1.00
C321   C     0.49442   0.90510   0.29320   0.00000  Uiso   1.00
C322   C     0.44931   0.55010   0.23432   0.00000  Uiso   1.00
C323   C     0.49084   0.95091   0.29606   0.00000  Uiso   1.00
C324   C     0.49196   0.52534   0.25514   0.00000  Uiso   1.00
C325   C     0.49042   0.97664   0.25314   0.00000  Uiso   1.00
C326   C     0.65897   0.70965   0.19520   0.00000  Uiso   1.00
C327   C     0.53713   0.77318   0.05765   0.00000  Uiso   1.00
C328   C     0.34098   0.79074   0.30420   0.00000  Uiso   1.00
C329   C     0.58231   0.52172   0.29424   0.00000  Uiso   1.00
C330   C     0.49359   0.98291   0.16447   0.00000  Uiso   1.00
C331   C     0.58688   0.61616   0.29523   0.00000  Uiso   1.00
C332   C     0.49002   0.88992   0.15824   0.00000  Uiso   1.00
C333   C     0.39991   0.52910   0.21373   0.00000  Uiso   1.00
C334   C     0.48750   0.97068   0.34439   0.00000  Uiso   1.00
C335   C     0.57408   0.80071   0.13627   0.00000  Uiso   1.00
C336   C     0.43835   0.68832   0.36475   0.00000  Uiso   1.00
C337   C     0.47115   0.71896   0.44328   0.00000  Uiso   1.00
C338   C     0.53640   0.77358   0.10805   0.00000  Uiso   1.00
C339   C     0.47094   0.71967   0.39273   0.00000  Uiso   1.00
C340   C     0.46285   0.72719   0.10095   0.00000  Uiso   1.00
C341   C     0.52777   0.78112   0.39785   0.00000  Uiso   1.00
C342   C     0.46112   0.72759   0.05016   0.00000  Uiso   1.00
Cu343  Cu    0.50000   0.74999   0.29821   0.00000  Uiso   1.00
Cu344  Cu    0.50000   0.75000   0.20178   0.00000  Uiso   1.00
H345   H     0.42171   0.61536   0.21544   0.00000  Uiso   1.00
H346   H     0.38395   0.84581   0.31955   0.00000  Uiso   1.00
H347   H     0.39350   0.99003   0.27240   0.00000  Uiso   1.00
H348   H     0.46561   0.52156   0.38270   0.00000  Uiso   1.00
H349   H     0.49527   0.88554   0.32625   0.00000  Uiso   1.00
H350   H     0.56790   0.79075   0.04293   0.00000  Uiso   1.00
H351   H     0.44936   0.69320   0.45913   0.00000  Uiso   1.00
H352   H     0.43383   0.70893   0.11759   0.00000  Uiso   1.00
H353   H     0.55001   0.80552   0.38035   0.00000  Uiso   1.00
H354   H     0.42959   0.71031   0.02958   0.00000  Uiso   1.00
H355   H     0.54844   0.80902   0.46758   0.00000  Uiso   1.00
H356   H     0.61605   0.65475   0.17895   0.00000  Uiso   1.00
N357   N     0.50000   0.75001   0.12934   0.00000  Uiso   1.00
N358   N     0.50000   0.74999   0.37065   0.00000  Uiso   1.00
N359   N     0.61773   0.50152   0.30990   0.00000  Uiso   1.00
N360   N     0.49494   0.50423   0.12973   0.00000  Uiso   1.00
N361   N     0.62363   0.63438   0.31229   0.00000  Uiso   1.00
N362   N     0.48732   0.87442   0.12024   0.00000  Uiso   1.00
N363   N     0.60447   0.82283   0.15849   0.00000  Uiso   1.00
N364   N     0.41191   0.66305   0.34257   0.00000  Uiso   1.00
O365   O     0.50000   0.68572   0.29071   0.00000  Uiso   1.00
O366   O     0.62797   0.67432   0.20752   0.00000  Uiso   1.00
O367   O     0.66364   0.78745   0.34565   0.00000  Uiso   1.00
O368   O     0.37193   0.82593   0.29127   0.00000  Uiso   1.00
O369   O     0.37829   0.54245   0.17492   0.00000  Uiso   1.00
O370   O     0.37679   0.99495   0.23801   0.00000  Uiso   1.00
O371   O     0.50331   0.95026   0.38144   0.00000  Uiso   1.00
O372   O     0.46555   0.51208   0.34792   0.00000  Uiso   1.00
O373   O     0.50000   0.81427   0.20928   0.00000  Uiso   1.00
O374   O     0.50000   0.68573   0.20928   0.00000  Uiso   1.00
O375   O     0.50000   0.81427   0.29072   0.00000  Uiso   1.00
O376   O     0.42495   0.74999   0.28132   0.00000  Uiso   1.00
O377   O     0.57505   0.75000   0.21868   0.00000  Uiso   1.00
O378   O     0.42495   0.75000   0.19989   0.00000  Uiso   1.00
O379   O     0.57505   0.75000   0.30011   0.00000  Uiso   1.00
O380   O     0.33623   0.71355   0.15377   0.00000  Uiso   1.00
C381   C     0.83338   0.66527   0.25041   0.00000  Uiso   1.00
C382   C     0.86057   0.78254   0.44832   0.00000  Uiso   1.00
C383   C     0.83235   0.75046   0.02719   0.00000  Uiso   1.00
C384   C     0.83249   0.75073   0.47250   0.00000  Uiso   1.00
C385   C     0.73482   0.74907   0.23792   0.00000  Uiso   1.00
C386   C     0.93185   0.75081   0.26207   0.00000  Uiso   1.00
C387   C     0.68026   0.74191   0.23289   0.00000  Uiso   1.00
C388   C     0.98642   0.75800   0.26702   0.00000  Uiso   1.00
C389   C     0.87120   0.54703   0.27459   0.00000  Uiso   1.00
C390   C     0.82524   0.95616   0.20814   0.00000  Uiso   1.00
C391   C     0.87409   0.59334   0.27393   0.00000  Uiso   1.00
C392   C     0.83218   0.83526   0.24945   0.00000  Uiso   1.00
C393   C     0.82629   0.90988   0.20557   0.00000  Uiso   1.00
C394   C     0.83215   0.61741   0.25160   0.00000  Uiso   1.00
C395   C     0.82903   0.88405   0.24878   0.00000  Uiso   1.00
C396   C     0.78725   0.59598   0.23172   0.00000  Uiso   1.00
C397   C     0.82775   0.90510   0.29320   0.00000  Uiso   1.00
C398   C     0.78265   0.55010   0.23432   0.00000  Uiso   1.00
C399   C     0.82417   0.95091   0.29606   0.00000  Uiso   1.00
C400   C     0.82529   0.52534   0.25514   0.00000  Uiso   1.00
C401   C     0.82375   0.97664   0.25314   0.00000  Uiso   1.00
C402   C     0.99231   0.70965   0.19520   0.00000  Uiso   1.00
C403   C     0.87046   0.77318   0.05765   0.00000  Uiso   1.00
C404   C     0.67431   0.79074   0.30420   0.00000  Uiso   1.00
C405   C     0.91565   0.52172   0.29424   0.00000  Uiso   1.00
C406   C     0.82692   0.98291   0.16447   0.00000  Uiso   1.00
C407   C     0.92022   0.61616   0.29523   0.00000  Uiso   1.00
C408   C     0.82336   0.88992   0.15824   0.00000  Uiso   1.00
C409   C     0.73325   0.52910   0.21373   0.00000  Uiso   1.00
C410   C     0.82083   0.97068   0.34439   0.00000  Uiso   1.00
C411   C     0.90742   0.80071   0.13627   0.00000  Uiso   1.00
C412   C     0.77169   0.68832   0.36475   0.00000  Uiso   1.00
C413   C     0.80448   0.71896   0.44328   0.00000  Uiso   1.00
C414   C     0.86974   0.77358   0.10805   0.00000  Uiso   1.00
C415   C     0.80428   0.71967   0.39273   0.00000  Uiso   1.00
C416   C     0.79619   0.72719   0.10095   0.00000  Uiso   1.00
C417   C     0.86110   0.78112   0.39785   0.00000  Uiso   1.00
C418   C     0.79445   0.72759   0.05016   0.00000  Uiso   1.00
Cu419  Cu    0.83333   0.74999   0.29821   0.00000  Uiso   1.00
Cu420  Cu    0.83333   0.75000   0.20178   0.00000  Uiso   1.00
H421   H     0.75505   0.61536   0.21544   0.00000  Uiso   1.00
H422   H     0.71728   0.84581   0.31955   0.00000  Uiso   1.00
H423   H     0.72683   0.99003   0.27240   0.00000  Uiso   1.00
H424   H     0.79894   0.52156   0.38270   0.00000  Uiso   1.00
H425   H     0.82860   0.88554   0.32625   0.00000  Uiso   1.00
H426   H     0.90123   0.79075   0.04293   0.00000  Uiso   1.00
H427   H     0.78270   0.69320   0.45913   0.00000  Uiso   1.00
H428   H     0.76716   0.70893   0.11759   0.00000  Uiso   1.00
H429   H     0.88334   0.80552   0.38035   0.00000  Uiso   1.00
H430   H     0.76293   0.71031   0.02958   0.00000  Uiso   1.00
H431   H     0.88178   0.80902   0.46758   0.00000  Uiso   1.00
H432   H     0.94939   0.65475   0.17895   0.00000  Uiso   1.00
N433   N     0.83333   0.75001   0.12934   0.00000  Uiso   1.00
N434   N     0.83333   0.74999   0.37065   0.00000  Uiso   1.00
N435   N     0.95106   0.50152   0.30990   0.00000  Uiso   1.00
N436   N     0.82827   0.50423   0.12973   0.00000  Uiso   1.00
N437   N     0.95696   0.63438   0.31229   0.00000  Uiso   1.00
N438   N     0.82065   0.87442   0.12024   0.00000  Uiso   1.00
N439   N     0.93780   0.82283   0.15849   0.00000  Uiso   1.00
N440   N     0.74525   0.66305   0.34257   0.00000  Uiso   1.00
O441   O     0.83334   0.68572   0.29071   0.00000  Uiso   1.00
O442   O     0.96130   0.67432   0.20752   0.00000  Uiso   1.00
O443   O     0.99697   0.78745   0.34565   0.00000  Uiso   1.00
O444   O     0.70526   0.82593   0.29127   0.00000  Uiso   1.00
O445   O     0.71163   0.54245   0.17492   0.00000  Uiso   1.00
O446   O     0.71012   0.99495   0.23801   0.00000  Uiso   1.00
O447   O     0.83664   0.95026   0.38144   0.00000  Uiso   1.00
O448   O     0.79888   0.51208   0.34792   0.00000  Uiso   1.00
O449   O     0.83333   0.81427   0.20928   0.00000  Uiso   1.00
O450   O     0.83334   0.68573   0.20928   0.00000  Uiso   1.00
O451   O     0.83333   0.81427   0.29072   0.00000  Uiso   1.00
O452   O     0.75828   0.74999   0.28132   0.00000  Uiso   1.00
O453   O     0.90839   0.75000   0.21868   0.00000  Uiso   1.00
O454   O     0.75828   0.75000   0.19989   0.00000  Uiso   1.00
O455   O     0.90839   0.75000   0.30011   0.00000  Uiso   1.00
O456   O     0.66957   0.71355   0.15377   0.00000  Uiso   1.00
C457   C     0.16672   0.16527   0.75041   0.00000  Uiso   1.00
C458   C     0.19391   0.28254   0.94832   0.00000  Uiso   1.00
C459   C     0.16568   0.25046   0.52719   0.00000  Uiso   1.00
C460   C     0.16582   0.25073   0.97250   0.00000  Uiso   1.00
C461   C     0.06816   0.24907   0.73792   0.00000  Uiso   1.00
C462   C     0.26519   0.25081   0.76207   0.00000  Uiso   1.00
C463   C     0.01359   0.24191   0.73289   0.00000  Uiso   1.00
C464   C     0.31975   0.25800   0.76702   0.00000  Uiso   1.00
C465   C     0.20454   0.04703   0.77459   0.00000  Uiso   1.00
C466   C     0.15858   0.45616   0.70814   0.00000  Uiso   1.00
C467   C     0.20742   0.09334   0.77393   0.00000  Uiso   1.00
C468   C     0.16552   0.33526   0.74945   0.00000  Uiso   1.00
C469   C     0.15963   0.40988   0.70557   0.00000  Uiso   1.00
C470   C     0.16548   0.11741   0.75160   0.00000  Uiso   1.00
C471   C     0.16236   0.38405   0.74878   0.00000  Uiso   1.00
C472   C     0.12058   0.09598   0.73172   0.00000  Uiso   1.00
C473   C     0.16109   0.40510   0.79320   0.00000  Uiso   1.00
C474   C     0.11598   0.05010   0.73432   0.00000  Uiso   1.00
C475   C     0.15750   0.45091   0.79606   0.00000  Uiso   1.00
C476   C     0.15863   0.02534   0.75514   0.00000  Uiso   1.00
C477   C     0.15708   0.47664   0.75314   0.00000  Uiso   1.00
C478   C     0.32564   0.20965   0.69520   0.00000  Uiso   1.00
C479   C     0.20380   0.27318   0.55765   0.00000  Uiso   1.00
C480   C     0.00764   0.29074   0.80420   0.00000  Uiso   1.00
C481   C     0.24898   0.02172   0.79424   0.00000  Uiso   1.00
C482   C     0.16025   0.48291   0.66447   0.00000  Uiso   1.00
C483   C     0.25355   0.11616   0.79523   0.00000  Uiso   1.00
C484   C     0.15669   0.38992   0.65824   0.00000  Uiso   1.00
C485   C     0.06658   0.02910   0.71373   0.00000  Uiso   1.00
C486   C     0.15417   0.47068   0.84439   0.00000  Uiso   1.00
C487   C     0.24075   0.30071   0.63627   0.00000  Uiso   1.00
C488   C     0.10502   0.18832   0.86475   0.00000  Uiso   1.00
C489   C     0.13781   0.21896   0.94328   0.00000  Uiso   1.00
C490   C     0.20307   0.27358   0.60805   0.00000  Uiso   1.00
C491   C     0.13761   0.21967   0.89273   0.00000  Uiso   1.00
C492   C     0.12952   0.22719   0.60095   0.00000  Uiso   1.00
C493   C     0.19444   0.28112   0.89785   0.00000  Uiso   1.00
C494   C     0.12779   0.22759   0.55016   0.00000  Uiso   1.00
Cu495  Cu    0.16667   0.24999   0.79821   0.00000  Uiso   1.00
Cu496  Cu    0.16667   0.25000   0.70178   0.00000  Uiso   1.00
H497   H     0.08838   0.11536   0.71544   0.00000  Uiso   1.00
H498   H     0.05061   0.34581   0.81955   0.00000  Uiso   1.00
H499   H     0.06016   0.49003   0.77240   0.00000  Uiso   1.00
H500   H     0.13228   0.02156   0.88270   0.00000  Uiso   1.00
H501   H     0.16193   0.38554   0.82625   0.00000  Uiso   1.00
H502   H     0.23457   0.29075   0.54293   0.00000  Uiso   1.00
H503   H     0.11603   0.19320   0.95913   0.00000  Uiso   1.00
H504   H     0.10049   0.20893   0.61759   0.00000  Uiso   1.00
H505   H     0.21668   0.30552   0.88035   0.00000  Uiso   1.00
H506   H     0.09626   0.21031   0.52958   0.00000  Uiso   1.00
H507   H     0.21511   0.30902   0.96758   0.00000  Uiso   1.00
H508   H     0.28272   0.15475   0.67895   0.00000  Uiso   1.00
N509   N     0.16667   0.25001   0.62934   0.00000  Uiso   1.00
N510   N     0.16667   0.24999   0.87065   0.00000  Uiso   1.00
N511   N     0.28439   0.00152   0.80990   0.00000  Uiso   1.00
N512   N     0.16161   0.00423   0.62973   0.00000  Uiso   1.00
N513   N     0.29030   0.13438   0.81229   0.00000  Uiso   1.00
N514   N     0.15399   0.37442   0.62024   0.00000  Uiso   1.00
N515   N     0.27113   0.32283   0.65849   0.00000  Uiso   1.00
N516   N     0.07858   0.16305   0.84257   0.00000  Uiso   1.00
O517   O     0.16667   0.18572   0.79071   0.00000  Uiso   1.00
O518   O     0.29463   0.17432   0.70752   0.00000  Uiso   1.00
O519   O     0.33030   0.28745   0.84565   0.00000  Uiso   1.00
O520   O     0.03859   0.32593   0.79127   0.00000  Uiso   1.00
O521   O     0.04496   0.04245   0.67492   0.00000  Uiso   1.00
O522   O     0.04346   0.49495   0.73801   0.00000  Uiso   1.00
O523   O     0.16998   0.45026   0.88144   0.00000  Uiso   1.00
O524   O     0.13221   0.01208   0.84792   0.00000  Uiso   1.00
O525   O     0.16666   0.31427   0.70928   0.00000  Uiso   1.00
O526   O     0.16667   0.18573   0.70928   0.00000  Uiso   1.00
O527   O     0.16666   0.31427   0.79072   0.00000  Uiso   1.00
O528   O     0.09161   0.24999   0.78132   0.00000  Uiso   1.00
O529   O     0.24172   0.25000   0.71868   0.00000  Uiso   1.00
O530   O     0.09161   0.25000   0.69989   0.00000  Uiso   1.00
O531   O     0.24172   0.25000   0.80011   0.00000  Uiso   1.00
O532   O     0.00290   0.21355   0.65377   0.00000  Uiso   1.00
C533   C     0.50005   0.16527   0.75041   0.00000  Uiso   1.00
C534   C     0.52724   0.28254   0.94832   0.00000  Uiso   1.00
C535   C     0.49901   0.25046   0.52719   0.00000  Uiso   1.00
C536   C     0.49916   0.25073   0.97250   0.00000  Uiso   1.00
C537   C     0.40149   0.24907   0.73792   0.00000  Uiso   1.00
C538   C     0.59852   0.25081   0.76207   0.00000  Uiso   1.00
C539   C     0.34693   0.24191   0.73289   0.00000  Uiso   1.00
C540   C     0.65309   0.25800   0.76702   0.00000  Uiso   1.00
C541   C     0.53787   0.04703   0.77459   0.00000  Uiso   1.00
C542   C     0.49191   0.45616   0.70814   0.00000  Uiso   1.00
C543   C     0.54076   0.09334   0.77393   0.00000  Uiso   1.00
C544   C     0.49885   0.33526   0.74945   0.00000  Uiso   1.00
C545   C     0.49296   0.40988   0.70557   0.00000  Uiso   1.00
C546   C     0.49881   0.11741   0.75160   0.00000  Uiso   1.00
C547   C     0.49570   0.38405   0.74878   0.00000  Uiso   1.00
C548   C     0.45392   0.09598   0.73172   0.00000  Uiso   1.00
C549   C     0.49442   0.40510   0.79320   0.00000  Uiso   1.00
C550   C     0.44931   0.05010   0.73432   0.00000  Uiso   1.00
C551   C     0.49084   0.45091   0.79606   0.00000  Uiso   1.00
C552   C     0.49196   0.02534   0.75514   0.00000  Uiso   1.00
C553   C     0.49042   0.47664   0.75314   0.00000  Uiso   1.00
C554   C     0.65897   0.20965   0.69520   0.00000  Uiso   1.00
C555   C     0.53713   0.27318   0.55765   0.00000  Uiso   1.00
C556   C     0.34098   0.29074   0.80420   0.00000  Uiso   1.00
C557   C     0.58231   0.02172   0.79424   0.00000  Uiso   1.00
C558   C     0.49359   0.48291   0.66447   0.00000  Uiso   1.00
C559   C     0.58688   0.11616   0.79523   0.00000  Uiso   1.00
C560   C     0.49002   0.38992   0.65824   0.00000  Uiso   1.00
C561   C     0.39991   0.02910   0.71373   0.00000  Uiso   1.00
C562   C     0.48750   0.47068   0.84439   0.00000  Uiso   1.00
C563   C     0.57408   0.30071   0.63627   0.00000  Uiso   1.00
C564   C     0.43835   0.18832   0.86475   0.00000  Uiso   1.00
C565   C     0.47115   0.21896   0.94328   0.00000  Uiso   1.00
C566   C     0.53640   0.27358   0.60805   0.00000  Uiso   1.00
C567   C     0.47094   0.21967   0.89273   0.00000  Uiso   1.00
C568   C     0.46285   0.22719   0.60095   0.00000  Uiso   1.00
C569   C     0.52777   0.28112   0.89785   0.00000  Uiso   1.00
C570   C     0.46112   0.22759   0.55016   0.00000  Uiso   1.00
Cu571  Cu    0.50000   0.24999   0.79821   0.00000  Uiso   1.00
Cu572  Cu    0.50000   0.25000   0.70178   0.00000  Uiso   1.00
H573   H     0.42171   0.11536   0.71544   0.00000  Uiso   1.00
H574   H     0.38395   0.34581   0.81955   0.00000  Uiso   1.00
H575   H     0.39350   0.49003   0.77240   0.00000  Uiso   1.00
H576   H     0.46561   0.02156   0.88270   0.00000  Uiso   1.00
H577   H     0.49527   0.38554   0.82625   0.00000  Uiso   1.00
H578   H     0.56790   0.29075   0.54293   0.00000  Uiso   1.00
H579   H     0.44936   0.19320   0.95913   0.00000  Uiso   1.00
H580   H     0.43383   0.20893   0.61759   0.00000  Uiso   1.00
H581   H     0.55001   0.30552   0.88035   0.00000  Uiso   1.00
H582   H     0.42959   0.21031   0.52958   0.00000  Uiso   1.00
H583   H     0.54844   0.30902   0.96758   0.00000  Uiso   1.00
H584   H     0.61605   0.15475   0.67895   0.00000  Uiso   1.00
N585   N     0.50000   0.25001   0.62934   0.00000  Uiso   1.00
N586   N     0.50000   0.24999   0.87065   0.00000  Uiso   1.00
N587   N     0.61773   0.00152   0.80990   0.00000  Uiso   1.00
N588   N     0.49494   0.00423   0.62973   0.00000  Uiso   1.00
N589   N     0.62363   0.13438   0.81229   0.00000  Uiso   1.00
N590   N     0.48732   0.37442   0.62024   0.00000  Uiso   1.00
N591   N     0.60447   0.32283   0.65849   0.00000  Uiso   1.00
N592   N     0.41191   0.16305   0.84257   0.00000  Uiso   1.00
O593   O     0.50000   0.18572   0.79071   0.00000  Uiso   1.00
O594   O     0.62797   0.17432   0.70752   0.00000  Uiso   1.00
O595   O     0.66364   0.28745   0.84565   0.00000  Uiso   1.00
O596   O     0.37193   0.32593   0.79127   0.00000  Uiso   1.00
O597   O     0.37829   0.04245   0.67492   0.00000  Uiso   1.00
O598   O     0.37679   0.49495   0.73801   0.00000  Uiso   1.00
O599   O     0.50331   0.45026   0.88144   0.00000  Uiso   1.00
O600   O     0.46555   0.01208   0.84792   0.00000  Uiso   1.00
O601   O     0.50000   0.31427   0.70928   0.00000  Uiso   1.00
O602   O     0.50000   0.18573   0.70928   0.00000  Uiso   1.00
O603   O     0.50000   0.31427   0.79072   0.00000  Uiso   1.00
O604   O     0.42495   0.24999   0.78132   0.00000  Uiso   1.00
O605   O     0.57505   0.25000   0.71868   0.00000  Uiso   1.00
O606   O     0.42495   0.25000   0.69989   0.00000  Uiso   1.00
O607   O     0.57505   0.25000   0.80011   0.00000  Uiso   1.00
O608   O     0.33623   0.21355   0.65377   0.00000  Uiso   1.00
C609   C     0.83338   0.16527   0.75041   0.00000  Uiso   1.00
C610   C     0.86057   0.28254   0.94832   0.00000  Uiso   1.00
C611   C     0.83235   0.25046   0.52719   0.00000  Uiso   1.00
C612   C     0.83249   0.25073   0.97250   0.00000  Uiso   1.00
C613   C     0.73482   0.24907   0.73792   0.00000  Uiso   1.00
C614   C     0.93185   0.25081   0.76207   0.00000  Uiso   1.00
C615   C     0.68026   0.24191   0.73289   0.00000  Uiso   1.00
C616   C     0.98642   0.25800   0.76702   0.00000  Uiso   1.00
C617   C     0.87120   0.04703   0.77459   0.00000  Uiso   1.00
C618   C     0.82524   0.45616   0.70814   0.00000  Uiso   1.00
C619   C     0.87409   0.09334   0.77393   0.00000  Uiso   1.00
C620   C     0.83218   0.33526   0.74945   0.00000  Uiso   1.00
C621   C     0.82629   0.40988   0.70557   0.00000  Uiso   1.00
C622   C     0.83215   0.11741   0.75160   0.00000  Uiso   1.00
C623   C     0.82903   0.38405   0.74878   0.00000  Uiso   1.00
C624   C     0.78725   0.09598   0.73172   0.00000  Uiso   1.00
C625   C     0.82775   0.40510   0.79320   0.00000  Uiso   1.00
C626   C     0.78265   0.05010   0.73432   0.00000  Uiso   1.00
C627   C     0.82417   0.45091   0.79606   0.00000  Uiso   1.00
C628   C     0.82529   0.02534   0.75514   0.00000  Uiso   1.00
C629   C     0.82375   0.47664   0.75314   0.00000  Uiso   1.00
C630   C     0.99231   0.20965   0.69520   0.00000  Uiso   1.00
C631   C     0.87046   0.27318   0.55765   0.00000  Uiso   1.00
C632   C     0.67431   0.29074   0.80420   0.00000  Uiso   1.00
C633   C     0.91565   0.02172   0.79424   0.00000  Uiso   1.00
C634   C     0.82692   0.48291   0.66447   0.00000  Uiso   1.00
C635   C     0.92022   0.11616   0.79523   0.00000  Uiso   1.00
C636   C     0.82336   0.38992   0.65824   0.00000  Uiso   1.00
C637   C     0.73325   0.02910   0.71373   0.00000  Uiso   1.00
C638   C     0.82083   0.47068   0.84439   0.00000  Uiso   1.00
C639   C     0.90742   0.30071   0.63627   0.00000  Uiso   1.00
C640   C     0.77169   0.18832   0.86475   0.00000  Uiso   1.00
C641   C     0.80448   0.21896   0.94328   0.00000  Uiso   1.00
C642   C     0.86974   0.27358   0.60805   0.00000  Uiso   1.00
C643   C     0.80428   0.21967   0.89273   0.00000  Uiso   1.00
C644   C     0.79619   0.22719   0.60095   0.00000  Uiso   1.00
C645   C     0.86110   0.28112   0.89785   0.00000  Uiso   1.00
C646   C     0.79445   0.22759   0.55016   0.00000  Uiso   1.00
Cu647  Cu    0.83333   0.24999   0.79821   0.00000  Uiso   1.00
Cu648  Cu    0.83333   0.25000   0.70178   0.00000  Uiso   1.00
H649   H     0.75505   0.11536   0.71544   0.00000  Uiso   1.00
H650   H     0.71728   0.34581   0.81955   0.00000  Uiso   1.00
H651   H     0.72683   0.49003   0.77240   0.00000  Uiso   1.00
H652   H     0.79894   0.02156   0.88270   0.00000  Uiso   1.00
H653   H     0.82860   0.38554   0.82625   0.00000  Uiso   1.00
H654   H     0.90123   0.29075   0.54293   0.00000  Uiso   1.00
H655   H     0.78270   0.19320   0.95913   0.00000  Uiso   1.00
H656   H     0.76716   0.20893   0.61759   0.00000  Uiso   1.00
H657   H     0.88334   0.30552   0.88035   0.00000  Uiso   1.00
H658   H     0.76293   0.21031   0.52958   0.00000  Uiso   1.00
H659   H     0.88178   0.30902   0.96758   0.00000  Uiso   1.00
H660   H     0.94939   0.15475   0.67895   0.00000  Uiso   1.00
N661   N     0.83333   0.25001   0.62934   0.00000  Uiso   1.00
N662   N     0.83333   0.24999   0.87065   0.00000  Uiso   1.00
N663   N     0.95106   0.00152   0.80990   0.00000  Uiso   1.00
N664   N     0.82827   0.00423   0.62973   0.00000  Uiso   1.00
N665   N     0.95696   0.13438   0.81229   0.00000  Uiso   1.00
N666   N     0.82065   0.37442   0.62024   0.00000  Uiso   1.00
N667   N     0.93780   0.32283   0.65849   0.00000  Uiso   1.00
N668   N     0.74525   0.16305   0.84257   0.00000  Uiso   1.00
O669   O     0.83334   0.18572   0.79071   0.00000  Uiso   1.00
O670   O     0.96130   0.17432   0.70752   0.00000  Uiso   1.00
O671   O     0.99697   0.28745   0.84565   0.00000  Uiso   1.00
O672   O     0.70526   0.32593   0.79127   0.00000  Uiso   1.00
O673   O     0.71163   0.04245   0.67492   0.00000  Uiso   1.00
O674   O     0.71012   0.49495   0.73801   0.00000  Uiso   1.00
O675   O     0.83664   0.45026   0.88144   0.00000  Uiso   1.00
O676   O     0.79888   0.01208   0.84792   0.00000  Uiso   1.00
O677   O     0.83333   0.31427   0.70928   0.00000  Uiso   1.00
O678   O     0.83334   0.18573   0.70928   0.00000  Uiso   1.00
O679   O     0.83333   0.31427   0.79072   0.00000  Uiso   1.00
O680   O     0.75828   0.24999   0.78132   0.00000  Uiso   1.00
O681   O     0.90839   0.25000   0.71868   0.00000  Uiso   1.00
O682   O     0.75828   0.25000   0.69989   0.00000  Uiso   1.00
O683   O     0.90839   0.25000   0.80011   0.00000  Uiso   1.00
O684   O     0.66957   0.21355   0.65377   0.00000  Uiso   1.00
C685   C     0.16672   0.66527   0.75041   0.00000  Uiso   1.00
C686   C     0.19391   0.78254   0.94832   0.00000  Uiso   1.00
C687   C     0.16568   0.75046   0.52719   0.00000  Uiso   1.00
C688   C     0.16582   0.75073   0.97250   0.00000  Uiso   1.00
C689   C     0.06816   0.74907   0.73792   0.00000  Uiso   1.00
C690   C     0.26519   0.75081   0.76207   0.00000  Uiso   1.00
C691   C     0.01359   0.74191   0.73289   0.00000  Uiso   1.00
C692   C     0.31975   0.75800   0.76702   0.00000  Uiso   1.00
C693   C     0.20454   0.54703   0.77459   0.00000  Uiso   1.00
C694   C     0.15858   0.95616   0.70814   0.00000  Uiso   1.00
C695   C     0.20742   0.59334   0.77393   0.00000  Uiso   1.00
C696   C     0.16552   0.83526   0.74945   0.00000  Uiso   1.00
C697   C     0.15963   0.90988   0.70557   0.00000  Uiso   1.00
C698   C     0.16548   0.61741   0.75160   0.00000  Uiso   1.00
C699   C     0.16236   0.88405   0.74878   0.00000  Uiso   1.00
C700   C     0.12058   0.59598   0.73172   0.00000  Uiso   1.00
C701   C     0.16109   0.90510   0.79320   0.00000  Uiso   1.00
C702   C     0.11598   0.55010   0.73432   0.00000  Uiso   1.00
C703   C     0.15750   0.95091   0.79606   0.00000  Uiso   1.00
C704   C     0.15863   0.52534   0.75514   0.00000  Uiso   1.00
C705   C     0.15708   0.97664   0.75314   0.00000  Uiso   1.00
C706   C     0.32564   0.70965   0.69520   0.00000  Uiso   1.00
C707   C     0.20380   0.77318   0.55765   0.00000  Uiso   1.00
C708   C     0.00764   0.79074   0.80420   0.00000  Uiso   1.00
C709   C     0.24898   0.52172   0.79424   0.00000  Uiso   1.00
C710   C     0.16025   0.98291   0.66447   0.00000  Uiso   1.00
C711   C     0.25355   0.61616   0.79523   0.00000  Uiso   1.00
C712   C     0.15669   0.88992   0.65824   0.00000  Uiso   1.00
C713   C     0.06658   0.52910   0.71373   0.00000  Uiso   1.00
C714   C     0.15417   0.97068   0.84439   0.00000  Uiso   1.00
C715   C     0.24075   0.80071   0.63627   0.00000  Uiso   1.00
C716   C     0.10502   0.68832   0.86475   0.00000  Uiso   1.00
C717   C     0.13781   0.71896   0.94328   0.00000  Uiso   1.00
C718   C     0.20307   0.77358   0.60805   0.00000  Uiso   1.00
C719   C     0.13761   0.71967   0.89273   0.00000  Uiso   1.00
C720   C     0.12952   0.72719   0.60095   0.00000  Uiso   1.00
C721   C     0.19444   0.78112   0.89785   0.00000  Uiso   1.00
C722   C     0.12779   0.72759   0.55016   0.00000  Uiso   1.00
Cu723  Cu    0.16667   0.74999   0.79821   0.00000  Uiso   1.00
Cu724  Cu    0.16667   0.75000   0.70178   0.00000  Uiso   1.00
H725   H     0.08838   0.61536   0.71544   0.00000  Uiso   1.00
H726   H     0.05061   0.84581   0.81955   0.00000  Uiso   1.00
H727   H     0.06016   0.99003   0.77240   0.00000  Uiso   1.00
H728   H     0.13228   0.52156   0.88270   0.00000  Uiso   1.00
H729   H     0.16193   0.88554   0.82625   0.00000  Uiso   1.00
H730   H     0.23457   0.79075   0.54293   0.00000  Uiso   1.00
H731   H     0.11603   0.69320   0.95913   0.00000  Uiso   1.00
H732   H     0.10049   0.70893   0.61759   0.00000  Uiso   1.00
H733   H     0.21668   0.80552   0.88035   0.00000  Uiso   1.00
H734   H     0.09626   0.71031   0.52958   0.00000  Uiso   1.00
H735   H     0.21511   0.80902   0.96758   0.00000  Uiso   1.00
H736   H     0.28272   0.65475   0.67895   0.00000  Uiso   1.00
N737   N     0.16667   0.75001   0.62934   0.00000  Uiso   1.00
N738   N     0.16667   0.74999   0.87065   0.00000  Uiso   1.00
N739   N     0.28439   0.50152   0.80990   0.00000  Uiso   1.00
N740   N     0.16161   0.50423   0.62973   0.00000  Uiso   1.00
N741   N     0.29030   0.63438   0.81229   0.00000  Uiso   1.00
N742   N     0.15399   0.87442   0.62024   0.00000  Uiso   1.00
N743   N     0.27113   0.82283   0.65849   0.00000  Uiso   1.00
N744   N     0.07858   0.66305   0.84257   0.00000  Uiso   1.00
O745   O     0.16667   0.68572   0.79071   0.00000  Uiso   1.00
O746   O     0.29463   0.67432   0.70752   0.00000  Uiso   1.00
O747   O     0.33030   0.78745   0.84565   0.00000  Uiso   1.00
O748   O     0.03859   0.82593   0.79127   0.00000  Uiso   1.00
O749   O     0.04496   0.54245   0.67492   0.00000  Uiso   1.00
O750   O     0.04346   0.99495   0.73801   0.00000  Uiso   1.00
O751   O     0.16998   0.95026   0.88144   0.00000  Uiso   1.00
O752   O     0.13221   0.51208   0.84792   0.00000  Uiso   1.00
O753   O     0.16666   0.81427   0.70928   0.00000  Uiso   1.00
O754   O     0.16667   0.68573   0.70928   0.00000  Uiso   1.00
O755   O     0.16666   0.81427   0.79072   0.00000  Uiso   1.00
O756   O     0.09161   0.74999   0.78132   0.00000  Uiso   1.00
O757   O     0.24172   0.75000   0.71868   0.00000  Uiso   1.00
O758   O     0.09161   0.75000   0.69989   0.00000  Uiso   1.00
O759   O     0.24172   0.75000   0.80011   0.00000  Uiso   1.00
O760   O     0.00290   0.71355   0.65377   0.00000  Uiso   1.00
C761   C     0.50005   0.66527   0.75041   0.00000  Uiso   1.00
C762   C     0.52724   0.78254   0.94832   0.00000  Uiso   1.00
C763   C     0.49901   0.75046   0.52719   0.00000  Uiso   1.00
C764   C     0.49916   0.75073   0.97250   0.00000  Uiso   1.00
C765   C     0.40149   0.74907   0.73792   0.00000  Uiso   1.00
C766   C     0.59852   0.75081   0.76207   0.00000  Uiso   1.00
C767   C     0.34693   0.74191   0.73289   0.00000  Uiso   1.00
C768   C     0.65309   0.75800   0.76702   0.00000  Uiso   1.00
C769   C     0.53787   0.54703   0.77459   0.00000  Uiso   1.00
C770   C     0.49191   0.95616   0.70814   0.00000  Uiso   1.00
C771   C     0.54076   0.59334   0.77393   0.00000  Uiso   1.00
C772   C     0.49885   0.83526   0.74945   0.00000  Uiso   1.00
C773   C     0.49296   0.90988   0.70557   0.00000  Uiso   1.00
C774   C     0.49881   0.61741   0.75160   0.00000  Uiso   1.00
C775   C     0.49570   0.88405   0.74878   0.00000  Uiso   1.00
C776   C     0.45392   0.59598   0.73172   0.00000  Uiso   1.00
C777   C     0.49442   0.90510   0.79320   0.00000  Uiso   1.00
C778   C     0.44931   0.55010   0.73432   0.00000  Uiso   1.00
C779   C     0.49084   0.95091   0.79606   0.00000  Uiso   1.00
C780   C     0.49196   0.52534   0.75514   0.00000  Uiso   1.00
C781   C     0.49042   0.97664   0.75314   0.00000  Uiso   1.00
C782   C     0.65897   0.70965   0.69520   0.00000  Uiso   1.00
C783   C     0.53713   0.77318   0.55765   0.00000  Uiso   1.00
C784   C     0.34098   0.79074   0.80420   0.00000  Uiso   1.00
C785   C     0.58231   0.52172   0.79424   0.00000  Uiso   1.00
C786   C     0.49359   0.98291   0.66447   0.00000  Uiso   1.00
C787   C     0.58688   0.61616   0.79523   0.00000  Uiso   1.00
C788   C     0.49002   0.88992   0.65824   0.00000  Uiso   1.00
C789   C     0.39991   0.52910   0.71373   0.00000  Uiso   1.00
C790   C     0.48750   0.97068   0.84439   0.00000  Uiso   1.00
C791   C     0.57408   0.80071   0.63627   0.00000  Uiso   1.00
C792   C     0.43835   0.68832   0.86475   0.00000  Uiso   1.00
C793   C     0.47115   0.71896   0.94328   0.00000  Uiso   1.00
C794   C     0.53640   0.77358   0.60805   0.00000  Uiso   1.00
C795   C     0.47094   0.71967   0.89273   0.00000  Uiso   1.00
C796   C     0.46285   0.72719   0.60095   0.00000  Uiso   1.00
C797   C     0.52777   0.78112   0.89785   0.00000  Uiso   1.00
C798   C     0.46112   0.72759   0.55016   0.00000  Uiso   1.00
Cu799  Cu    0.50000   0.74999   0.79821   0.00000  Uiso   1.00
Cu800  Cu    0.50000   0.75000   0.70178   0.00000  Uiso   1.00
H801   H     0.42171   0.61536   0.71544   0.00000  Uiso   1.00
H802   H     0.38395   0.84581   0.81955   0.00000  Uiso   1.00
H803   H     0.39350   0.99003   0.77240   0.00000  Uiso   1.00
H804   H     0.46561   0.52156   0.88270   0.00000  Uiso   1.00
H805   H     0.49527   0.88554   0.82625   0.00000  Uiso   1.00
H806   H     0.56790   0.79075   0.54293   0.00000  Uiso   1.00
H807   H     0.44936   0.69320   0.95913   0.00000  Uiso   1.00
H808   H     0.43383   0.70893   0.61759   0.00000  Uiso   1.00
H809   H     0.55001   0.80552   0.88035   0.00000  Uiso   1.00
H810   H     0.42959   0.71031   0.52958   0.00000  Uiso   1.00
H811   H     0.54844   0.80902   0.96758   0.00000  Uiso   1.00
H812   H     0.61605   0.65475   0.67895   0.00000  Uiso   1.00
N813   N     0.50000   0.75001   0.62934   0.00000  Uiso   1.00
N814   N     0.50000   0.74999   0.87065   0.00000  Uiso   1.00
N815   N     0.61773   0.50152   0.80990   0.00000  Uiso   1.00
N816   N     0.49494   0.50423   0.62973   0.00000  Uiso   1.00
N817   N     0.62363   0.63438   0.81229   0.00000  Uiso   1.00
N818   N     0.48732   0.87442   0.62024   0.00000  Uiso   1.00
N819   N     0.60447   0.82283   0.65849   0.00000  Uiso   1.00
N820   N     0.41191   0.66305   0.84257   0.00000  Uiso   1.00
O821   O     0.50000   0.68572   0.79071   0.00000  Uiso   1.00
O822   O     0.62797   0.67432   0.70752   0.00000  Uiso   1.00
O823   O     0.66364   0.78745   0.84565   0.00000  Uiso   1.00
O824   O     0.37193   0.82593   0.79127   0.00000  Uiso   1.00
O825   O     0.37829   0.54245   0.67492   0.00000  Uiso   1.00
O826   O     0.37679   0.99495   0.73801   0.00000  Uiso   1.00
O827   O     0.50331   0.95026   0.88144   0.00000  Uiso   1.00
O828   O     0.46555   0.51208   0.84792   0.00000  Uiso   1.00
O829   O     0.50000   0.81427   0.70928   0.00000  Uiso   1.00
O830   O     0.50000   0.68573   0.70928   0.00000  Uiso   1.00
O831   O     0.50000   0.81427   0.79072   0.00000  Uiso   1.00
O832   O     0.42495   0.74999   0.78132   0.00000  Uiso   1.00
O833   O     0.57505   0.75000   0.71868   0.00000  Uiso   1.00
O834   O     0.42495   0.75000   0.69989   0.00000  Uiso   1.00
O835   O     0.57505   0.75000   0.80011   0.00000  Uiso   1.00
O836   O     0.33623   0.71355   0.65377   0.00000  Uiso   1.00
C837   C     0.83338   0.66527   0.75041   0.00000  Uiso   1.00
C838   C     0.86057   0.78254   0.94832   0.00000  Uiso   1.00
C839   C     0.83235   0.75046   0.52719   0.00000  Uiso   1.00
C840   C     0.83249   0.75073   0.97250   0.00000  Uiso   1.00
C841   C     0.73482   0.74907   0.73792   0.00000  Uiso   1.00
C842   C     0.93185   0.75081   0.76207   0.00000  Uiso   1.00
C843   C     0.68026   0.74191   0.73289   0.00000  Uiso   1.00
C844   C     0.98642   0.75800   0.76702   0.00000  Uiso   1.00
C845   C     0.87120   0.54703   0.77459   0.00000  Uiso   1.00
C846   C     0.82524   0.95616   0.70814   0.00000  Uiso   1.00
C847   C     0.87409   0.59334   0.77393   0.00000  Uiso   1.00
C848   C     0.83218   0.83526   0.74945   0.00000  Uiso   1.00
C849   C     0.82629   0.90988   0.70557   0.00000  Uiso   1.00
C850   C     0.83215   0.61741   0.75160   0.00000  Uiso   1.00
C851   C     0.82903   0.88405   0.74878   0.00000  Uiso   1.00
C852   C     0.78725   0.59598   0.73172   0.00000  Uiso   1.00
C853   C     0.82775   0.90510   0.79320   0.00000  Uiso   1.00
C854   C     0.78265   0.55010   0.73432   0.00000  Uiso   1.00
C855   C     0.82417   0.95091   0.79606   0.00000  Uiso   1.00
C856   C     0.82529   0.52534   0.75514   0.00000  Uiso   1.00
C857   C     0.82375   0.97664   0.75314   0.00000  Uiso   1.00
C858   C     0.99231   0.70965   0.69520   0.00000  Uiso   1.00
C859   C     0.87046   0.77318   0.55765   0.00000  Uiso   1.00
C860   C     0.67431   0.79074   0.80420   0.00000  Uiso   1.00
C861   C     0.91565   0.52172   0.79424   0.00000  Uiso   1.00
C862   C     0.82692   0.98291   0.66447   0.00000  Uiso   1.00
C863   C     0.92022   0.61616   0.79523   0.00000  Uiso   1.00
C864   C     0.82336   0.88992   0.65824   0.00000  Uiso   1.00
C865   C     0.73325   0.52910   0.71373   0.00000  Uiso   1.00
C866   C     0.82083   0.97068   0.84439   0.00000  Uiso   1.00
C867   C     0.90742   0.80071   0.63627   0.00000  Uiso   1.00
C868   C     0.77169   0.68832   0.86475   0.00000  Uiso   1.00
C869   C     0.80448   0.71896   0.94328   0.00000  Uiso   1.00
C870   C     0.86974   0.77358   0.60805   0.00000  Uiso   1.00
C871   C     0.80428   0.71967   0.89273   0.00000  Uiso   1.00
C872   C     0.79619   0.72719   0.60095   0.00000  Uiso   1.00
C873   C     0.86110   0.78112   0.89785   0.00000  Uiso   1.00
C874   C     0.79445   0.72759   0.55016   0.00000  Uiso   1.00
Cu875  Cu    0.83333   0.74999   0.79821   0.00000  Uiso   1.00
Cu876  Cu    0.83333   0.75000   0.70178   0.00000  Uiso   1.00
H877   H     0.75505   0.61536   0.71544   0.00000  Uiso   1.00
H878   H     0.71728   0.84581   0.81955   0.00000  Uiso   1.00
H879   H     0.72683   0.99003   0.77240   0.00000  Uiso   1.00
H880   H     0.79894   0.52156   0.88270   0.00000  Uiso   1.00
H881   H     0.82860   0.88554   0.82625   0.00000  Uiso   1.00
H882   H     0.90123   0.79075   0.54293   0.00000  Uiso   1.00
H883   H     0.78270   0.69320   0.95913   0.00000  Uiso   1.00
H884   H     0.76716   0.70893   0.61759   0.00000  Uiso   1.00
H885   H     0.88334   0.80552   0.88035   0.00000  Uiso   1.00
H886   H     0.76293   0.71031   0.52958   0.00000  Uiso   1.00
H887   H     0.88178   0.80902   0.96758   0.00000  Uiso   1.00
H888   H     0.94939   0.65475   0.67895   0.00000  Uiso   1.00
N889   N     0.83333   0.75001   0.62934   0.00000  Uiso   1.00
N890   N     0.83333   0.74999   0.87065   0.00000  Uiso   1.00
N891   N     0.95106   0.50152   0.80990   0.00000  Uiso   1.00
N892   N     0.82827   0.50423   0.62973   0.00000  Uiso   1.00
N893   N     0.95696   0.63438   0.81229   0.00000  Uiso   1.00
N894   N     0.82065   0.87442   0.62024   0.00000  Uiso   1.00
N895   N     0.93780   0.82283   0.65849   0.00000  Uiso   1.00
N896   N     0.74525   0.66305   0.84257   0.00000  Uiso   1.00
O897   O     0.83334   0.68572   0.79071   0.00000  Uiso   1.00
O898   O     0.96130   0.67432   0.70752   0.00000  Uiso   1.00
O899   O     0.99697   0.78745   0.84565   0.00000  Uiso   1.00
O900   O     0.70526   0.82593   0.79127   0.00000  Uiso   1.00
O901   O     0.71163   0.54245   0.67492   0.00000  Uiso   1.00
O902   O     0.71012   0.99495   0.73801   0.00000  Uiso   1.00
O903   O     0.83664   0.95026   0.88144   0.00000  Uiso   1.00
O904   O     0.79888   0.51208   0.84792   0.00000  Uiso   1.00
O905   O     0.83333   0.81427   0.70928   0.00000  Uiso   1.00
O906   O     0.83334   0.68573   0.70928   0.00000  Uiso   1.00
O907   O     0.83333   0.81427   0.79072   0.00000  Uiso   1.00
O908   O     0.75828   0.74999   0.78132   0.00000  Uiso   1.00
O909   O     0.90839   0.75000   0.71868   0.00000  Uiso   1.00
O910   O     0.75828   0.75000   0.69989   0.00000  Uiso   1.00
O911   O     0.90839   0.75000   0.80011   0.00000  Uiso   1.00
O912   O     0.66957   0.71355   0.65377   0.00000  Uiso   1.00
loop_
_geom_bond_atom_site_label_1
_geom_bond_atom_site_label_2
_geom_bond_distance
_geom_bond_site_symmetry_2
_ccdc_geom_bond_type
C1     O61     1.290   .     A
C1     O70     1.292   .     A
C1     C14     1.449   .     S
C2     C4      1.416   .     A
C2     C37     1.408   .     A
C2     H51     1.079   .     S
C3     C23     1.407   .     A
C3     C38     1.416   .     A
C3     C460    1.522   1_554 S
C4     C33     1.407   .     A
C4     C459    1.522   .     S
C5     O72     1.285   .     A
C5     O74     1.290   .     A
C5     C7      1.438   .     S
C6     O75     1.290   .     A
C6     C8      1.438   .     S
C6     O73     1.285   .     A
C7     C160    1.359   1_455 S
C7     C174    1.495   1_455 S
C8     C83     1.359   .     S
C8     C100    1.495   .     S
C9     C25     1.452   .     S
C9     C20     1.415   .     A
C9     C11     1.403   .     A
C10    C26     1.454   .     S
C10    C21     1.412   .     A
C10    C13     1.405   .     A
C11    C14     1.405   .     A
C11    C27     1.451   .     S
C12    O69     1.298   .     A
C12    C15     1.480   .     S
C12    O71     1.300   .     A
C13    C28     1.451   .     S
C13    C15     1.418   .     A
C14    C16     1.394   .     A
C15    C17     1.404   .     A
C16    C18     1.394   .     A
C16    H41     1.085   .     S
C17    H45     1.083   .     S
C17    C19     1.396   .     A
C18    C29     1.489   .     S
C18    C20     1.416   .     A
C19    C21     1.414   .     A
C19    C30     1.494   .     S
C20    C249    1.476   1_545 S
C21    C248    1.476   .     S
C22    O62     1.399   .     S
C22    C83     1.495   .     S
C22    O152    1.223   .     S
C23    H46     1.081   .     S
C23    C34     1.405   .     A
C24    O64     1.400   .     S
C24    C160    1.495   1_455 S
C24    O215    1.223   1_455 S
C25    N55     1.157   .     T
C26    N284    1.157   .     S
C27    N57     1.157   .     T
C28    N58     1.157   .     T
C29    O65     1.221   .     D
C29    O294    1.398   1_545 S
C30    O67     1.224   .     D
C30    O296    1.399   .     S
C31    N59     1.158   .     T
C31    C34     1.439   .     S
C32    C35     1.439   .     S
C32    N60     1.158   .     T
C33    C35     1.406   .     A
C33    H47     1.081   .     S
C34    N53     1.372   .     A
C35    N54     1.371   .     A
C36    N53     1.363   .     A
C36    C38     1.408   .     A
C36    H48     1.081   .     S
C37    H49     1.082   .     S
C37    N54     1.362   .     A
C38    H50     1.079   .     S
Cu39   N54     2.015   .     S
Cu39   O72     1.971   .     S
Cu39   O75     1.968   .     S
Cu39   O61     1.960   .     S
Cu39   Cu40    2.683   .     S
Cu39   O71     1.954   .     S
Cu40   O70     1.954   .     S
Cu40   O73     1.971   .     S
Cu40   O69     1.960   .     S
Cu40   O74     1.968   .     S
Cu40   N53     2.015   .     S
H42    O64     1.014   .     S
H43    O66     1.011   .     S
H44    O68     1.014   .     S
H52    O62     1.014   .     S
N56    C254    1.157   1_545 S
O63    C100    1.223   .     S
O66    C257    1.398   .     S
O68    C258    1.399   1_545 S
O76    C174    1.223   1_455 S
C77    O137    1.290   .     A
C77    O146    1.292   .     A
C77    C90     1.449   .     S
C78    C80     1.416   .     A
C78    C113    1.408   .     A
C78    H127    1.079   .     S
C79    C99     1.407   .     A
C79    C114    1.416   .     A
C79    C536    1.522   1_554 S
C80    C109    1.407   .     A
C80    C535    1.522   .     S
C81    O148    1.285   .     A
C81    O150    1.290   .     A
C81    C83     1.438   .     S
C82    O151    1.290   .     A
C82    C84     1.438   .     S
C82    O149    1.285   .     A
C84    C159    1.359   .     S
C84    C176    1.495   .     S
C85    C101    1.452   .     S
C85    C96     1.415   .     A
C85    C87     1.403   .     A
C86    C102    1.454   .     S
C86    C97     1.412   .     A
C86    C89     1.405   .     A
C87    C90     1.405   .     A
C87    C103    1.451   .     S
C88    O145    1.298   .     A
C88    C91     1.480   .     S
C88    O147    1.300   .     A
C89    C104    1.451   .     S
C89    C91     1.418   .     A
C90    C92     1.394   .     A
C91    C93     1.404   .     A
C92    C94     1.394   .     A
C92    H117    1.085   .     S
C93    H121    1.083   .     S
C93    C95     1.396   .     A
C94    C105    1.489   .     S
C94    C96     1.416   .     A
C95    C97     1.414   .     A
C95    C106    1.494   .     S
C96    C325    1.476   1_545 S
C97    C324    1.476   .     S
C98    O138    1.399   .     S
C98    C159    1.495   .     S
C98    O228    1.223   .     S
C99    H122    1.081   .     S
C99    C110    1.405   .     A
C100   O140    1.400   .     S
C101   N131    1.157   .     T
C102   N360    1.157   .     S
C103   N133    1.157   .     T
C104   N134    1.157   .     T
C105   O141    1.221   .     D
C105   O370    1.398   1_545 S
C106   O143    1.224   .     D
C106   O372    1.399   .     S
C107   N135    1.158   .     T
C107   C110    1.439   .     S
C108   C111    1.439   .     S
C108   N136    1.158   .     T
C109   C111    1.406   .     A
C109   H123    1.081   .     S
C110   N129    1.372   .     A
C111   N130    1.371   .     A
C112   N129    1.363   .     A
C112   C114    1.408   .     A
C112   H124    1.081   .     S
C113   H125    1.082   .     S
C113   N130    1.362   .     A
C114   H126    1.079   .     S
Cu115  N130    2.015   .     S
Cu115  O148    1.971   .     S
Cu115  O151    1.968   .     S
Cu115  O137    1.960   .     S
Cu115  Cu116   2.683   .     S
Cu115  O147    1.954   .     S
Cu116  O146    1.954   .     S
Cu116  O149    1.971   .     S
Cu116  O145    1.960   .     S
Cu116  O150    1.968   .     S
Cu116  N129    2.015   .     S
H118   O140    1.014   .     S
H119   O142    1.011   .     S
H120   O144    1.014   .     S
H128   O138    1.014   .     S
N132   C330    1.157   1_545 S
O139   C176    1.223   .     S
O142   C333    1.398   .     S
O144   C334    1.399   1_545 S
C153   O213    1.290   .     A
C153   O222    1.292   .     A
C153   C166    1.449   .     S
C154   C156    1.416   .     A
C154   C189    1.408   .     A
C154   H203    1.079   .     S
C155   C175    1.407   .     A
C155   C190    1.416   .     A
C155   C612    1.522   1_554 S
C156   C185    1.407   .     A
C156   C611    1.522   .     S
C157   O224    1.285   .     A
C157   O226    1.290   .     A
C157   C159    1.438   .     S
C158   O227    1.290   .     A
C158   C160    1.438   .     S
C158   O225    1.285   .     A
C160   C7      1.359   1_655 S
C160   C24     1.495   1_655 S
C161   C177    1.452   .     S
C161   C172    1.415   .     A
C161   C163    1.403   .     A
C162   C178    1.454   .     S
C162   C173    1.412   .     A
C162   C165    1.405   .     A
C163   C166    1.405   .     A
C163   C179    1.451   .     S
C164   O221    1.298   .     A
C164   C167    1.480   .     S
C164   O223    1.300   .     A
C165   C180    1.451   .     S
C165   C167    1.418   .     A
C166   C168    1.394   .     A
C167   C169    1.404   .     A
C168   C170    1.394   .     A
C168   H193    1.085   .     S
C169   H197    1.083   .     S
C169   C171    1.396   .     A
C170   C181    1.489   .     S
C170   C172    1.416   .     A
C171   C173    1.414   .     A
C171   C182    1.494   .     S
C172   C401    1.476   1_545 S
C173   C400    1.476   .     S
C174   O214    1.399   .     S
C174   C7      1.495   1_655 S
C174   O76     1.223   1_655 S
C175   H198    1.081   .     S
C175   C186    1.405   .     A
C176   O216    1.400   .     S
C177   N207    1.157   .     T
C178   N436    1.157   .     S
C179   N209    1.157   .     T
C180   N210    1.157   .     T
C181   O217    1.221   .     D
C181   O446    1.398   1_545 S
C182   O219    1.224   .     D
C182   O448    1.399   .     S
C183   N211    1.158   .     T
C183   C186    1.439   .     S
C184   C187    1.439   .     S
C184   N212    1.158   .     T
C185   C187    1.406   .     A
C185   H199    1.081   .     S
C186   N205    1.372   .     A
C187   N206    1.371   .     A
C188   N205    1.363   .     A
C188   C190    1.408   .     A
C188   H200    1.081   .     S
C189   H201    1.082   .     S
C189   N206    1.362   .     A
C190   H202    1.079   .     S
Cu191  N206    2.015   .     S
Cu191  O224    1.971   .     S
Cu191  O227    1.968   .     S
Cu191  O213    1.960   .     S
Cu191  Cu192   2.683   .     S
Cu191  O223    1.954   .     S
Cu192  O222    1.954   .     S
Cu192  O225    1.971   .     S
Cu192  O221    1.960   .     S
Cu192  O226    1.968   .     S
Cu192  N205    2.015   .     S
H194   O216    1.014   .     S
H195   O218    1.011   .     S
H196   O220    1.014   .     S
H204   O214    1.014   .     S
N208   C406    1.157   1_545 S
O215   C24     1.223   1_655 S
O218   C409    1.398   .     S
O220   C410    1.399   1_545 S
C229   O289    1.290   .     A
C229   O298    1.292   .     A
C229   C242    1.449   .     S
C230   C232    1.416   .     A
C230   C265    1.408   .     A
C230   H279    1.079   .     S
C231   C251    1.407   .     A
C231   C266    1.416   .     A
C231   C688    1.522   1_554 S
C232   C261    1.407   .     A
C232   C687    1.522   .     S
C233   O300    1.285   .     A
C233   O302    1.290   .     A
C233   C235    1.438   .     S
C234   O303    1.290   .     A
C234   C236    1.438   .     S
C234   O301    1.285   .     A
C235   C388    1.359   1_455 S
C235   C402    1.495   1_455 S
C236   C311    1.359   .     S
C236   C328    1.495   .     S
C237   C253    1.452   .     S
C237   C248    1.415   .     A
C237   C239    1.403   .     A
C238   C254    1.454   .     S
C238   C249    1.412   .     A
C238   C241    1.405   .     A
C239   C242    1.405   .     A
C239   C255    1.451   .     S
C240   O297    1.298   .     A
C240   C243    1.480   .     S
C240   O299    1.300   .     A
C241   C256    1.451   .     S
C241   C243    1.418   .     A
C242   C244    1.394   .     A
C243   C245    1.404   .     A
C244   C246    1.394   .     A
C244   H269    1.085   .     S
C245   H273    1.083   .     S
C245   C247    1.396   .     A
C246   C257    1.489   .     S
C246   C248    1.416   .     A
C247   C249    1.414   .     A
C247   C258    1.494   .     S
C249   C20     1.476   1_565 S
C250   O290    1.399   .     S
C250   C311    1.495   .     S
C250   O380    1.223   .     S
C251   H274    1.081   .     S
C251   C262    1.405   .     A
C252   O292    1.400   .     S
C252   C388    1.495   1_455 S
C252   O443    1.223   1_455 S
C253   N283    1.157   .     T
C254   N56     1.157   1_565 S
C255   N285    1.157   .     T
C256   N286    1.157   .     T
C257   O293    1.221   .     D
C258   O295    1.224   .     D
C258   O68     1.399   1_565 S
C259   N287    1.158   .     T
C259   C262    1.439   .     S
C260   C263    1.439   .     S
C260   N288    1.158   .     T
C261   C263    1.406   .     A
C261   H275    1.081   .     S
C262   N281    1.372   .     A
C263   N282    1.371   .     A
C264   N281    1.363   .     A
C264   C266    1.408   .     A
C264   H276    1.081   .     S
C265   H277    1.082   .     S
C265   N282    1.362   .     A
C266   H278    1.079   .     S
Cu267  N282    2.015   .     S
Cu267  O300    1.971   .     S
Cu267  O303    1.968   .     S
Cu267  O289    1.960   .     S
Cu267  Cu268   2.683   .     S
Cu267  O299    1.954   .     S
Cu268  O298    1.954   .     S
Cu268  O301    1.971   .     S
Cu268  O297    1.960   .     S
Cu268  O302    1.968   .     S
Cu268  N281    2.015   .     S
H270   O292    1.014   .     S
H271   O294    1.011   .     S
H272   O296    1.014   .     S
H280   O290    1.014   .     S
O291   C328    1.223   .     S
O294   C29     1.398   1_565 S
O304   C402    1.223   1_455 S
C305   O365    1.290   .     A
C305   O374    1.292   .     A
C305   C318    1.449   .     S
C306   C308    1.416   .     A
C306   C341    1.408   .     A
C306   H355    1.079   .     S
C307   C327    1.407   .     A
C307   C342    1.416   .     A
C307   C764    1.522   1_554 S
C308   C337    1.407   .     A
C308   C763    1.522   .     S
C309   O376    1.285   .     A
C309   O378    1.290   .     A
C309   C311    1.438   .     S
C310   O379    1.290   .     A
C310   C312    1.438   .     S
C310   O377    1.285   .     A
C312   C387    1.359   .     S
C312   C404    1.495   .     S
C313   C329    1.452   .     S
C313   C324    1.415   .     A
C313   C315    1.403   .     A
C314   C330    1.454   .     S
C314   C325    1.412   .     A
C314   C317    1.405   .     A
C315   C318    1.405   .     A
C315   C331    1.451   .     S
C316   O373    1.298   .     A
C316   C319    1.480   .     S
C316   O375    1.300   .     A
C317   C332    1.451   .     S
C317   C319    1.418   .     A
C318   C320    1.394   .     A
C319   C321    1.404   .     A
C320   C322    1.394   .     A
C320   H345    1.085   .     S
C321   H349    1.083   .     S
C321   C323    1.396   .     A
C322   C333    1.489   .     S
C322   C324    1.416   .     A
C323   C325    1.414   .     A
C323   C334    1.494   .     S
C325   C96     1.476   1_565 S
C326   O366    1.399   .     S
C326   C387    1.495   .     S
C326   O456    1.223   .     S
C327   H350    1.081   .     S
C327   C338    1.405   .     A
C328   O368    1.400   .     S
C329   N359    1.157   .     T
C330   N132    1.157   1_565 S
C331   N361    1.157   .     T
C332   N362    1.157   .     T
C333   O369    1.221   .     D
C334   O371    1.224   .     D
C334   O144    1.399   1_565 S
C335   N363    1.158   .     T
C335   C338    1.439   .     S
C336   C339    1.439   .     S
C336   N364    1.158   .     T
C337   C339    1.406   .     A
C337   H351    1.081   .     S
C338   N357    1.372   .     A
C339   N358    1.371   .     A
C340   N357    1.363   .     A
C340   C342    1.408   .     A
C340   H352    1.081   .     S
C341   H353    1.082   .     S
C341   N358    1.362   .     A
C342   H354    1.079   .     S
Cu343  N358    2.015   .     S
Cu343  O376    1.971   .     S
Cu343  O379    1.968   .     S
Cu343  O365    1.960   .     S
Cu343  Cu344   2.683   .     S
Cu343  O375    1.954   .     S
Cu344  O374    1.954   .     S
Cu344  O377    1.971   .     S
Cu344  O373    1.960   .     S
Cu344  O378    1.968   .     S
Cu344  N357    2.015   .     S
H346   O368    1.014   .     S
H347   O370    1.011   .     S
H348   O372    1.014   .     S
H356   O366    1.014   .     S
O367   C404    1.223   .     S
O370   C105    1.398   1_565 S
C381   O441    1.290   .     A
C381   O450    1.292   .     A
C381   C394    1.449   .     S
C382   C384    1.416   .     A
C382   C417    1.408   .     A
C382   H431    1.079   .     S
C383   C403    1.407   .     A
C383   C418    1.416   .     A
C383   C840    1.522   1_554 S
C384   C413    1.407   .     A
C384   C839    1.522   .     S
C385   O452    1.285   .     A
C385   O454    1.290   .     A
C385   C387    1.438   .     S
C386   O455    1.290   .     A
C386   C388    1.438   .     S
C386   O453    1.285   .     A
C388   C235    1.359   1_655 S
C388   C252    1.495   1_655 S
C389   C405    1.452   .     S
C389   C400    1.415   .     A
C389   C391    1.403   .     A
C390   C406    1.454   .     S
C390   C401    1.412   .     A
C390   C393    1.405   .     A
C391   C394    1.405   .     A
C391   C407    1.451   .     S
C392   O449    1.298   .     A
C392   C395    1.480   .     S
C392   O451    1.300   .     A
C393   C408    1.451   .     S
C393   C395    1.418   .     A
C394   C396    1.394   .     A
C395   C397    1.404   .     A
C396   C398    1.394   .     A
C396   H421    1.085   .     S
C397   H425    1.083   .     S
C397   C399    1.396   .     A
C398   C409    1.489   .     S
C398   C400    1.416   .     A
C399   C401    1.414   .     A
C399   C410    1.494   .     S
C401   C172    1.476   1_565 S
C402   O442    1.399   .     S
C402   C235    1.495   1_655 S
C402   O304    1.223   1_655 S
C403   H426    1.081   .     S
C403   C414    1.405   .     A
C404   O444    1.400   .     S
C405   N435    1.157   .     T
C406   N208    1.157   1_565 S
C407   N437    1.157   .     T
C408   N438    1.157   .     T
C409   O445    1.221   .     D
C410   O447    1.224   .     D
C410   O220    1.399   1_565 S
C411   N439    1.158   .     T
C411   C414    1.439   .     S
C412   C415    1.439   .     S
C412   N440    1.158   .     T
C413   C415    1.406   .     A
C413   H427    1.081   .     S
C414   N433    1.372   .     A
C415   N434    1.371   .     A
C416   N433    1.363   .     A
C416   C418    1.408   .     A
C416   H428    1.081   .     S
C417   H429    1.082   .     S
C417   N434    1.362   .     A
C418   H430    1.079   .     S
Cu419  N434    2.015   .     S
Cu419  O452    1.971   .     S
Cu419  O455    1.968   .     S
Cu419  O441    1.960   .     S
Cu419  Cu420   2.683   .     S
Cu419  O451    1.954   .     S
Cu420  O450    1.954   .     S
Cu420  O453    1.971   .     S
Cu420  O449    1.960   .     S
Cu420  O454    1.968   .     S
Cu420  N433    2.015   .     S
H422   O444    1.014   .     S
H423   O446    1.011   .     S
H424   O448    1.014   .     S
H432   O442    1.014   .     S
O443   C252    1.223   1_655 S
O446   C181    1.398   1_565 S
C457   O517    1.290   .     A
C457   O526    1.292   .     A
C457   C470    1.449   .     S
C458   C460    1.416   .     A
C458   C493    1.408   .     A
C458   H507    1.079   .     S
C459   C479    1.407   .     A
C459   C494    1.416   .     A
C460   C489    1.407   .     A
C460   C3      1.522   1_556 S
C461   O528    1.285   .     A
C461   O530    1.290   .     A
C461   C463    1.438   .     S
C462   O531    1.290   .     A
C462   C464    1.438   .     S
C462   O529    1.285   .     A
C463   C616    1.359   1_455 S
C463   C630    1.495   1_455 S
C464   C539    1.359   .     S
C464   C556    1.495   .     S
C465   C481    1.452   .     S
C465   C476    1.415   .     A
C465   C467    1.403   .     A
C466   C482    1.454   .     S
C466   C477    1.412   .     A
C466   C469    1.405   .     A
C467   C470    1.405   .     A
C467   C483    1.451   .     S
C468   O525    1.298   .     A
C468   C471    1.480   .     S
C468   O527    1.300   .     A
C469   C484    1.451   .     S
C469   C471    1.418   .     A
C470   C472    1.394   .     A
C471   C473    1.404   .     A
C472   C474    1.394   .     A
C472   H497    1.085   .     S
C473   H501    1.083   .     S
C473   C475    1.396   .     A
C474   C485    1.489   .     S
C474   C476    1.416   .     A
C475   C477    1.414   .     A
C475   C486    1.494   .     S
C476   C705    1.476   1_545 S
C477   C704    1.476   .     S
C478   O518    1.399   .     S
C478   C539    1.495   .     S
C478   O608    1.223   .     S
C479   H502    1.081   .     S
C479   C490    1.405   .     A
C480   O520    1.400   .     S
C480   C616    1.495   1_455 S
C480   O671    1.223   1_455 S
C481   N511    1.157   .     T
C482   N740    1.157   .     S
C483   N513    1.157   .     T
C484   N514    1.157   .     T
C485   O521    1.221   .     D
C485   O750    1.398   1_545 S
C486   O523    1.224   .     D
C486   O752    1.399   .     S
C487   N515    1.158   .     T
C487   C490    1.439   .     S
C488   C491    1.439   .     S
C488   N516    1.158   .     T
C489   C491    1.406   .     A
C489   H503    1.081   .     S
C490   N509    1.372   .     A
C491   N510    1.371   .     A
C492   N509    1.363   .     A
C492   C494    1.408   .     A
C492   H504    1.081   .     S
C493   H505    1.082   .     S
C493   N510    1.362   .     A
C494   H506    1.079   .     S
Cu495  N510    2.015   .     S
Cu495  O528    1.971   .     S
Cu495  O531    1.968   .     S
Cu495  O517    1.960   .     S
Cu495  Cu496   2.683   .     S
Cu495  O527    1.954   .     S
Cu496  O526    1.954   .     S
Cu496  O529    1.971   .     S
Cu496  O525    1.960   .     S
Cu496  O530    1.968   .     S
Cu496  N509    2.015   .     S
H498   O520    1.014   .     S
H499   O522    1.011   .     S
H500   O524    1.014   .     S
H508   O518    1.014   .     S
N512   C710    1.157   1_545 S
O519   C556    1.223   .     S
O522   C713    1.398   .     S
O524   C714    1.399   1_545 S
O532   C630    1.223   1_455 S
C533   O593    1.290   .     A
C533   O602    1.292   .     A
C533   C546    1.449   .     S
C534   C536    1.416   .     A
C534   C569    1.408   .     A
C534   H583    1.079   .     S
C535   C555    1.407   .     A
C535   C570    1.416   .     A
C536   C565    1.407   .     A
C536   C79     1.522   1_556 S
C537   O604    1.285   .     A
C537   O606    1.290   .     A
C537   C539    1.438   .     S
C538   O607    1.290   .     A
C538   C540    1.438   .     S
C538   O605    1.285   .     A
C540   C615    1.359   .     S
C540   C632    1.495   .     S
C541   C557    1.452   .     S
C541   C552    1.415   .     A
C541   C543    1.403   .     A
C542   C558    1.454   .     S
C542   C553    1.412   .     A
C542   C545    1.405   .     A
C543   C546    1.405   .     A
C543   C559    1.451   .     S
C544   O601    1.298   .     A
C544   C547    1.480   .     S
C544   O603    1.300   .     A
C545   C560    1.451   .     S
C545   C547    1.418   .     A
C546   C548    1.394   .     A
C547   C549    1.404   .     A
C548   C550    1.394   .     A
C548   H573    1.085   .     S
C549   H577    1.083   .     S
C549   C551    1.396   .     A
C550   C561    1.489   .     S
C550   C552    1.416   .     A
C551   C553    1.414   .     A
C551   C562    1.494   .     S
C552   C781    1.476   1_545 S
C553   C780    1.476   .     S
C554   O594    1.399   .     S
C554   C615    1.495   .     S
C554   O684    1.223   .     S
C555   H578    1.081   .     S
C555   C566    1.405   .     A
C556   O596    1.400   .     S
C557   N587    1.157   .     T
C558   N816    1.157   .     S
C559   N589    1.157   .     T
C560   N590    1.157   .     T
C561   O597    1.221   .     D
C561   O826    1.398   1_545 S
C562   O599    1.224   .     D
C562   O828    1.399   .     S
C563   N591    1.158   .     T
C563   C566    1.439   .     S
C564   C567    1.439   .     S
C564   N592    1.158   .     T
C565   C567    1.406   .     A
C565   H579    1.081   .     S
C566   N585    1.372   .     A
C567   N586    1.371   .     A
C568   N585    1.363   .     A
C568   C570    1.408   .     A
C568   H580    1.081   .     S
C569   H581    1.082   .     S
C569   N586    1.362   .     A
C570   H582    1.079   .     S
Cu571  N586    2.015   .     S
Cu571  O604    1.971   .     S
Cu571  O607    1.968   .     S
Cu571  O593    1.960   .     S
Cu571  Cu572   2.683   .     S
Cu571  O603    1.954   .     S
Cu572  O602    1.954   .     S
Cu572  O605    1.971   .     S
Cu572  O601    1.960   .     S
Cu572  O606    1.968   .     S
Cu572  N585    2.015   .     S
H574   O596    1.014   .     S
H575   O598    1.011   .     S
H576   O600    1.014   .     S
H584   O594    1.014   .     S
N588   C786    1.157   1_545 S
O595   C632    1.223   .     S
O598   C789    1.398   .     S
O600   C790    1.399   1_545 S
C609   O669    1.290   .     A
C609   O678    1.292   .     A
C609   C622    1.449   .     S
C610   C612    1.416   .     A
C610   C645    1.408   .     A
C610   H659    1.079   .     S
C611   C631    1.407   .     A
C611   C646    1.416   .     A
C612   C641    1.407   .     A
C612   C155    1.522   1_556 S
C613   O680    1.285   .     A
C613   O682    1.290   .     A
C613   C615    1.438   .     S
C614   O683    1.290   .     A
C614   C616    1.438   .     S
C614   O681    1.285   .     A
C616   C463    1.359   1_655 S
C616   C480    1.495   1_655 S
C617   C633    1.452   .     S
C617   C628    1.415   .     A
C617   C619    1.403   .     A
C618   C634    1.454   .     S
C618   C629    1.412   .     A
C618   C621    1.405   .     A
C619   C622    1.405   .     A
C619   C635    1.451   .     S
C620   O677    1.298   .     A
C620   C623    1.480   .     S
C620   O679    1.300   .     A
C621   C636    1.451   .     S
C621   C623    1.418   .     A
C622   C624    1.394   .     A
C623   C625    1.404   .     A
C624   C626    1.394   .     A
C624   H649    1.085   .     S
C625   H653    1.083   .     S
C625   C627    1.396   .     A
C626   C637    1.489   .     S
C626   C628    1.416   .     A
C627   C629    1.414   .     A
C627   C638    1.494   .     S
C628   C857    1.476   1_545 S
C629   C856    1.476   .     S
C630   O670    1.399   .     S
C630   C463    1.495   1_655 S
C630   O532    1.223   1_655 S
C631   H654    1.081   .     S
C631   C642    1.405   .     A
C632   O672    1.400   .     S
C633   N663    1.157   .     T
C634   N892    1.157   .     S
C635   N665    1.157   .     T
C636   N666    1.157   .     T
C637   O673    1.221   .     D
C637   O902    1.398   1_545 S
C638   O675    1.224   .     D
C638   O904    1.399   .     S
C639   N667    1.158   .     T
C639   C642    1.439   .     S
C640   C643    1.439   .     S
C640   N668    1.158   .     T
C641   C643    1.406   .     A
C641   H655    1.081   .     S
C642   N661    1.372   .     A
C643   N662    1.371   .     A
C644   N661    1.363   .     A
C644   C646    1.408   .     A
C644   H656    1.081   .     S
C645   H657    1.082   .     S
C645   N662    1.362   .     A
C646   H658    1.079   .     S
Cu647  N662    2.015   .     S
Cu647  O680    1.971   .     S
Cu647  O683    1.968   .     S
Cu647  O669    1.960   .     S
Cu647  Cu648   2.683   .     S
Cu647  O679    1.954   .     S
Cu648  O678    1.954   .     S
Cu648  O681    1.971   .     S
Cu648  O677    1.960   .     S
Cu648  O682    1.968   .     S
Cu648  N661    2.015   .     S
H650   O672    1.014   .     S
H651   O674    1.011   .     S
H652   O676    1.014   .     S
H660   O670    1.014   .     S
N664   C862    1.157   1_545 S
O671   C480    1.223   1_655 S
O674   C865    1.398   .     S
O676   C866    1.399   1_545 S
C685   O745    1.290   .     A
C685   O754    1.292   .     A
C685   C698    1.449   .     S
C686   C688    1.416   .     A
C686   C721    1.408   .     A
C686   H735    1.079   .     S
C687   C707    1.407   .     A
C687   C722    1.416   .     A
C688   C717    1.407   .     A
C688   C231    1.522   1_556 S
C689   O756    1.285   .     A
C689   O758    1.290   .     A
C689   C691    1.438   .     S
C690   O759    1.290   .     A
C690   C692    1.438   .     S
C690   O757    1.285   .     A
C691   C844    1.359   1_455 S
C691   C858    1.495   1_455 S
C692   C767    1.359   .     S
C692   C784    1.495   .     S
C693   C709    1.452   .     S
C693   C704    1.415   .     A
C693   C695    1.403   .     A
C694   C710    1.454   .     S
C694   C705    1.412   .     A
C694   C697    1.405   .     A
C695   C698    1.405   .     A
C695   C711    1.451   .     S
C696   O753    1.298   .     A
C696   C699    1.480   .     S
C696   O755    1.300   .     A
C697   C712    1.451   .     S
C697   C699    1.418   .     A
C698   C700    1.394   .     A
C699   C701    1.404   .     A
C700   C702    1.394   .     A
C700   H725    1.085   .     S
C701   H729    1.083   .     S
C701   C703    1.396   .     A
C702   C713    1.489   .     S
C702   C704    1.416   .     A
C703   C705    1.414   .     A
C703   C714    1.494   .     S
C705   C476    1.476   1_565 S
C706   O746    1.399   .     S
C706   C767    1.495   .     S
C706   O836    1.223   .     S
C707   H730    1.081   .     S
C707   C718    1.405   .     A
C708   O748    1.400   .     S
C708   C844    1.495   1_455 S
C708   O899    1.223   1_455 S
C709   N739    1.157   .     T
C710   N512    1.157   1_565 S
C711   N741    1.157   .     T
C712   N742    1.157   .     T
C713   O749    1.221   .     D
C714   O751    1.224   .     D
C714   O524    1.399   1_565 S
C715   N743    1.158   .     T
C715   C718    1.439   .     S
C716   C719    1.439   .     S
C716   N744    1.158   .     T
C717   C719    1.406   .     A
C717   H731    1.081   .     S
C718   N737    1.372   .     A
C719   N738    1.371   .     A
C720   N737    1.363   .     A
C720   C722    1.408   .     A
C720   H732    1.081   .     S
C721   H733    1.082   .     S
C721   N738    1.362   .     A
C722   H734    1.079   .     S
Cu723  N738    2.015   .     S
Cu723  O756    1.971   .     S
Cu723  O759    1.968   .     S
Cu723  O745    1.960   .     S
Cu723  Cu724   2.683   .     S
Cu723  O755    1.954   .     S
Cu724  O754    1.954   .     S
Cu724  O757    1.971   .     S
Cu724  O753    1.960   .     S
Cu724  O758    1.968   .     S
Cu724  N737    2.015   .     S
H726   O748    1.014   .     S
H727   O750    1.011   .     S
H728   O752    1.014   .     S
H736   O746    1.014   .     S
O747   C784    1.223   .     S
O750   C485    1.398   1_565 S
O760   C858    1.223   1_455 S
C761   O821    1.290   .     A
C761   O830    1.292   .     A
C761   C774    1.449   .     S
C762   C764    1.416   .     A
C762   C797    1.408   .     A
C762   H811    1.079   .     S
C763   C783    1.407   .     A
C763   C798    1.416   .     A
C764   C793    1.407   .     A
C764   C307    1.522   1_556 S
C765   O832    1.285   .     A
C765   O834    1.290   .     A
C765   C767    1.438   .     S
C766   O835    1.290   .     A
C766   C768    1.438   .     S
C766   O833    1.285   .     A
C768   C843    1.359   .     S
C768   C860    1.495   .     S
C769   C785    1.452   .     S
C769   C780    1.415   .     A
C769   C771    1.403   .     A
C770   C786    1.454   .     S
C770   C781    1.412   .     A
C770   C773    1.405   .     A
C771   C774    1.405   .     A
C771   C787    1.451   .     S
C772   O829    1.298   .     A
C772   C775    1.480   .     S
C772   O831    1.300   .     A
C773   C788    1.451   .     S
C773   C775    1.418   .     A
C774   C776    1.394   .     A
C775   C777    1.404   .     A
C776   C778    1.394   .     A
C776   H801    1.085   .     S
C777   H805    1.083   .     S
C777   C779    1.396   .     A
C778   C789    1.489   .     S
C778   C780    1.416   .     A
C779   C781    1.414   .     A
C779   C790    1.494   .     S
C781   C552    1.476   1_565 S
C782   O822    1.399   .     S
C782   C843    1.495   .     S
C782   O912    1.223   .     S
C783   H806    1.081   .     S
C783   C794    1.405   .     A
C784   O824    1.400   .     S
C785   N815    1.157   .     T
C786   N588    1.157   1_565 S
C787   N817    1.157   .     T
C788   N818    1.157   .     T
C789   O825    1.221   .     D
C790   O827    1.224   .     D
C790   O600    1.399   1_565 S
C791   N819    1.158   .     T
C791   C794    1.439   .     S
C792   C795    1.439   .     S
C792   N820    1.158   .     T
C793   C795    1.406   .     A
C793   H807    1.081   .     S
C794   N813    1.372   .     A
C795   N814    1.371   .     A
C796   N813    1.363   .     A
C796   C798    1.408   .     A
C796   H808    1.081   .     S
C797   H809    1.082   .     S
C797   N814    1.362   .     A
C798   H810    1.079   .     S
Cu799  N814    2.015   .     S
Cu799  O832    1.971   .     S
Cu799  O835    1.968   .     S
Cu799  O821    1.960   .     S
Cu799  Cu800   2.683   .     S
Cu799  O831    1.954   .     S
Cu800  O830    1.954   .     S
Cu800  O833    1.971   .     S
Cu800  O829    1.960   .     S
Cu800  O834    1.968   .     S
Cu800  N813    2.015   .     S
H802   O824    1.014   .     S
H803   O826    1.011   .     S
H804   O828    1.014   .     S
H812   O822    1.014   .     S
O823   C860    1.223   .     S
O826   C561    1.398   1_565 S
C837   O897    1.290   .     A
C837   O906    1.292   .     A
C837   C850    1.449   .     S
C838   C840    1.416   .     A
C838   C873    1.408   .     A
C838   H887    1.079   .     S
C839   C859    1.407   .     A
C839   C874    1.416   .     A
C840   C869    1.407   .     A
C840   C383    1.522   1_556 S
C841   O908    1.285   .     A
C841   O910    1.290   .     A
C841   C843    1.438   .     S
C842   O911    1.290   .     A
C842   C844    1.438   .     S
C842   O909    1.285   .     A
C844   C691    1.359   1_655 S
C844   C708    1.495   1_655 S
C845   C861    1.452   .     S
C845   C856    1.415   .     A
C845   C847    1.403   .     A
C846   C862    1.454   .     S
C846   C857    1.412   .     A
C846   C849    1.405   .     A
C847   C850    1.405   .     A
C847   C863    1.451   .     S
C848   O905    1.298   .     A
C848   C851    1.480   .     S
C848   O907    1.300   .     A
C849   C864    1.451   .     S
C849   C851    1.418   .     A
C850   C852    1.394   .     A
C851   C853    1.404   .     A
C852   C854    1.394   .     A
C852   H877    1.085   .     S
C853   H881    1.083   .     S
C853   C855    1.396   .     A
C854   C865    1.489   .     S
C854   C856    1.416   .     A
C855   C857    1.414   .     A
C855   C866    1.494   .     S
C857   C628    1.476   1_565 S
C858   O898    1.399   .     S
C858   C691    1.495   1_655 S
C858   O760    1.223   1_655 S
C859   H882    1.081   .     S
C859   C870    1.405   .     A
C860   O900    1.400   .     S
C861   N891    1.157   .     T
C862   N664    1.157   1_565 S
C863   N893    1.157   .     T
C864   N894    1.157   .     T
C865   O901    1.221   .     D
C866   O903    1.224   .     D
C866   O676    1.399   1_565 S
C867   N895    1.158   .     T
C867   C870    1.439   .     S
C868   C871    1.439   .     S
C868   N896    1.158   .     T
C869   C871    1.406   .     A
C869   H883    1.081   .     S
C870   N889    1.372   .     A
C871   N890    1.371   .     A
C872   N889    1.363   .     A
C872   C874    1.408   .     A
C872   H884    1.081   .     S
C873   H885    1.082   .     S
C873   N890    1.362   .     A
C874   H886    1.079   .     S
Cu875  N890    2.015   .     S
Cu875  O908    1.971   .     S
Cu875  O911    1.968   .     S
Cu875  O897    1.960   .     S
Cu875  Cu876   2.683   .     S
Cu875  O907    1.954   .     S
Cu876  O906    1.954   .     S
Cu876  O909    1.971   .     S
Cu876  O905    1.960   .     S
Cu876  O910    1.968   .     S
Cu876  N889    2.015   .     S
H878   O900    1.014   .     S
H879   O902    1.011   .     S
H880   O904    1.014   .     S
H888   O898    1.014   .     S
O899   C708    1.223   1_655 S
O902   C637    1.398   1_565 S
