data_str_m1_o5_o17_pcu_sym.3
_audit_creation_date              2020-01-03
_audit_creation_method            'Materials Studio'
_symmetry_space_group_name_H-M    'P1'
_symmetry_Int_Tables_number       1
_symmetry_cell_setting            triclinic
loop_
_symmetry_equiv_pos_as_xyz
  x,y,z
_cell_length_a                    31.7862
_cell_length_b                    31.7862
_cell_length_c                    34.5362
_cell_angle_alpha                 89.9993
_cell_angle_beta                  89.9996
_cell_angle_gamma                 89.9811
loop_
_atom_site_label
_atom_site_type_symbol
_atom_site_fract_x
_atom_site_fract_y
_atom_site_fract_z
_atom_site_U_iso_or_equiv
_atom_site_adp_type
_atom_site_occupancy
C1     C     0.25000  -0.00000   0.35587   0.00000  Uiso   1.00
C2     C     0.33001   0.41999   0.75000   0.00000  Uiso   1.00
C3     C     0.43971   0.29716   0.02011   0.00000  Uiso   1.00
C4     C     0.20302   0.06043   0.97988   0.00000  Uiso   1.00
C5     C     0.29698   0.43957   0.02012   0.00000  Uiso   1.00
C6     C     0.43971   0.29716   0.97989   0.00000  Uiso   1.00
C7     C     0.06029   0.20284   0.02011   0.00000  Uiso   1.00
C8     C     0.41998   0.16998   0.25000   0.00000  Uiso   1.00
C9     C     0.08002   0.33002   0.75000   0.00000  Uiso   1.00
C10    C     0.33001   0.41999   0.25000   0.00000  Uiso   1.00
C11    C     0.16999   0.08001   0.75000   0.00000  Uiso   1.00
C12    C     0.08002   0.33002   0.25000   0.00000  Uiso   1.00
C13    C     0.41998   0.16998   0.75000   0.00000  Uiso   1.00
C14    C     0.16998   0.41998   0.75000   0.00000  Uiso   1.00
C15    C     0.33002   0.08002   0.25000   0.00000  Uiso   1.00
C16    C     0.41999   0.33001   0.75000   0.00000  Uiso   1.00
C17    C     0.25000   0.00000   0.64413   0.00000  Uiso   1.00
C18    C     0.08001   0.16999   0.25000   0.00000  Uiso   1.00
C19    C     0.33002   0.08002   0.75000   0.00000  Uiso   1.00
C20    C     0.16998   0.41998   0.25000   0.00000  Uiso   1.00
C21    C     0.08001   0.16999   0.75000   0.00000  Uiso   1.00
C22    C     0.41999   0.33001   0.25000   0.00000  Uiso   1.00
C23    C     0.13833   0.38833   0.25000   0.00000  Uiso   1.00
C24    C     0.36167   0.11167   0.75000   0.00000  Uiso   1.00
C25    C     0.11167   0.13833   0.25000   0.00000  Uiso   1.00
C26    C     0.38833   0.36167   0.75000   0.00000  Uiso   1.00
C27    C     0.36167   0.11167   0.25000   0.00000  Uiso   1.00
C28    C    -0.00000   0.25000   0.35587   0.00000  Uiso   1.00
C29    C     0.13833   0.38833   0.75000   0.00000  Uiso   1.00
C30    C     0.38833   0.36167   0.25000   0.00000  Uiso   1.00
C31    C     0.11167   0.13833   0.75000   0.00000  Uiso   1.00
C32    C     0.13833   0.11167   0.75000   0.00000  Uiso   1.00
C33    C     0.36167   0.38833   0.25000   0.00000  Uiso   1.00
C34    C     0.11167   0.36167   0.75000   0.00000  Uiso   1.00
C35    C     0.38833   0.13833   0.25000   0.00000  Uiso   1.00
C36    C     0.36167   0.38833   0.75000   0.00000  Uiso   1.00
C37    C     0.13833   0.11167   0.25000   0.00000  Uiso   1.00
C38    C     0.38833   0.13833   0.75000   0.00000  Uiso   1.00
C39    C     0.00000   0.25000   0.64413   0.00000  Uiso   1.00
C40    C     0.11167   0.36167   0.25000   0.00000  Uiso   1.00
C41    C     0.47703   0.28122   0.41854   0.00000  Uiso   1.00
C42    C     0.02297   0.21878   0.58146   0.00000  Uiso   1.00
C43    C     0.21879   0.02296   0.41854   0.00000  Uiso   1.00
C44    C     0.28121   0.47704   0.58146   0.00000  Uiso   1.00
C45    C     0.02297   0.21879   0.41854   0.00000  Uiso   1.00
C46    C     0.47703   0.28121   0.58146   0.00000  Uiso   1.00
C47    C     0.28122   0.47703   0.41854   0.00000  Uiso   1.00
C48    C     0.21878   0.02297   0.58146   0.00000  Uiso   1.00
C49    C     0.22707   0.03124   0.91854   0.00000  Uiso   1.00
C50    C    -0.00000   0.25000   0.85587   0.00000  Uiso   1.00
C51    C     0.27293   0.46876   0.08146   0.00000  Uiso   1.00
C52    C     0.46882   0.27301   0.91855   0.00000  Uiso   1.00
C53    C     0.03118   0.22699   0.08145   0.00000  Uiso   1.00
C54    C     0.27293   0.46875   0.91854   0.00000  Uiso   1.00
C55    C     0.22707   0.03125   0.08145   0.00000  Uiso   1.00
C56    C     0.03118   0.22699   0.91854   0.00000  Uiso   1.00
C57    C     0.46882   0.27301   0.08146   0.00000  Uiso   1.00
C58    C    -0.00000   0.25000   0.39819   0.00000  Uiso   1.00
C59    C     0.00000   0.25000   0.60181   0.00000  Uiso   1.00
C60    C     0.25000  -0.00000   0.39819   0.00000  Uiso   1.00
C61    C     0.00000   0.25000   0.14413   0.00000  Uiso   1.00
C62    C     0.25000   0.00000   0.60181   0.00000  Uiso   1.00
C63    C     0.25000  -0.00000   0.89819   0.00000  Uiso   1.00
C64    C     0.25000   0.00000   0.10181   0.00000  Uiso   1.00
C65    C    -0.00000   0.25000   0.89819   0.00000  Uiso   1.00
C66    C     0.00000   0.25000   0.10181   0.00000  Uiso   1.00
C67    C     0.02367   0.21958   0.45915   0.00000  Uiso   1.00
C68    C     0.47633   0.28042   0.54085   0.00000  Uiso   1.00
C69    C     0.28042   0.47633   0.45915   0.00000  Uiso   1.00
C70    C     0.21958   0.02367   0.54085   0.00000  Uiso   1.00
C71    C     0.47633   0.28042   0.45915   0.00000  Uiso   1.00
C72    C     0.25000  -0.00000   0.85587   0.00000  Uiso   1.00
C73    C     0.02367   0.21958   0.54085   0.00000  Uiso   1.00
C74    C     0.21958   0.02367   0.45915   0.00000  Uiso   1.00
C75    C     0.28042   0.47633   0.54085   0.00000  Uiso   1.00
C76    C     0.27363   0.46954   0.95915   0.00000  Uiso   1.00
C77    C     0.22638   0.03046   0.04085   0.00000  Uiso   1.00
C78    C     0.03039   0.22629   0.95915   0.00000  Uiso   1.00
C79    C     0.46961   0.27372   0.04085   0.00000  Uiso   1.00
C80    C     0.22637   0.03046   0.95915   0.00000  Uiso   1.00
C81    C     0.27363   0.46955   0.04085   0.00000  Uiso   1.00
C82    C     0.46961   0.27371   0.95915   0.00000  Uiso   1.00
C83    C     0.25000   0.00000   0.14413   0.00000  Uiso   1.00
C84    C     0.03039   0.22629   0.04085   0.00000  Uiso   1.00
C85    C    -0.00000   0.25000   0.47952   0.00000  Uiso   1.00
C86    C     0.00000   0.25000   0.52047   0.00000  Uiso   1.00
C87    C     0.25000  -0.00000   0.47952   0.00000  Uiso   1.00
C88    C     0.25000   0.00000   0.52047   0.00000  Uiso   1.00
C89    C     0.25000  -0.00000   0.97952   0.00000  Uiso   1.00
C90    C     0.25000   0.00000   0.02047   0.00000  Uiso   1.00
C91    C    -0.00000   0.25000   0.97952   0.00000  Uiso   1.00
C92    C     0.00000   0.25000   0.02047   0.00000  Uiso   1.00
C93    C     0.04707   0.18964   0.47989   0.00000  Uiso   1.00
C94    C     0.16999   0.08001   0.25000   0.00000  Uiso   1.00
C95    C     0.45293   0.31037   0.52011   0.00000  Uiso   1.00
C96    C     0.31037   0.45294   0.47989   0.00000  Uiso   1.00
C97    C     0.18963   0.04707   0.52011   0.00000  Uiso   1.00
C98    C     0.45293   0.31037   0.47989   0.00000  Uiso   1.00
C99    C     0.04707   0.18963   0.52011   0.00000  Uiso   1.00
C100   C     0.18963   0.04706   0.47989   0.00000  Uiso   1.00
C101   C     0.31037   0.45294   0.52011   0.00000  Uiso   1.00
C102   C     0.29698   0.43957   0.97989   0.00000  Uiso   1.00
C103   C     0.20302   0.06044   0.02011   0.00000  Uiso   1.00
C104   C     0.06029   0.20284   0.97988   0.00000  Uiso   1.00
H105   H     0.06551   0.16587   0.46514   0.00000  Uiso   1.00
H106   H     0.18462   0.08423   0.03485   0.00000  Uiso   1.00
H107   H     0.08403   0.18437   0.96514   0.00000  Uiso   1.00
H108   H     0.41597   0.31563   0.03486   0.00000  Uiso   1.00
H109   H     0.18461   0.08423   0.96514   0.00000  Uiso   1.00
H110   H     0.31539   0.41577   0.03486   0.00000  Uiso   1.00
H111   H     0.41597   0.31563   0.96515   0.00000  Uiso   1.00
H112   H     0.08403   0.18437   0.03485   0.00000  Uiso   1.00
H113   H     0.46777   0.31806   0.37393   0.00000  Uiso   1.00
H114   H     0.03223   0.18194   0.62607   0.00000  Uiso   1.00
H115   H     0.18192   0.03220   0.37394   0.00000  Uiso   1.00
H116   H     0.43449   0.33413   0.53486   0.00000  Uiso   1.00
H117   H     0.31808   0.46780   0.62606   0.00000  Uiso   1.00
H118   H     0.03221   0.18193   0.37394   0.00000  Uiso   1.00
H119   H     0.46779   0.31807   0.62606   0.00000  Uiso   1.00
H120   H     0.31807   0.46779   0.37393   0.00000  Uiso   1.00
H121   H     0.18193   0.03221   0.62607   0.00000  Uiso   1.00
H122   H     0.21786   0.06810   0.87392   0.00000  Uiso   1.00
H123   H     0.28214   0.43190   0.12608   0.00000  Uiso   1.00
H124   H     0.43196   0.28230   0.87394   0.00000  Uiso   1.00
H125   H     0.06804   0.21770   0.12606   0.00000  Uiso   1.00
H126   H     0.28216   0.43191   0.87392   0.00000  Uiso   1.00
H127   H     0.33414   0.43450   0.46514   0.00000  Uiso   1.00
H128   H     0.21784   0.06809   0.12608   0.00000  Uiso   1.00
H129   H     0.06804   0.21772   0.87394   0.00000  Uiso   1.00
H130   H     0.43196   0.28228   0.12605   0.00000  Uiso   1.00
H131   H     0.16586   0.06550   0.53486   0.00000  Uiso   1.00
H132   H     0.43449   0.33414   0.46514   0.00000  Uiso   1.00
H133   H     0.06551   0.16586   0.53485   0.00000  Uiso   1.00
H134   H     0.16586   0.06550   0.46514   0.00000  Uiso   1.00
H135   H     0.33414   0.43450   0.53486   0.00000  Uiso   1.00
H136   H     0.31538   0.41577   0.96515   0.00000  Uiso   1.00
O137   O     0.25000   0.00000   0.25000   0.00000  Uiso   1.00
O138   O     0.25000   0.46539   0.66251   0.00000  Uiso   1.00
O139   O     0.46539   0.25000   0.33749   0.00000  Uiso   1.00
O140   O     0.03462   0.25000   0.66251   0.00000  Uiso   1.00
O141   O     0.00000   0.21539   0.83749   0.00000  Uiso   1.00
O142   O     0.00000   0.28462   0.16251   0.00000  Uiso   1.00
O143   O     0.28462   0.00000   0.83749   0.00000  Uiso   1.00
O144   O     0.21539   0.00000   0.16251   0.00000  Uiso   1.00
O145   O     0.00000   0.28462   0.83749   0.00000  Uiso   1.00
O146   O     0.00000   0.21539   0.16251   0.00000  Uiso   1.00
O147   O     0.21539   0.00000   0.83749   0.00000  Uiso   1.00
O148   O     0.25000   0.00000   0.75000   0.00000  Uiso   1.00
O149   O     0.28462   0.00000   0.16251   0.00000  Uiso   1.00
O150   O     0.20127   0.08332   0.27298   0.00000  Uiso   1.00
O151   O     0.29874   0.41668   0.72702   0.00000  Uiso   1.00
O152   O     0.41668   0.20127   0.27298   0.00000  Uiso   1.00
O153   O     0.08332   0.29874   0.72702   0.00000  Uiso   1.00
O154   O     0.29874   0.41668   0.27298   0.00000  Uiso   1.00
O155   O     0.20127   0.08332   0.72702   0.00000  Uiso   1.00
O156   O     0.08332   0.29874   0.27298   0.00000  Uiso   1.00
O157   O     0.41668   0.20127   0.72702   0.00000  Uiso   1.00
O158   O     0.20127   0.41668   0.72702   0.00000  Uiso   1.00
O159   O     0.00000   0.25000   0.25000   0.00000  Uiso   1.00
O160   O     0.29874   0.08332   0.27298   0.00000  Uiso   1.00
O161   O     0.41668   0.29874   0.72702   0.00000  Uiso   1.00
O162   O     0.08332   0.20127   0.27298   0.00000  Uiso   1.00
O163   O     0.29874   0.08332   0.72702   0.00000  Uiso   1.00
O164   O     0.20127   0.41668   0.27298   0.00000  Uiso   1.00
O165   O     0.08332   0.20127   0.72702   0.00000  Uiso   1.00
O166   O     0.41668   0.29874   0.27298   0.00000  Uiso   1.00
O167   O     0.45127   0.33332   0.77298   0.00000  Uiso   1.00
O168   O     0.04874   0.16668   0.22702   0.00000  Uiso   1.00
O169   O     0.16668   0.45127   0.77298   0.00000  Uiso   1.00
O170   O     0.00000   0.25000   0.75000   0.00000  Uiso   1.00
O171   O     0.33332   0.04874   0.22702   0.00000  Uiso   1.00
O172   O     0.04874   0.16668   0.77298   0.00000  Uiso   1.00
O173   O     0.45127   0.33332   0.22702   0.00000  Uiso   1.00
O174   O     0.33332   0.04874   0.77298   0.00000  Uiso   1.00
O175   O     0.16668   0.45127   0.22702   0.00000  Uiso   1.00
O176   O     0.45127   0.16668   0.22702   0.00000  Uiso   1.00
O177   O     0.04874   0.33332   0.77298   0.00000  Uiso   1.00
O178   O     0.16668   0.04874   0.22702   0.00000  Uiso   1.00
O179   O     0.33332   0.45127   0.77298   0.00000  Uiso   1.00
O180   O     0.04874   0.33332   0.22702   0.00000  Uiso   1.00
O181   O     0.25000   0.46539   0.33749   0.00000  Uiso   1.00
O182   O     0.45127   0.16668   0.77298   0.00000  Uiso   1.00
O183   O     0.33332   0.45127   0.22702   0.00000  Uiso   1.00
O184   O     0.16668   0.04874   0.77298   0.00000  Uiso   1.00
O185   O     0.45543   0.31315   0.39982   0.00000  Uiso   1.00
O186   O     0.04457   0.18685   0.60018   0.00000  Uiso   1.00
O187   O     0.18685   0.04457   0.39982   0.00000  Uiso   1.00
O188   O     0.31315   0.45544   0.60018   0.00000  Uiso   1.00
O189   O     0.04457   0.18686   0.39981   0.00000  Uiso   1.00
O190   O     0.45543   0.31314   0.60018   0.00000  Uiso   1.00
O191   O     0.31315   0.45543   0.39982   0.00000  Uiso   1.00
O192   O     0.25000   0.03462   0.66251   0.00000  Uiso   1.00
O193   O     0.18685   0.04457   0.60018   0.00000  Uiso   1.00
O194   O     0.20551   0.06320   0.89981   0.00000  Uiso   1.00
O195   O     0.29449   0.43680   0.10019   0.00000  Uiso   1.00
O196   O     0.43691   0.29465   0.89982   0.00000  Uiso   1.00
O197   O     0.06309   0.20535   0.10018   0.00000  Uiso   1.00
O198   O     0.29449   0.43679   0.89982   0.00000  Uiso   1.00
O199   O     0.20551   0.06321   0.10018   0.00000  Uiso   1.00
O200   O     0.06308   0.20535   0.89982   0.00000  Uiso   1.00
O201   O     0.43692   0.29465   0.10018   0.00000  Uiso   1.00
O202   O     0.03462   0.25000   0.33749   0.00000  Uiso   1.00
O203   O     0.46539   0.25000   0.66251   0.00000  Uiso   1.00
O204   O     0.25000   0.03462   0.33749   0.00000  Uiso   1.00
Zn205  Zn    0.20053   0.00000   0.21730   0.00000  Uiso   1.00
Zn206  Zn    0.04948   0.25000   0.28270   0.00000  Uiso   1.00
Zn207  Zn    0.25000   0.45053   0.71730   0.00000  Uiso   1.00
Zn208  Zn    0.25000   0.04948   0.28270   0.00000  Uiso   1.00
Zn209  Zn    0.04948   0.25000   0.71730   0.00000  Uiso   1.00
Zn210  Zn    0.45053   0.25000   0.28270   0.00000  Uiso   1.00
Zn211  Zn    0.25000   0.04948   0.71730   0.00000  Uiso   1.00
Zn212  Zn    0.25000   0.45053   0.28270   0.00000  Uiso   1.00
Zn213  Zn    0.29948   0.00000   0.78270   0.00000  Uiso   1.00
Zn214  Zn    0.00000   0.20053   0.21730   0.00000  Uiso   1.00
Zn215  Zn    0.00000   0.29948   0.78270   0.00000  Uiso   1.00
Zn216  Zn    0.29948   0.00000   0.21730   0.00000  Uiso   1.00
Zn217  Zn    0.20053   0.00000   0.78270   0.00000  Uiso   1.00
Zn218  Zn    0.00000   0.29948   0.21730   0.00000  Uiso   1.00
Zn219  Zn    0.00000   0.20053   0.78270   0.00000  Uiso   1.00
Zn220  Zn    0.45053   0.25000   0.71730   0.00000  Uiso   1.00
C221   C     0.75000  -0.00000   0.35587   0.00000  Uiso   1.00
C222   C     0.83001   0.41999   0.75000   0.00000  Uiso   1.00
C223   C     0.93971   0.29716   0.02011   0.00000  Uiso   1.00
C224   C     0.70302   0.06043   0.97988   0.00000  Uiso   1.00
C225   C     0.79698   0.43957   0.02012   0.00000  Uiso   1.00
C226   C     0.93971   0.29716   0.97989   0.00000  Uiso   1.00
C227   C     0.56029   0.20284   0.02011   0.00000  Uiso   1.00
C228   C     0.91998   0.16998   0.25000   0.00000  Uiso   1.00
C229   C     0.58002   0.33002   0.75000   0.00000  Uiso   1.00
C230   C     0.83001   0.41999   0.25000   0.00000  Uiso   1.00
C231   C     0.66999   0.08001   0.75000   0.00000  Uiso   1.00
C232   C     0.58002   0.33002   0.25000   0.00000  Uiso   1.00
C233   C     0.91998   0.16998   0.75000   0.00000  Uiso   1.00
C234   C     0.66998   0.41998   0.75000   0.00000  Uiso   1.00
C235   C     0.83002   0.08002   0.25000   0.00000  Uiso   1.00
C236   C     0.91999   0.33001   0.75000   0.00000  Uiso   1.00
C237   C     0.75000   0.00000   0.64413   0.00000  Uiso   1.00
C238   C     0.58001   0.16999   0.25000   0.00000  Uiso   1.00
C239   C     0.83002   0.08002   0.75000   0.00000  Uiso   1.00
C240   C     0.66998   0.41998   0.25000   0.00000  Uiso   1.00
C241   C     0.58001   0.16999   0.75000   0.00000  Uiso   1.00
C242   C     0.91999   0.33001   0.25000   0.00000  Uiso   1.00
C243   C     0.63833   0.38833   0.25000   0.00000  Uiso   1.00
C244   C     0.86167   0.11167   0.75000   0.00000  Uiso   1.00
C245   C     0.61167   0.13833   0.25000   0.00000  Uiso   1.00
C246   C     0.88833   0.36167   0.75000   0.00000  Uiso   1.00
C247   C     0.86167   0.11167   0.25000   0.00000  Uiso   1.00
C248   C     0.50000   0.25000   0.35587   0.00000  Uiso   1.00
C249   C     0.63833   0.38833   0.75000   0.00000  Uiso   1.00
C250   C     0.88833   0.36167   0.25000   0.00000  Uiso   1.00
C251   C     0.61167   0.13833   0.75000   0.00000  Uiso   1.00
C252   C     0.63833   0.11167   0.75000   0.00000  Uiso   1.00
C253   C     0.86167   0.38833   0.25000   0.00000  Uiso   1.00
C254   C     0.61167   0.36167   0.75000   0.00000  Uiso   1.00
C255   C     0.88833   0.13833   0.25000   0.00000  Uiso   1.00
C256   C     0.86167   0.38833   0.75000   0.00000  Uiso   1.00
C257   C     0.63833   0.11167   0.25000   0.00000  Uiso   1.00
C258   C     0.88833   0.13833   0.75000   0.00000  Uiso   1.00
C259   C     0.50000   0.25000   0.64413   0.00000  Uiso   1.00
C260   C     0.61167   0.36167   0.25000   0.00000  Uiso   1.00
C261   C     0.97703   0.28122   0.41854   0.00000  Uiso   1.00
C262   C     0.52297   0.21878   0.58146   0.00000  Uiso   1.00
C263   C     0.71879   0.02296   0.41854   0.00000  Uiso   1.00
C264   C     0.78121   0.47704   0.58146   0.00000  Uiso   1.00
C265   C     0.52297   0.21879   0.41854   0.00000  Uiso   1.00
C266   C     0.97703   0.28121   0.58146   0.00000  Uiso   1.00
C267   C     0.78122   0.47703   0.41854   0.00000  Uiso   1.00
C268   C     0.71878   0.02297   0.58146   0.00000  Uiso   1.00
C269   C     0.72707   0.03124   0.91854   0.00000  Uiso   1.00
C270   C     0.50000   0.25000   0.85587   0.00000  Uiso   1.00
C271   C     0.77293   0.46876   0.08146   0.00000  Uiso   1.00
C272   C     0.96882   0.27301   0.91855   0.00000  Uiso   1.00
C273   C     0.53118   0.22699   0.08145   0.00000  Uiso   1.00
C274   C     0.77293   0.46875   0.91854   0.00000  Uiso   1.00
C275   C     0.72707   0.03125   0.08145   0.00000  Uiso   1.00
C276   C     0.53118   0.22699   0.91854   0.00000  Uiso   1.00
C277   C     0.96882   0.27301   0.08146   0.00000  Uiso   1.00
C278   C     0.50000   0.25000   0.39819   0.00000  Uiso   1.00
C279   C     0.50000   0.25000   0.60181   0.00000  Uiso   1.00
C280   C     0.75000  -0.00000   0.39819   0.00000  Uiso   1.00
C281   C     0.50000   0.25000   0.14413   0.00000  Uiso   1.00
C282   C     0.75000   0.00000   0.60181   0.00000  Uiso   1.00
C283   C     0.75000  -0.00000   0.89819   0.00000  Uiso   1.00
C284   C     0.75000   0.00000   0.10181   0.00000  Uiso   1.00
C285   C     0.50000   0.25000   0.89819   0.00000  Uiso   1.00
C286   C     0.50000   0.25000   0.10181   0.00000  Uiso   1.00
C287   C     0.52367   0.21958   0.45915   0.00000  Uiso   1.00
C288   C     0.97633   0.28042   0.54085   0.00000  Uiso   1.00
C289   C     0.78042   0.47633   0.45915   0.00000  Uiso   1.00
C290   C     0.71958   0.02367   0.54085   0.00000  Uiso   1.00
C291   C     0.97633   0.28042   0.45915   0.00000  Uiso   1.00
C292   C     0.75000  -0.00000   0.85587   0.00000  Uiso   1.00
C293   C     0.52367   0.21958   0.54085   0.00000  Uiso   1.00
C294   C     0.71958   0.02367   0.45915   0.00000  Uiso   1.00
C295   C     0.78042   0.47633   0.54085   0.00000  Uiso   1.00
C296   C     0.77363   0.46954   0.95915   0.00000  Uiso   1.00
C297   C     0.72638   0.03046   0.04085   0.00000  Uiso   1.00
C298   C     0.53039   0.22629   0.95915   0.00000  Uiso   1.00
C299   C     0.96961   0.27372   0.04085   0.00000  Uiso   1.00
C300   C     0.72637   0.03046   0.95915   0.00000  Uiso   1.00
C301   C     0.77363   0.46955   0.04085   0.00000  Uiso   1.00
C302   C     0.96961   0.27371   0.95915   0.00000  Uiso   1.00
C303   C     0.75000   0.00000   0.14413   0.00000  Uiso   1.00
C304   C     0.53039   0.22629   0.04085   0.00000  Uiso   1.00
C305   C     0.50000   0.25000   0.47952   0.00000  Uiso   1.00
C306   C     0.50000   0.25000   0.52047   0.00000  Uiso   1.00
C307   C     0.75000  -0.00000   0.47952   0.00000  Uiso   1.00
C308   C     0.75000   0.00000   0.52047   0.00000  Uiso   1.00
C309   C     0.75000  -0.00000   0.97952   0.00000  Uiso   1.00
C310   C     0.75000   0.00000   0.02047   0.00000  Uiso   1.00
C311   C     0.50000   0.25000   0.97952   0.00000  Uiso   1.00
C312   C     0.50000   0.25000   0.02047   0.00000  Uiso   1.00
C313   C     0.54707   0.18964   0.47989   0.00000  Uiso   1.00
C314   C     0.66999   0.08001   0.25000   0.00000  Uiso   1.00
C315   C     0.95293   0.31037   0.52011   0.00000  Uiso   1.00
C316   C     0.81037   0.45294   0.47989   0.00000  Uiso   1.00
C317   C     0.68963   0.04707   0.52011   0.00000  Uiso   1.00
C318   C     0.95293   0.31037   0.47989   0.00000  Uiso   1.00
C319   C     0.54707   0.18963   0.52011   0.00000  Uiso   1.00
C320   C     0.68963   0.04706   0.47989   0.00000  Uiso   1.00
C321   C     0.81037   0.45294   0.52011   0.00000  Uiso   1.00
C322   C     0.79698   0.43957   0.97989   0.00000  Uiso   1.00
C323   C     0.70302   0.06044   0.02011   0.00000  Uiso   1.00
C324   C     0.56029   0.20284   0.97988   0.00000  Uiso   1.00
H325   H     0.56551   0.16587   0.46514   0.00000  Uiso   1.00
H326   H     0.68462   0.08423   0.03485   0.00000  Uiso   1.00
H327   H     0.58403   0.18437   0.96514   0.00000  Uiso   1.00
H328   H     0.91597   0.31563   0.03486   0.00000  Uiso   1.00
H329   H     0.68461   0.08423   0.96514   0.00000  Uiso   1.00
H330   H     0.81539   0.41577   0.03486   0.00000  Uiso   1.00
H331   H     0.91597   0.31563   0.96515   0.00000  Uiso   1.00
H332   H     0.58403   0.18437   0.03485   0.00000  Uiso   1.00
H333   H     0.96777   0.31806   0.37393   0.00000  Uiso   1.00
H334   H     0.53223   0.18194   0.62607   0.00000  Uiso   1.00
H335   H     0.68192   0.03220   0.37394   0.00000  Uiso   1.00
H336   H     0.93449   0.33413   0.53486   0.00000  Uiso   1.00
H337   H     0.81808   0.46780   0.62606   0.00000  Uiso   1.00
H338   H     0.53221   0.18193   0.37394   0.00000  Uiso   1.00
H339   H     0.96779   0.31807   0.62606   0.00000  Uiso   1.00
H340   H     0.81807   0.46779   0.37393   0.00000  Uiso   1.00
H341   H     0.68193   0.03221   0.62607   0.00000  Uiso   1.00
H342   H     0.71786   0.06810   0.87392   0.00000  Uiso   1.00
H343   H     0.78214   0.43190   0.12608   0.00000  Uiso   1.00
H344   H     0.93196   0.28230   0.87394   0.00000  Uiso   1.00
H345   H     0.56804   0.21770   0.12606   0.00000  Uiso   1.00
H346   H     0.78216   0.43191   0.87392   0.00000  Uiso   1.00
H347   H     0.83414   0.43450   0.46514   0.00000  Uiso   1.00
H348   H     0.71784   0.06809   0.12608   0.00000  Uiso   1.00
H349   H     0.56804   0.21772   0.87394   0.00000  Uiso   1.00
H350   H     0.93196   0.28228   0.12605   0.00000  Uiso   1.00
H351   H     0.66586   0.06550   0.53486   0.00000  Uiso   1.00
H352   H     0.93449   0.33414   0.46514   0.00000  Uiso   1.00
H353   H     0.56551   0.16586   0.53485   0.00000  Uiso   1.00
H354   H     0.66586   0.06550   0.46514   0.00000  Uiso   1.00
H355   H     0.83414   0.43450   0.53486   0.00000  Uiso   1.00
H356   H     0.81538   0.41577   0.96515   0.00000  Uiso   1.00
O357   O     0.75000   0.00000   0.25000   0.00000  Uiso   1.00
O358   O     0.75000   0.46539   0.66251   0.00000  Uiso   1.00
O359   O     0.96539   0.25000   0.33749   0.00000  Uiso   1.00
O360   O     0.53462   0.25000   0.66251   0.00000  Uiso   1.00
O361   O     0.50000   0.21539   0.83749   0.00000  Uiso   1.00
O362   O     0.50000   0.28462   0.16251   0.00000  Uiso   1.00
O363   O     0.78462   0.00000   0.83749   0.00000  Uiso   1.00
O364   O     0.71539   0.00000   0.16251   0.00000  Uiso   1.00
O365   O     0.50000   0.28462   0.83749   0.00000  Uiso   1.00
O366   O     0.50000   0.21539   0.16251   0.00000  Uiso   1.00
O367   O     0.71539   0.00000   0.83749   0.00000  Uiso   1.00
O368   O     0.75000   0.00000   0.75000   0.00000  Uiso   1.00
O369   O     0.78462   0.00000   0.16251   0.00000  Uiso   1.00
O370   O     0.70127   0.08332   0.27298   0.00000  Uiso   1.00
O371   O     0.79874   0.41668   0.72702   0.00000  Uiso   1.00
O372   O     0.91668   0.20127   0.27298   0.00000  Uiso   1.00
O373   O     0.58332   0.29874   0.72702   0.00000  Uiso   1.00
O374   O     0.79874   0.41668   0.27298   0.00000  Uiso   1.00
O375   O     0.70127   0.08332   0.72702   0.00000  Uiso   1.00
O376   O     0.58332   0.29874   0.27298   0.00000  Uiso   1.00
O377   O     0.91668   0.20127   0.72702   0.00000  Uiso   1.00
O378   O     0.70127   0.41668   0.72702   0.00000  Uiso   1.00
O379   O     0.50000   0.25000   0.25000   0.00000  Uiso   1.00
O380   O     0.79874   0.08332   0.27298   0.00000  Uiso   1.00
O381   O     0.91668   0.29874   0.72702   0.00000  Uiso   1.00
O382   O     0.58332   0.20127   0.27298   0.00000  Uiso   1.00
O383   O     0.79874   0.08332   0.72702   0.00000  Uiso   1.00
O384   O     0.70127   0.41668   0.27298   0.00000  Uiso   1.00
O385   O     0.58332   0.20127   0.72702   0.00000  Uiso   1.00
O386   O     0.91668   0.29874   0.27298   0.00000  Uiso   1.00
O387   O     0.95127   0.33332   0.77298   0.00000  Uiso   1.00
O388   O     0.54874   0.16668   0.22702   0.00000  Uiso   1.00
O389   O     0.66668   0.45127   0.77298   0.00000  Uiso   1.00
O390   O     0.50000   0.25000   0.75000   0.00000  Uiso   1.00
O391   O     0.83332   0.04874   0.22702   0.00000  Uiso   1.00
O392   O     0.54874   0.16668   0.77298   0.00000  Uiso   1.00
O393   O     0.95127   0.33332   0.22702   0.00000  Uiso   1.00
O394   O     0.83332   0.04874   0.77298   0.00000  Uiso   1.00
O395   O     0.66668   0.45127   0.22702   0.00000  Uiso   1.00
O396   O     0.95127   0.16668   0.22702   0.00000  Uiso   1.00
O397   O     0.54874   0.33332   0.77298   0.00000  Uiso   1.00
O398   O     0.66668   0.04874   0.22702   0.00000  Uiso   1.00
O399   O     0.83332   0.45127   0.77298   0.00000  Uiso   1.00
O400   O     0.54874   0.33332   0.22702   0.00000  Uiso   1.00
O401   O     0.75000   0.46539   0.33749   0.00000  Uiso   1.00
O402   O     0.95127   0.16668   0.77298   0.00000  Uiso   1.00
O403   O     0.83332   0.45127   0.22702   0.00000  Uiso   1.00
O404   O     0.66668   0.04874   0.77298   0.00000  Uiso   1.00
O405   O     0.95543   0.31315   0.39982   0.00000  Uiso   1.00
O406   O     0.54457   0.18685   0.60018   0.00000  Uiso   1.00
O407   O     0.68685   0.04457   0.39982   0.00000  Uiso   1.00
O408   O     0.81315   0.45544   0.60018   0.00000  Uiso   1.00
O409   O     0.54457   0.18686   0.39981   0.00000  Uiso   1.00
O410   O     0.95543   0.31314   0.60018   0.00000  Uiso   1.00
O411   O     0.81315   0.45543   0.39982   0.00000  Uiso   1.00
O412   O     0.75000   0.03462   0.66251   0.00000  Uiso   1.00
O413   O     0.68685   0.04457   0.60018   0.00000  Uiso   1.00
O414   O     0.70551   0.06320   0.89981   0.00000  Uiso   1.00
O415   O     0.79449   0.43680   0.10019   0.00000  Uiso   1.00
O416   O     0.93691   0.29465   0.89982   0.00000  Uiso   1.00
O417   O     0.56309   0.20535   0.10018   0.00000  Uiso   1.00
O418   O     0.79449   0.43679   0.89982   0.00000  Uiso   1.00
O419   O     0.70551   0.06321   0.10018   0.00000  Uiso   1.00
O420   O     0.56308   0.20535   0.89982   0.00000  Uiso   1.00
O421   O     0.93692   0.29465   0.10018   0.00000  Uiso   1.00
O422   O     0.53462   0.25000   0.33749   0.00000  Uiso   1.00
O423   O     0.96539   0.25000   0.66251   0.00000  Uiso   1.00
O424   O     0.75000   0.03462   0.33749   0.00000  Uiso   1.00
Zn425  Zn    0.70053   0.00000   0.21730   0.00000  Uiso   1.00
Zn426  Zn    0.54948   0.25000   0.28270   0.00000  Uiso   1.00
Zn427  Zn    0.75000   0.45053   0.71730   0.00000  Uiso   1.00
Zn428  Zn    0.75000   0.04948   0.28270   0.00000  Uiso   1.00
Zn429  Zn    0.54948   0.25000   0.71730   0.00000  Uiso   1.00
Zn430  Zn    0.95053   0.25000   0.28270   0.00000  Uiso   1.00
Zn431  Zn    0.75000   0.04948   0.71730   0.00000  Uiso   1.00
Zn432  Zn    0.75000   0.45053   0.28270   0.00000  Uiso   1.00
Zn433  Zn    0.79948   0.00000   0.78270   0.00000  Uiso   1.00
Zn434  Zn    0.50000   0.20053   0.21730   0.00000  Uiso   1.00
Zn435  Zn    0.50000   0.29948   0.78270   0.00000  Uiso   1.00
Zn436  Zn    0.79948   0.00000   0.21730   0.00000  Uiso   1.00
Zn437  Zn    0.70053   0.00000   0.78270   0.00000  Uiso   1.00
Zn438  Zn    0.50000   0.29948   0.21730   0.00000  Uiso   1.00
Zn439  Zn    0.50000   0.20053   0.78270   0.00000  Uiso   1.00
Zn440  Zn    0.95053   0.25000   0.71730   0.00000  Uiso   1.00
C441   C     0.25000   0.50000   0.35587   0.00000  Uiso   1.00
C442   C     0.33001   0.91999   0.75000   0.00000  Uiso   1.00
C443   C     0.43971   0.79716   0.02011   0.00000  Uiso   1.00
C444   C     0.20302   0.56043   0.97988   0.00000  Uiso   1.00
C445   C     0.29698   0.93957   0.02012   0.00000  Uiso   1.00
C446   C     0.43971   0.79716   0.97989   0.00000  Uiso   1.00
C447   C     0.06029   0.70284   0.02011   0.00000  Uiso   1.00
C448   C     0.41998   0.66998   0.25000   0.00000  Uiso   1.00
C449   C     0.08002   0.83002   0.75000   0.00000  Uiso   1.00
C450   C     0.33001   0.91999   0.25000   0.00000  Uiso   1.00
C451   C     0.16999   0.58001   0.75000   0.00000  Uiso   1.00
C452   C     0.08002   0.83002   0.25000   0.00000  Uiso   1.00
C453   C     0.41998   0.66998   0.75000   0.00000  Uiso   1.00
C454   C     0.16998   0.91998   0.75000   0.00000  Uiso   1.00
C455   C     0.33002   0.58002   0.25000   0.00000  Uiso   1.00
C456   C     0.41999   0.83001   0.75000   0.00000  Uiso   1.00
C457   C     0.25000   0.50000   0.64413   0.00000  Uiso   1.00
C458   C     0.08001   0.66999   0.25000   0.00000  Uiso   1.00
C459   C     0.33002   0.58002   0.75000   0.00000  Uiso   1.00
C460   C     0.16998   0.91998   0.25000   0.00000  Uiso   1.00
C461   C     0.08001   0.66999   0.75000   0.00000  Uiso   1.00
C462   C     0.41999   0.83001   0.25000   0.00000  Uiso   1.00
C463   C     0.13833   0.88833   0.25000   0.00000  Uiso   1.00
C464   C     0.36167   0.61167   0.75000   0.00000  Uiso   1.00
C465   C     0.11167   0.63833   0.25000   0.00000  Uiso   1.00
C466   C     0.38833   0.86167   0.75000   0.00000  Uiso   1.00
C467   C     0.36167   0.61167   0.25000   0.00000  Uiso   1.00
C468   C    -0.00000   0.75000   0.35587   0.00000  Uiso   1.00
C469   C     0.13833   0.88833   0.75000   0.00000  Uiso   1.00
C470   C     0.38833   0.86167   0.25000   0.00000  Uiso   1.00
C471   C     0.11167   0.63833   0.75000   0.00000  Uiso   1.00
C472   C     0.13833   0.61167   0.75000   0.00000  Uiso   1.00
C473   C     0.36167   0.88833   0.25000   0.00000  Uiso   1.00
C474   C     0.11167   0.86167   0.75000   0.00000  Uiso   1.00
C475   C     0.38833   0.63833   0.25000   0.00000  Uiso   1.00
C476   C     0.36167   0.88833   0.75000   0.00000  Uiso   1.00
C477   C     0.13833   0.61167   0.25000   0.00000  Uiso   1.00
C478   C     0.38833   0.63833   0.75000   0.00000  Uiso   1.00
C479   C     0.00000   0.75000   0.64413   0.00000  Uiso   1.00
C480   C     0.11167   0.86167   0.25000   0.00000  Uiso   1.00
C481   C     0.47703   0.78122   0.41854   0.00000  Uiso   1.00
C482   C     0.02297   0.71878   0.58146   0.00000  Uiso   1.00
C483   C     0.21879   0.52296   0.41854   0.00000  Uiso   1.00
C484   C     0.28121   0.97704   0.58146   0.00000  Uiso   1.00
C485   C     0.02297   0.71879   0.41854   0.00000  Uiso   1.00
C486   C     0.47703   0.78121   0.58146   0.00000  Uiso   1.00
C487   C     0.28122   0.97703   0.41854   0.00000  Uiso   1.00
C488   C     0.21878   0.52297   0.58146   0.00000  Uiso   1.00
C489   C     0.22707   0.53124   0.91854   0.00000  Uiso   1.00
C490   C    -0.00000   0.75000   0.85587   0.00000  Uiso   1.00
C491   C     0.27293   0.96876   0.08146   0.00000  Uiso   1.00
C492   C     0.46882   0.77301   0.91855   0.00000  Uiso   1.00
C493   C     0.03118   0.72699   0.08145   0.00000  Uiso   1.00
C494   C     0.27293   0.96875   0.91854   0.00000  Uiso   1.00
C495   C     0.22707   0.53125   0.08145   0.00000  Uiso   1.00
C496   C     0.03118   0.72699   0.91854   0.00000  Uiso   1.00
C497   C     0.46882   0.77301   0.08146   0.00000  Uiso   1.00
C498   C    -0.00000   0.75000   0.39819   0.00000  Uiso   1.00
C499   C     0.00000   0.75000   0.60181   0.00000  Uiso   1.00
C500   C     0.25000   0.50000   0.39819   0.00000  Uiso   1.00
C501   C     0.00000   0.75000   0.14413   0.00000  Uiso   1.00
C502   C     0.25000   0.50000   0.60181   0.00000  Uiso   1.00
C503   C     0.25000   0.50000   0.89819   0.00000  Uiso   1.00
C504   C     0.25000   0.50000   0.10181   0.00000  Uiso   1.00
C505   C    -0.00000   0.75000   0.89819   0.00000  Uiso   1.00
C506   C     0.00000   0.75000   0.10181   0.00000  Uiso   1.00
C507   C     0.02367   0.71958   0.45915   0.00000  Uiso   1.00
C508   C     0.47633   0.78042   0.54085   0.00000  Uiso   1.00
C509   C     0.28042   0.97633   0.45915   0.00000  Uiso   1.00
C510   C     0.21958   0.52367   0.54085   0.00000  Uiso   1.00
C511   C     0.47633   0.78042   0.45915   0.00000  Uiso   1.00
C512   C     0.25000   0.50000   0.85587   0.00000  Uiso   1.00
C513   C     0.02367   0.71958   0.54085   0.00000  Uiso   1.00
C514   C     0.21958   0.52367   0.45915   0.00000  Uiso   1.00
C515   C     0.28042   0.97633   0.54085   0.00000  Uiso   1.00
C516   C     0.27363   0.96954   0.95915   0.00000  Uiso   1.00
C517   C     0.22638   0.53046   0.04085   0.00000  Uiso   1.00
C518   C     0.03039   0.72629   0.95915   0.00000  Uiso   1.00
C519   C     0.46961   0.77372   0.04085   0.00000  Uiso   1.00
C520   C     0.22637   0.53046   0.95915   0.00000  Uiso   1.00
C521   C     0.27363   0.96955   0.04085   0.00000  Uiso   1.00
C522   C     0.46961   0.77371   0.95915   0.00000  Uiso   1.00
C523   C     0.25000   0.50000   0.14413   0.00000  Uiso   1.00
C524   C     0.03039   0.72629   0.04085   0.00000  Uiso   1.00
C525   C    -0.00000   0.75000   0.47952   0.00000  Uiso   1.00
C526   C     0.00000   0.75000   0.52047   0.00000  Uiso   1.00
C527   C     0.25000   0.50000   0.47952   0.00000  Uiso   1.00
C528   C     0.25000   0.50000   0.52047   0.00000  Uiso   1.00
C529   C     0.25000   0.50000   0.97952   0.00000  Uiso   1.00
C530   C     0.25000   0.50000   0.02047   0.00000  Uiso   1.00
C531   C    -0.00000   0.75000   0.97952   0.00000  Uiso   1.00
C532   C     0.00000   0.75000   0.02047   0.00000  Uiso   1.00
C533   C     0.04707   0.68964   0.47989   0.00000  Uiso   1.00
C534   C     0.16999   0.58001   0.25000   0.00000  Uiso   1.00
C535   C     0.45293   0.81037   0.52011   0.00000  Uiso   1.00
C536   C     0.31037   0.95294   0.47989   0.00000  Uiso   1.00
C537   C     0.18963   0.54707   0.52011   0.00000  Uiso   1.00
C538   C     0.45293   0.81037   0.47989   0.00000  Uiso   1.00
C539   C     0.04707   0.68963   0.52011   0.00000  Uiso   1.00
C540   C     0.18963   0.54706   0.47989   0.00000  Uiso   1.00
C541   C     0.31037   0.95294   0.52011   0.00000  Uiso   1.00
C542   C     0.29698   0.93957   0.97989   0.00000  Uiso   1.00
C543   C     0.20302   0.56044   0.02011   0.00000  Uiso   1.00
C544   C     0.06029   0.70284   0.97988   0.00000  Uiso   1.00
H545   H     0.06551   0.66587   0.46514   0.00000  Uiso   1.00
H546   H     0.18462   0.58423   0.03485   0.00000  Uiso   1.00
H547   H     0.08403   0.68437   0.96514   0.00000  Uiso   1.00
H548   H     0.41597   0.81563   0.03486   0.00000  Uiso   1.00
H549   H     0.18461   0.58423   0.96514   0.00000  Uiso   1.00
H550   H     0.31539   0.91577   0.03486   0.00000  Uiso   1.00
H551   H     0.41597   0.81563   0.96515   0.00000  Uiso   1.00
H552   H     0.08403   0.68437   0.03485   0.00000  Uiso   1.00
H553   H     0.46777   0.81806   0.37393   0.00000  Uiso   1.00
H554   H     0.03223   0.68194   0.62607   0.00000  Uiso   1.00
H555   H     0.18192   0.53220   0.37394   0.00000  Uiso   1.00
H556   H     0.43449   0.83413   0.53486   0.00000  Uiso   1.00
H557   H     0.31808   0.96780   0.62606   0.00000  Uiso   1.00
H558   H     0.03221   0.68193   0.37394   0.00000  Uiso   1.00
H559   H     0.46779   0.81807   0.62606   0.00000  Uiso   1.00
H560   H     0.31807   0.96779   0.37393   0.00000  Uiso   1.00
H561   H     0.18193   0.53221   0.62607   0.00000  Uiso   1.00
H562   H     0.21786   0.56810   0.87392   0.00000  Uiso   1.00
H563   H     0.28214   0.93190   0.12608   0.00000  Uiso   1.00
H564   H     0.43196   0.78230   0.87394   0.00000  Uiso   1.00
H565   H     0.06804   0.71770   0.12606   0.00000  Uiso   1.00
H566   H     0.28216   0.93191   0.87392   0.00000  Uiso   1.00
H567   H     0.33414   0.93450   0.46514   0.00000  Uiso   1.00
H568   H     0.21784   0.56809   0.12608   0.00000  Uiso   1.00
H569   H     0.06804   0.71772   0.87394   0.00000  Uiso   1.00
H570   H     0.43196   0.78228   0.12605   0.00000  Uiso   1.00
H571   H     0.16586   0.56550   0.53486   0.00000  Uiso   1.00
H572   H     0.43449   0.83414   0.46514   0.00000  Uiso   1.00
H573   H     0.06551   0.66586   0.53485   0.00000  Uiso   1.00
H574   H     0.16586   0.56550   0.46514   0.00000  Uiso   1.00
H575   H     0.33414   0.93450   0.53486   0.00000  Uiso   1.00
H576   H     0.31538   0.91577   0.96515   0.00000  Uiso   1.00
O577   O     0.25000   0.50000   0.25000   0.00000  Uiso   1.00
O578   O     0.25000   0.96539   0.66251   0.00000  Uiso   1.00
O579   O     0.46539   0.75000   0.33749   0.00000  Uiso   1.00
O580   O     0.03462   0.75000   0.66251   0.00000  Uiso   1.00
O581   O     0.00000   0.71539   0.83749   0.00000  Uiso   1.00
O582   O     0.00000   0.78462   0.16251   0.00000  Uiso   1.00
O583   O     0.28462   0.50000   0.83749   0.00000  Uiso   1.00
O584   O     0.21539   0.50000   0.16251   0.00000  Uiso   1.00
O585   O     0.00000   0.78462   0.83749   0.00000  Uiso   1.00
O586   O     0.00000   0.71539   0.16251   0.00000  Uiso   1.00
O587   O     0.21539   0.50000   0.83749   0.00000  Uiso   1.00
O588   O     0.25000   0.50000   0.75000   0.00000  Uiso   1.00
O589   O     0.28462   0.50000   0.16251   0.00000  Uiso   1.00
O590   O     0.20127   0.58332   0.27298   0.00000  Uiso   1.00
O591   O     0.29874   0.91668   0.72702   0.00000  Uiso   1.00
O592   O     0.41668   0.70127   0.27298   0.00000  Uiso   1.00
O593   O     0.08332   0.79874   0.72702   0.00000  Uiso   1.00
O594   O     0.29874   0.91668   0.27298   0.00000  Uiso   1.00
O595   O     0.20127   0.58332   0.72702   0.00000  Uiso   1.00
O596   O     0.08332   0.79874   0.27298   0.00000  Uiso   1.00
O597   O     0.41668   0.70127   0.72702   0.00000  Uiso   1.00
O598   O     0.20127   0.91668   0.72702   0.00000  Uiso   1.00
O599   O     0.00000   0.75000   0.25000   0.00000  Uiso   1.00
O600   O     0.29874   0.58332   0.27298   0.00000  Uiso   1.00
O601   O     0.41668   0.79874   0.72702   0.00000  Uiso   1.00
O602   O     0.08332   0.70127   0.27298   0.00000  Uiso   1.00
O603   O     0.29874   0.58332   0.72702   0.00000  Uiso   1.00
O604   O     0.20127   0.91668   0.27298   0.00000  Uiso   1.00
O605   O     0.08332   0.70127   0.72702   0.00000  Uiso   1.00
O606   O     0.41668   0.79874   0.27298   0.00000  Uiso   1.00
O607   O     0.45127   0.83332   0.77298   0.00000  Uiso   1.00
O608   O     0.04874   0.66668   0.22702   0.00000  Uiso   1.00
O609   O     0.16668   0.95127   0.77298   0.00000  Uiso   1.00
O610   O     0.00000   0.75000   0.75000   0.00000  Uiso   1.00
O611   O     0.33332   0.54874   0.22702   0.00000  Uiso   1.00
O612   O     0.04874   0.66668   0.77298   0.00000  Uiso   1.00
O613   O     0.45127   0.83332   0.22702   0.00000  Uiso   1.00
O614   O     0.33332   0.54874   0.77298   0.00000  Uiso   1.00
O615   O     0.16668   0.95127   0.22702   0.00000  Uiso   1.00
O616   O     0.45127   0.66668   0.22702   0.00000  Uiso   1.00
O617   O     0.04874   0.83332   0.77298   0.00000  Uiso   1.00
O618   O     0.16668   0.54874   0.22702   0.00000  Uiso   1.00
O619   O     0.33332   0.95127   0.77298   0.00000  Uiso   1.00
O620   O     0.04874   0.83332   0.22702   0.00000  Uiso   1.00
O621   O     0.25000   0.96539   0.33749   0.00000  Uiso   1.00
O622   O     0.45127   0.66668   0.77298   0.00000  Uiso   1.00
O623   O     0.33332   0.95127   0.22702   0.00000  Uiso   1.00
O624   O     0.16668   0.54874   0.77298   0.00000  Uiso   1.00
O625   O     0.45543   0.81315   0.39982   0.00000  Uiso   1.00
O626   O     0.04457   0.68685   0.60018   0.00000  Uiso   1.00
O627   O     0.18685   0.54457   0.39982   0.00000  Uiso   1.00
O628   O     0.31315   0.95544   0.60018   0.00000  Uiso   1.00
O629   O     0.04457   0.68686   0.39981   0.00000  Uiso   1.00
O630   O     0.45543   0.81314   0.60018   0.00000  Uiso   1.00
O631   O     0.31315   0.95543   0.39982   0.00000  Uiso   1.00
O632   O     0.25000   0.53462   0.66251   0.00000  Uiso   1.00
O633   O     0.18685   0.54457   0.60018   0.00000  Uiso   1.00
O634   O     0.20551   0.56320   0.89981   0.00000  Uiso   1.00
O635   O     0.29449   0.93680   0.10019   0.00000  Uiso   1.00
O636   O     0.43691   0.79465   0.89982   0.00000  Uiso   1.00
O637   O     0.06309   0.70535   0.10018   0.00000  Uiso   1.00
O638   O     0.29449   0.93679   0.89982   0.00000  Uiso   1.00
O639   O     0.20551   0.56321   0.10018   0.00000  Uiso   1.00
O640   O     0.06308   0.70535   0.89982   0.00000  Uiso   1.00
O641   O     0.43692   0.79465   0.10018   0.00000  Uiso   1.00
O642   O     0.03462   0.75000   0.33749   0.00000  Uiso   1.00
O643   O     0.46539   0.75000   0.66251   0.00000  Uiso   1.00
O644   O     0.25000   0.53462   0.33749   0.00000  Uiso   1.00
Zn645  Zn    0.20053   0.50000   0.21730   0.00000  Uiso   1.00
Zn646  Zn    0.04948   0.75000   0.28270   0.00000  Uiso   1.00
Zn647  Zn    0.25000   0.95053   0.71730   0.00000  Uiso   1.00
Zn648  Zn    0.25000   0.54948   0.28270   0.00000  Uiso   1.00
Zn649  Zn    0.04948   0.75000   0.71730   0.00000  Uiso   1.00
Zn650  Zn    0.45053   0.75000   0.28270   0.00000  Uiso   1.00
Zn651  Zn    0.25000   0.54948   0.71730   0.00000  Uiso   1.00
Zn652  Zn    0.25000   0.95053   0.28270   0.00000  Uiso   1.00
Zn653  Zn    0.29948   0.50000   0.78270   0.00000  Uiso   1.00
Zn654  Zn    0.00000   0.70053   0.21730   0.00000  Uiso   1.00
Zn655  Zn    0.00000   0.79948   0.78270   0.00000  Uiso   1.00
Zn656  Zn    0.29948   0.50000   0.21730   0.00000  Uiso   1.00
Zn657  Zn    0.20053   0.50000   0.78270   0.00000  Uiso   1.00
Zn658  Zn    0.00000   0.79948   0.21730   0.00000  Uiso   1.00
Zn659  Zn    0.00000   0.70053   0.78270   0.00000  Uiso   1.00
Zn660  Zn    0.45053   0.75000   0.71730   0.00000  Uiso   1.00
C661   C     0.75000   0.50000   0.35587   0.00000  Uiso   1.00
C662   C     0.83001   0.91999   0.75000   0.00000  Uiso   1.00
C663   C     0.93971   0.79716   0.02011   0.00000  Uiso   1.00
C664   C     0.70302   0.56043   0.97988   0.00000  Uiso   1.00
C665   C     0.79698   0.93957   0.02012   0.00000  Uiso   1.00
C666   C     0.93971   0.79716   0.97989   0.00000  Uiso   1.00
C667   C     0.56029   0.70284   0.02011   0.00000  Uiso   1.00
C668   C     0.91998   0.66998   0.25000   0.00000  Uiso   1.00
C669   C     0.58002   0.83002   0.75000   0.00000  Uiso   1.00
C670   C     0.83001   0.91999   0.25000   0.00000  Uiso   1.00
C671   C     0.66999   0.58001   0.75000   0.00000  Uiso   1.00
C672   C     0.58002   0.83002   0.25000   0.00000  Uiso   1.00
C673   C     0.91998   0.66998   0.75000   0.00000  Uiso   1.00
C674   C     0.66998   0.91998   0.75000   0.00000  Uiso   1.00
C675   C     0.83002   0.58002   0.25000   0.00000  Uiso   1.00
C676   C     0.91999   0.83001   0.75000   0.00000  Uiso   1.00
C677   C     0.75000   0.50000   0.64413   0.00000  Uiso   1.00
C678   C     0.58001   0.66999   0.25000   0.00000  Uiso   1.00
C679   C     0.83002   0.58002   0.75000   0.00000  Uiso   1.00
C680   C     0.66998   0.91998   0.25000   0.00000  Uiso   1.00
C681   C     0.58001   0.66999   0.75000   0.00000  Uiso   1.00
C682   C     0.91999   0.83001   0.25000   0.00000  Uiso   1.00
C683   C     0.63833   0.88833   0.25000   0.00000  Uiso   1.00
C684   C     0.86167   0.61167   0.75000   0.00000  Uiso   1.00
C685   C     0.61167   0.63833   0.25000   0.00000  Uiso   1.00
C686   C     0.88833   0.86167   0.75000   0.00000  Uiso   1.00
C687   C     0.86167   0.61167   0.25000   0.00000  Uiso   1.00
C688   C     0.50000   0.75000   0.35587   0.00000  Uiso   1.00
C689   C     0.63833   0.88833   0.75000   0.00000  Uiso   1.00
C690   C     0.88833   0.86167   0.25000   0.00000  Uiso   1.00
C691   C     0.61167   0.63833   0.75000   0.00000  Uiso   1.00
C692   C     0.63833   0.61167   0.75000   0.00000  Uiso   1.00
C693   C     0.86167   0.88833   0.25000   0.00000  Uiso   1.00
C694   C     0.61167   0.86167   0.75000   0.00000  Uiso   1.00
C695   C     0.88833   0.63833   0.25000   0.00000  Uiso   1.00
C696   C     0.86167   0.88833   0.75000   0.00000  Uiso   1.00
C697   C     0.63833   0.61167   0.25000   0.00000  Uiso   1.00
C698   C     0.88833   0.63833   0.75000   0.00000  Uiso   1.00
C699   C     0.50000   0.75000   0.64413   0.00000  Uiso   1.00
C700   C     0.61167   0.86167   0.25000   0.00000  Uiso   1.00
C701   C     0.97703   0.78122   0.41854   0.00000  Uiso   1.00
C702   C     0.52297   0.71878   0.58146   0.00000  Uiso   1.00
C703   C     0.71879   0.52296   0.41854   0.00000  Uiso   1.00
C704   C     0.78121   0.97704   0.58146   0.00000  Uiso   1.00
C705   C     0.52297   0.71879   0.41854   0.00000  Uiso   1.00
C706   C     0.97703   0.78121   0.58146   0.00000  Uiso   1.00
C707   C     0.78122   0.97703   0.41854   0.00000  Uiso   1.00
C708   C     0.71878   0.52297   0.58146   0.00000  Uiso   1.00
C709   C     0.72707   0.53124   0.91854   0.00000  Uiso   1.00
C710   C     0.50000   0.75000   0.85587   0.00000  Uiso   1.00
C711   C     0.77293   0.96876   0.08146   0.00000  Uiso   1.00
C712   C     0.96882   0.77301   0.91855   0.00000  Uiso   1.00
C713   C     0.53118   0.72699   0.08145   0.00000  Uiso   1.00
C714   C     0.77293   0.96875   0.91854   0.00000  Uiso   1.00
C715   C     0.72707   0.53125   0.08145   0.00000  Uiso   1.00
C716   C     0.53118   0.72699   0.91854   0.00000  Uiso   1.00
C717   C     0.96882   0.77301   0.08146   0.00000  Uiso   1.00
C718   C     0.50000   0.75000   0.39819   0.00000  Uiso   1.00
C719   C     0.50000   0.75000   0.60181   0.00000  Uiso   1.00
C720   C     0.75000   0.50000   0.39819   0.00000  Uiso   1.00
C721   C     0.50000   0.75000   0.14413   0.00000  Uiso   1.00
C722   C     0.75000   0.50000   0.60181   0.00000  Uiso   1.00
C723   C     0.75000   0.50000   0.89819   0.00000  Uiso   1.00
C724   C     0.75000   0.50000   0.10181   0.00000  Uiso   1.00
C725   C     0.50000   0.75000   0.89819   0.00000  Uiso   1.00
C726   C     0.50000   0.75000   0.10181   0.00000  Uiso   1.00
C727   C     0.52367   0.71958   0.45915   0.00000  Uiso   1.00
C728   C     0.97633   0.78042   0.54085   0.00000  Uiso   1.00
C729   C     0.78042   0.97633   0.45915   0.00000  Uiso   1.00
C730   C     0.71958   0.52367   0.54085   0.00000  Uiso   1.00
C731   C     0.97633   0.78042   0.45915   0.00000  Uiso   1.00
C732   C     0.75000   0.50000   0.85587   0.00000  Uiso   1.00
C733   C     0.52367   0.71958   0.54085   0.00000  Uiso   1.00
C734   C     0.71958   0.52367   0.45915   0.00000  Uiso   1.00
C735   C     0.78042   0.97633   0.54085   0.00000  Uiso   1.00
C736   C     0.77363   0.96954   0.95915   0.00000  Uiso   1.00
C737   C     0.72638   0.53046   0.04085   0.00000  Uiso   1.00
C738   C     0.53039   0.72629   0.95915   0.00000  Uiso   1.00
C739   C     0.96961   0.77372   0.04085   0.00000  Uiso   1.00
C740   C     0.72637   0.53046   0.95915   0.00000  Uiso   1.00
C741   C     0.77363   0.96955   0.04085   0.00000  Uiso   1.00
C742   C     0.96961   0.77371   0.95915   0.00000  Uiso   1.00
C743   C     0.75000   0.50000   0.14413   0.00000  Uiso   1.00
C744   C     0.53039   0.72629   0.04085   0.00000  Uiso   1.00
C745   C     0.50000   0.75000   0.47952   0.00000  Uiso   1.00
C746   C     0.50000   0.75000   0.52047   0.00000  Uiso   1.00
C747   C     0.75000   0.50000   0.47952   0.00000  Uiso   1.00
C748   C     0.75000   0.50000   0.52047   0.00000  Uiso   1.00
C749   C     0.75000   0.50000   0.97952   0.00000  Uiso   1.00
C750   C     0.75000   0.50000   0.02047   0.00000  Uiso   1.00
C751   C     0.50000   0.75000   0.97952   0.00000  Uiso   1.00
C752   C     0.50000   0.75000   0.02047   0.00000  Uiso   1.00
C753   C     0.54707   0.68964   0.47989   0.00000  Uiso   1.00
C754   C     0.66999   0.58001   0.25000   0.00000  Uiso   1.00
C755   C     0.95293   0.81037   0.52011   0.00000  Uiso   1.00
C756   C     0.81037   0.95294   0.47989   0.00000  Uiso   1.00
C757   C     0.68963   0.54707   0.52011   0.00000  Uiso   1.00
C758   C     0.95293   0.81037   0.47989   0.00000  Uiso   1.00
C759   C     0.54707   0.68963   0.52011   0.00000  Uiso   1.00
C760   C     0.68963   0.54706   0.47989   0.00000  Uiso   1.00
C761   C     0.81037   0.95294   0.52011   0.00000  Uiso   1.00
C762   C     0.79698   0.93957   0.97989   0.00000  Uiso   1.00
C763   C     0.70302   0.56044   0.02011   0.00000  Uiso   1.00
C764   C     0.56029   0.70284   0.97988   0.00000  Uiso   1.00
H765   H     0.56551   0.66587   0.46514   0.00000  Uiso   1.00
H766   H     0.68462   0.58423   0.03485   0.00000  Uiso   1.00
H767   H     0.58403   0.68437   0.96514   0.00000  Uiso   1.00
H768   H     0.91597   0.81563   0.03486   0.00000  Uiso   1.00
H769   H     0.68461   0.58423   0.96514   0.00000  Uiso   1.00
H770   H     0.81539   0.91577   0.03486   0.00000  Uiso   1.00
H771   H     0.91597   0.81563   0.96515   0.00000  Uiso   1.00
H772   H     0.58403   0.68437   0.03485   0.00000  Uiso   1.00
H773   H     0.96777   0.81806   0.37393   0.00000  Uiso   1.00
H774   H     0.53223   0.68194   0.62607   0.00000  Uiso   1.00
H775   H     0.68192   0.53220   0.37394   0.00000  Uiso   1.00
H776   H     0.93449   0.83413   0.53486   0.00000  Uiso   1.00
H777   H     0.81808   0.96780   0.62606   0.00000  Uiso   1.00
H778   H     0.53221   0.68193   0.37394   0.00000  Uiso   1.00
H779   H     0.96779   0.81807   0.62606   0.00000  Uiso   1.00
H780   H     0.81807   0.96779   0.37393   0.00000  Uiso   1.00
H781   H     0.68193   0.53221   0.62607   0.00000  Uiso   1.00
H782   H     0.71786   0.56810   0.87392   0.00000  Uiso   1.00
H783   H     0.78214   0.93190   0.12608   0.00000  Uiso   1.00
H784   H     0.93196   0.78230   0.87394   0.00000  Uiso   1.00
H785   H     0.56804   0.71770   0.12606   0.00000  Uiso   1.00
H786   H     0.78216   0.93191   0.87392   0.00000  Uiso   1.00
H787   H     0.83414   0.93450   0.46514   0.00000  Uiso   1.00
H788   H     0.71784   0.56809   0.12608   0.00000  Uiso   1.00
H789   H     0.56804   0.71772   0.87394   0.00000  Uiso   1.00
H790   H     0.93196   0.78228   0.12605   0.00000  Uiso   1.00
H791   H     0.66586   0.56550   0.53486   0.00000  Uiso   1.00
H792   H     0.93449   0.83414   0.46514   0.00000  Uiso   1.00
H793   H     0.56551   0.66586   0.53485   0.00000  Uiso   1.00
H794   H     0.66586   0.56550   0.46514   0.00000  Uiso   1.00
H795   H     0.83414   0.93450   0.53486   0.00000  Uiso   1.00
H796   H     0.81538   0.91577   0.96515   0.00000  Uiso   1.00
O797   O     0.75000   0.50000   0.25000   0.00000  Uiso   1.00
O798   O     0.75000   0.96539   0.66251   0.00000  Uiso   1.00
O799   O     0.96539   0.75000   0.33749   0.00000  Uiso   1.00
O800   O     0.53462   0.75000   0.66251   0.00000  Uiso   1.00
O801   O     0.50000   0.71539   0.83749   0.00000  Uiso   1.00
O802   O     0.50000   0.78462   0.16251   0.00000  Uiso   1.00
O803   O     0.78462   0.50000   0.83749   0.00000  Uiso   1.00
O804   O     0.71539   0.50000   0.16251   0.00000  Uiso   1.00
O805   O     0.50000   0.78462   0.83749   0.00000  Uiso   1.00
O806   O     0.50000   0.71539   0.16251   0.00000  Uiso   1.00
O807   O     0.71539   0.50000   0.83749   0.00000  Uiso   1.00
O808   O     0.75000   0.50000   0.75000   0.00000  Uiso   1.00
O809   O     0.78462   0.50000   0.16251   0.00000  Uiso   1.00
O810   O     0.70127   0.58332   0.27298   0.00000  Uiso   1.00
O811   O     0.79874   0.91668   0.72702   0.00000  Uiso   1.00
O812   O     0.91668   0.70127   0.27298   0.00000  Uiso   1.00
O813   O     0.58332   0.79874   0.72702   0.00000  Uiso   1.00
O814   O     0.79874   0.91668   0.27298   0.00000  Uiso   1.00
O815   O     0.70127   0.58332   0.72702   0.00000  Uiso   1.00
O816   O     0.58332   0.79874   0.27298   0.00000  Uiso   1.00
O817   O     0.91668   0.70127   0.72702   0.00000  Uiso   1.00
O818   O     0.70127   0.91668   0.72702   0.00000  Uiso   1.00
O819   O     0.50000   0.75000   0.25000   0.00000  Uiso   1.00
O820   O     0.79874   0.58332   0.27298   0.00000  Uiso   1.00
O821   O     0.91668   0.79874   0.72702   0.00000  Uiso   1.00
O822   O     0.58332   0.70127   0.27298   0.00000  Uiso   1.00
O823   O     0.79874   0.58332   0.72702   0.00000  Uiso   1.00
O824   O     0.70127   0.91668   0.27298   0.00000  Uiso   1.00
O825   O     0.58332   0.70127   0.72702   0.00000  Uiso   1.00
O826   O     0.91668   0.79874   0.27298   0.00000  Uiso   1.00
O827   O     0.95127   0.83332   0.77298   0.00000  Uiso   1.00
O828   O     0.54874   0.66668   0.22702   0.00000  Uiso   1.00
O829   O     0.66668   0.95127   0.77298   0.00000  Uiso   1.00
O830   O     0.50000   0.75000   0.75000   0.00000  Uiso   1.00
O831   O     0.83332   0.54874   0.22702   0.00000  Uiso   1.00
O832   O     0.54874   0.66668   0.77298   0.00000  Uiso   1.00
O833   O     0.95127   0.83332   0.22702   0.00000  Uiso   1.00
O834   O     0.83332   0.54874   0.77298   0.00000  Uiso   1.00
O835   O     0.66668   0.95127   0.22702   0.00000  Uiso   1.00
O836   O     0.95127   0.66668   0.22702   0.00000  Uiso   1.00
O837   O     0.54874   0.83332   0.77298   0.00000  Uiso   1.00
O838   O     0.66668   0.54874   0.22702   0.00000  Uiso   1.00
O839   O     0.83332   0.95127   0.77298   0.00000  Uiso   1.00
O840   O     0.54874   0.83332   0.22702   0.00000  Uiso   1.00
O841   O     0.75000   0.96539   0.33749   0.00000  Uiso   1.00
O842   O     0.95127   0.66668   0.77298   0.00000  Uiso   1.00
O843   O     0.83332   0.95127   0.22702   0.00000  Uiso   1.00
O844   O     0.66668   0.54874   0.77298   0.00000  Uiso   1.00
O845   O     0.95543   0.81315   0.39982   0.00000  Uiso   1.00
O846   O     0.54457   0.68685   0.60018   0.00000  Uiso   1.00
O847   O     0.68685   0.54457   0.39982   0.00000  Uiso   1.00
O848   O     0.81315   0.95544   0.60018   0.00000  Uiso   1.00
O849   O     0.54457   0.68686   0.39981   0.00000  Uiso   1.00
O850   O     0.95543   0.81314   0.60018   0.00000  Uiso   1.00
O851   O     0.81315   0.95543   0.39982   0.00000  Uiso   1.00
O852   O     0.75000   0.53462   0.66251   0.00000  Uiso   1.00
O853   O     0.68685   0.54457   0.60018   0.00000  Uiso   1.00
O854   O     0.70551   0.56320   0.89981   0.00000  Uiso   1.00
O855   O     0.79449   0.93680   0.10019   0.00000  Uiso   1.00
O856   O     0.93691   0.79465   0.89982   0.00000  Uiso   1.00
O857   O     0.56309   0.70535   0.10018   0.00000  Uiso   1.00
O858   O     0.79449   0.93679   0.89982   0.00000  Uiso   1.00
O859   O     0.70551   0.56321   0.10018   0.00000  Uiso   1.00
O860   O     0.56308   0.70535   0.89982   0.00000  Uiso   1.00
O861   O     0.93692   0.79465   0.10018   0.00000  Uiso   1.00
O862   O     0.53462   0.75000   0.33749   0.00000  Uiso   1.00
O863   O     0.96539   0.75000   0.66251   0.00000  Uiso   1.00
O864   O     0.75000   0.53462   0.33749   0.00000  Uiso   1.00
Zn865  Zn    0.70053   0.50000   0.21730   0.00000  Uiso   1.00
Zn866  Zn    0.54948   0.75000   0.28270   0.00000  Uiso   1.00
Zn867  Zn    0.75000   0.95053   0.71730   0.00000  Uiso   1.00
Zn868  Zn    0.75000   0.54948   0.28270   0.00000  Uiso   1.00
Zn869  Zn    0.54948   0.75000   0.71730   0.00000  Uiso   1.00
Zn870  Zn    0.95053   0.75000   0.28270   0.00000  Uiso   1.00
Zn871  Zn    0.75000   0.54948   0.71730   0.00000  Uiso   1.00
Zn872  Zn    0.75000   0.95053   0.28270   0.00000  Uiso   1.00
Zn873  Zn    0.79948   0.50000   0.78270   0.00000  Uiso   1.00
Zn874  Zn    0.50000   0.70053   0.21730   0.00000  Uiso   1.00
Zn875  Zn    0.50000   0.79948   0.78270   0.00000  Uiso   1.00
Zn876  Zn    0.79948   0.50000   0.21730   0.00000  Uiso   1.00
Zn877  Zn    0.70053   0.50000   0.78270   0.00000  Uiso   1.00
Zn878  Zn    0.50000   0.79948   0.21730   0.00000  Uiso   1.00
Zn879  Zn    0.50000   0.70053   0.78270   0.00000  Uiso   1.00
Zn880  Zn    0.95053   0.75000   0.71730   0.00000  Uiso   1.00
loop_
_geom_bond_atom_site_label_1
_geom_bond_atom_site_label_2
_geom_bond_distance
_geom_bond_site_symmetry_2
_ccdc_geom_bond_type
C1     O621    1.270   1_545 A
C1     C60     1.462   .     S
C1     O204    1.270   .     S
C2     O179    1.277   .     A
C2     C36     1.423   .     S
C2     O151    1.277   .     A
C3     C79     1.404   .     A
C3     H108    1.083   .     S
C3     C6      1.389   1_554 S
C4     H109    1.083   .     S
C4     C80     1.404   .     A
C4     C103    1.389   1_556 S
C5     H110    1.083   .     S
C5     C81     1.404   .     A
C5     C102    1.389   1_554 S
C6     H111    1.083   .     S
C6     C82     1.404   .     A
C6     C3      1.389   1_556 S
C7     H112    1.083   .     S
C7     C84     1.404   .     A
C7     C104    1.389   1_554 S
C8     O152    1.277   .     A
C8     C35     1.423   .     S
C8     O176    1.277   .     A
C9     C34     1.423   .     S
C9     O177    1.277   .     A
C9     O153    1.277   .     A
C10    O154    1.277   .     A
C10    O183    1.277   .     A
C10    C33     1.423   .     S
C11    O155    1.277   .     A
C11    C32     1.423   .     S
C11    O184    1.277   .     A
C12    C40     1.423   .     S
C12    O180    1.277   .     A
C12    O156    1.277   .     A
C13    O157    1.277   .     A
C13    C38     1.423   .     S
C13    O182    1.277   .     A
C14    O158    1.277   .     A
C14    O169    1.277   .     A
C14    C29     1.423   .     S
C15    C27     1.423   .     S
C15    O171    1.277   .     A
C15    O160    1.277   .     A
C16    O167    1.277   .     A
C16    C26     1.423   .     S
C16    O161    1.277   .     A
C17    O192    1.270   .     A
C17    C62     1.462   .     S
C17    O578    1.270   1_545 S
C18    C25     1.423   .     S
C18    O168    1.277   .     A
C18    O162    1.277   .     A
C19    O174    1.277   .     A
C19    O163    1.277   .     A
C19    C24     1.423   .     S
C20    O175    1.277   .     A
C20    O164    1.277   .     A
C20    C23     1.423   .     S
C21    O165    1.277   .     A
C21    C31     1.423   .     S
C21    O172    1.277   .     A
C22    O173    1.277   .     A
C22    C30     1.423   .     S
C22    O166    1.277   .     A
C23    C40     1.199   .     T
C24    C38     1.199   .     T
C25    C37     1.198   .     T
C26    C36     1.198   .     T
C27    C35     1.199   .     T
C28    O359    1.270   1_455 A
C28    C58     1.462   .     S
C28    O202    1.270   .     S
C29    C34     1.199   .     T
C30    C33     1.198   .     T
C31    C32     1.198   .     T
C37    C94     1.423   .     S
C39    C59     1.462   .     S
C39    O140    1.270   .     A
C39    O423    1.270   1_455 S
C41    C278    1.418   .     A
C41    C71     1.403   .     A
C41    O185    1.386   .     S
C42    C73     1.403   .     A
C42    C59     1.418   .     A
C42    O186    1.385   .     S
C43    C74     1.403   .     A
C43    O187    1.385   .     S
C43    C60     1.418   .     S
C44    C75     1.403   .     A
C44    O188    1.385   .     S
C44    C502    1.418   .     S
C45    C67     1.403   .     A
C45    O189    1.385   .     S
C45    C58     1.418   .     S
C46    O190    1.385   .     S
C46    C68     1.403   .     A
C46    C279    1.418   .     S
C47    C69     1.403   .     A
C47    C500    1.418   .     A
C47    O191    1.385   .     S
C48    O193    1.385   .     S
C48    C62     1.418   .     A
C48    C70     1.403   .     A
C49    O194    1.385   .     S
C49    C80     1.403   .     A
C49    C63     1.418   .     S
C50    O141    1.270   .     A
C50    C65     1.462   .     S
C50    O145    1.270   .     S
C51    C81     1.403   .     A
C51    O195    1.385   .     S
C51    C504    1.418   .     S
C52    O196    1.385   .     S
C52    C82     1.403   .     A
C52    C285    1.418   .     A
C53    C84     1.403   .     A
C53    O197    1.385   .     S
C53    C66     1.418   .     A
C54    C76     1.403   .     A
C54    O198    1.386   .     S
C54    C503    1.418   .     A
C55    C77     1.403   .     A
C55    O199    1.386   .     S
C55    C64     1.418   .     A
C56    C78     1.403   .     A
C56    O200    1.385   .     S
C56    C65     1.418   .     S
C57    C79     1.403   .     A
C57    O201    1.385   .     S
C57    C286    1.418   .     S
C58    C261    1.418   1_455 A
C59    C266    1.418   1_455 S
C60    C487    1.418   1_545 A
C61    C66     1.462   .     S
C61    O142    1.270   .     A
C61    O146    1.270   .     S
C62    C484    1.418   1_545 S
C63    C72     1.462   .     S
C63    C494    1.418   1_545 A
C64    C83     1.462   .     S
C64    C491    1.418   1_545 S
C65    C272    1.418   1_455 A
C66    C277    1.418   1_455 S
C67    C93     1.404   .     A
C67    C85     1.413   .     S
C68    C95     1.404   .     A
C68    C306    1.413   .     S
C69    C96     1.404   .     A
C69    C527    1.413   .     A
C70    C88     1.413   .     A
C70    C97     1.404   .     A
C71    C305    1.413   .     A
C71    C98     1.404   .     A
C72    O143    1.270   .     S
C72    O147    1.270   .     S
C73    C99     1.404   .     A
C73    C86     1.413   .     A
C74    C100    1.404   .     A
C74    C87     1.413   .     S
C75    C101    1.404   .     A
C75    C528    1.413   .     S
C76    C529    1.413   .     A
C76    C102    1.404   .     A
C77    C90     1.413   .     A
C77    C103    1.404   .     A
C78    C104    1.404   .     A
C78    C91     1.413   .     S
C79    C312    1.413   .     S
C80    C89     1.413   .     S
C81    C530    1.413   .     S
C82    C311    1.413   .     A
C83    O144    1.270   .     S
C83    O149    1.270   .     S
C84    C92     1.413   .     A
C85    C291    1.413   1_455 A
C85    C86     1.414   .     S
C86    C288    1.413   1_455 S
C87    C509    1.413   1_545 A
C87    C88     1.414   .     S
C88    C515    1.413   1_545 S
C89    C516    1.413   1_545 A
C89    C90     1.414   1_556 S
C90    C521    1.413   1_545 S
C90    C89     1.414   1_554 S
C91    C302    1.413   1_455 A
C91    C92     1.414   1_556 S
C92    C299    1.413   1_455 S
C92    C91     1.414   1_554 S
C93    H105    1.083   .     S
C93    C99     1.389   .     A
C94    O178    1.277   .     A
C94    O150    1.277   .     A
C95    C98     1.389   .     A
C95    H116    1.083   .     S
C96    C101    1.389   .     A
C96    H127    1.083   .     S
C97    H131    1.083   .     S
C97    C100    1.389   .     A
C98    H132    1.083   .     S
C99    H133    1.083   .     S
C100   H134    1.083   .     S
C101   H135    1.083   .     S
C102   H136    1.083   .     S
C102   C5      1.389   1_556 S
C103   H106    1.083   .     S
C103   C4      1.389   1_554 S
C104   H107    1.083   .     S
C104   C7      1.389   1_556 S
H113   O185    0.989   .     S
H114   O186    0.989   .     S
H115   O187    0.989   .     S
H117   O188    0.989   .     S
H118   O189    0.989   .     S
H119   O190    0.989   .     S
H120   O191    0.989   .     S
H121   O193    0.989   .     S
H122   O194    0.989   .     S
H123   O195    0.989   .     S
H124   O196    0.989   .     S
H125   O197    0.989   .     S
H126   O198    0.989   .     S
H128   O199    0.989   .     S
H129   O200    0.989   .     S
H130   O201    0.989   .     S
O137   Zn205   1.936   .     S
O137   Zn652   1.936   1_545 S
O137   Zn216   1.936   .     S
O137   Zn208   1.936   .     S
O138   Zn207   1.950   .     S
O138   C457    1.270   .     S
O139   C248    1.270   .     A
O139   Zn210   1.950   .     S
O140   Zn209   1.950   .     S
O141   Zn219   1.950   .     S
O142   Zn218   1.950   .     S
O143   Zn213   1.950   .     S
O144   Zn205   1.950   .     S
O145   Zn215   1.950   .     S
O146   Zn214   1.950   .     S
O147   Zn217   1.950   .     S
O148   Zn213   1.936   .     S
O148   Zn217   1.936   .     S
O148   Zn211   1.936   .     S
O148   Zn647   1.936   1_545 S
O149   Zn216   1.950   .     S
O150   Zn208   1.915   .     S
O151   Zn207   1.915   .     S
O152   Zn210   1.916   .     S
O153   Zn209   1.916   .     S
O154   Zn212   1.915   .     S
O155   Zn211   1.915   .     S
O156   Zn206   1.916   .     S
O157   Zn220   1.916   .     S
O158   Zn207   1.916   .     S
O159   Zn214   1.936   .     S
O159   Zn206   1.936   .     S
O159   Zn430   1.936   1_455 S
O159   Zn218   1.936   .     S
O160   Zn208   1.916   .     S
O161   Zn220   1.915   .     S
O162   Zn206   1.915   .     S
O163   Zn211   1.916   .     S
O164   Zn212   1.916   .     S
O165   Zn209   1.915   .     S
O166   Zn210   1.915   .     S
O167   Zn435   1.915   .     S
O168   Zn214   1.915   .     S
O169   Zn657   1.916   .     S
O170   Zn440   1.936   1_455 S
O170   Zn209   1.936   .     S
O170   Zn215   1.936   .     S
O170   Zn219   1.936   .     S
O171   Zn216   1.916   .     S
O172   Zn219   1.915   .     S
O173   Zn438   1.915   .     S
O174   Zn213   1.916   .     S
O175   Zn645   1.916   .     S
O176   Zn434   1.916   .     S
O177   Zn215   1.916   .     S
O178   Zn205   1.915   .     S
O179   Zn653   1.915   .     S
O180   Zn218   1.916   .     S
O181   Zn212   1.950   .     S
O181   C441    1.270   .     A
O182   Zn439   1.916   .     S
O183   Zn656   1.915   .     S
O184   Zn217   1.915   .     S
O192   Zn211   1.950   .     S
O202   Zn206   1.950   .     S
O203   Zn220   1.950   .     S
O203   C259    1.270   .     S
O204   Zn208   1.950   .     S
Zn205  O615    1.916   1_545 S
Zn207  O588    1.936   .     S
Zn210  O379    1.936   .     S
Zn212  O577    1.936   .     S
Zn213  O619    1.915   1_545 S
Zn214  O396    1.916   1_455 S
Zn215  O387    1.915   1_455 S
Zn216  O623    1.915   1_545 S
Zn217  O609    1.916   1_545 S
Zn218  O393    1.915   1_455 S
Zn219  O402    1.916   1_455 S
Zn220  O390    1.936   .     S
C221   O841    1.270   1_545 A
C221   C280    1.462   .     S
C221   O424    1.270   .     S
C222   O399    1.277   .     A
C222   C256    1.423   .     S
C222   O371    1.277   .     A
C223   C299    1.404   .     A
C223   H328    1.083   .     S
C223   C226    1.389   1_554 S
C224   H329    1.083   .     S
C224   C300    1.404   .     A
C224   C323    1.389   1_556 S
C225   H330    1.083   .     S
C225   C301    1.404   .     A
C225   C322    1.389   1_554 S
C226   H331    1.083   .     S
C226   C302    1.404   .     A
C226   C223    1.389   1_556 S
C227   H332    1.083   .     S
C227   C304    1.404   .     A
C227   C324    1.389   1_554 S
C228   O372    1.277   .     A
C228   C255    1.423   .     S
C228   O396    1.277   .     A
C229   C254    1.423   .     S
C229   O397    1.277   .     A
C229   O373    1.277   .     A
C230   O374    1.277   .     A
C230   O403    1.277   .     A
C230   C253    1.423   .     S
C231   O375    1.277   .     A
C231   C252    1.423   .     S
C231   O404    1.277   .     A
C232   C260    1.423   .     S
C232   O400    1.277   .     A
C232   O376    1.277   .     A
C233   O377    1.277   .     A
C233   C258    1.423   .     S
C233   O402    1.277   .     A
C234   O378    1.277   .     A
C234   O389    1.277   .     A
C234   C249    1.423   .     S
C235   C247    1.423   .     S
C235   O391    1.277   .     A
C235   O380    1.277   .     A
C236   O387    1.277   .     A
C236   C246    1.423   .     S
C236   O381    1.277   .     A
C237   O412    1.270   .     A
C237   C282    1.462   .     S
C237   O798    1.270   1_545 S
C238   C245    1.423   .     S
C238   O388    1.277   .     A
C238   O382    1.277   .     A
C239   O394    1.277   .     A
C239   O383    1.277   .     A
C239   C244    1.423   .     S
C240   O395    1.277   .     A
C240   O384    1.277   .     A
C240   C243    1.423   .     S
C241   O385    1.277   .     A
C241   C251    1.423   .     S
C241   O392    1.277   .     A
C242   O393    1.277   .     A
C242   C250    1.423   .     S
C242   O386    1.277   .     A
C243   C260    1.199   .     T
C244   C258    1.199   .     T
C245   C257    1.198   .     T
C246   C256    1.198   .     T
C247   C255    1.199   .     T
C248   C278    1.462   .     S
C248   O422    1.270   .     S
C249   C254    1.199   .     T
C250   C253    1.198   .     T
C251   C252    1.198   .     T
C257   C314    1.423   .     S
C259   C279    1.462   .     S
C259   O360    1.270   .     A
C261   C58     1.418   1_655 A
C261   C291    1.403   .     A
C261   O405    1.386   .     S
C262   C293    1.403   .     A
C262   C279    1.418   .     A
C262   O406    1.385   .     S
C263   C294    1.403   .     A
C263   O407    1.385   .     S
C263   C280    1.418   .     S
C264   C295    1.403   .     A
C264   O408    1.385   .     S
C264   C722    1.418   .     S
C265   C287    1.403   .     A
C265   O409    1.385   .     S
C265   C278    1.418   .     S
C266   O410    1.385   .     S
C266   C288    1.403   .     A
C266   C59     1.418   1_655 S
C267   C289    1.403   .     A
C267   C720    1.418   .     A
C267   O411    1.385   .     S
C268   O413    1.385   .     S
C268   C282    1.418   .     A
C268   C290    1.403   .     A
C269   O414    1.385   .     S
C269   C300    1.403   .     A
C269   C283    1.418   .     S
C270   O361    1.270   .     A
C270   C285    1.462   .     S
C270   O365    1.270   .     S
C271   C301    1.403   .     A
C271   O415    1.385   .     S
C271   C724    1.418   .     S
C272   O416    1.385   .     S
C272   C302    1.403   .     A
C272   C65     1.418   1_655 A
C273   C304    1.403   .     A
C273   O417    1.385   .     S
C273   C286    1.418   .     A
C274   C296    1.403   .     A
C274   O418    1.386   .     S
C274   C723    1.418   .     A
C275   C297    1.403   .     A
C275   O419    1.386   .     S
C275   C284    1.418   .     A
C276   C298    1.403   .     A
C276   O420    1.385   .     S
C276   C285    1.418   .     S
C277   C299    1.403   .     A
C277   O421    1.385   .     S
C277   C66     1.418   1_655 S
C280   C707    1.418   1_545 A
C281   C286    1.462   .     S
C281   O362    1.270   .     A
C281   O366    1.270   .     S
C282   C704    1.418   1_545 S
C283   C292    1.462   .     S
C283   C714    1.418   1_545 A
C284   C303    1.462   .     S
C284   C711    1.418   1_545 S
C287   C313    1.404   .     A
C287   C305    1.413   .     S
C288   C315    1.404   .     A
C288   C86     1.413   1_655 S
C289   C316    1.404   .     A
C289   C747    1.413   .     A
C290   C308    1.413   .     A
C290   C317    1.404   .     A
C291   C85     1.413   1_655 A
C291   C318    1.404   .     A
C292   O363    1.270   .     S
C292   O367    1.270   .     S
C293   C319    1.404   .     A
C293   C306    1.413   .     A
C294   C320    1.404   .     A
C294   C307    1.413   .     S
C295   C321    1.404   .     A
C295   C748    1.413   .     S
C296   C749    1.413   .     A
C296   C322    1.404   .     A
C297   C310    1.413   .     A
C297   C323    1.404   .     A
C298   C324    1.404   .     A
C298   C311    1.413   .     S
C299   C92     1.413   1_655 S
C300   C309    1.413   .     S
C301   C750    1.413   .     S
C302   C91     1.413   1_655 A
C303   O364    1.270   .     S
C303   O369    1.270   .     S
C304   C312    1.413   .     A
C305   C306    1.414   .     S
C307   C729    1.413   1_545 A
C307   C308    1.414   .     S
C308   C735    1.413   1_545 S
C309   C736    1.413   1_545 A
C309   C310    1.414   1_556 S
C310   C741    1.413   1_545 S
C310   C309    1.414   1_554 S
C311   C312    1.414   1_556 S
C312   C311    1.414   1_554 S
C313   H325    1.083   .     S
C313   C319    1.389   .     A
C314   O398    1.277   .     A
C314   O370    1.277   .     A
C315   C318    1.389   .     A
C315   H336    1.083   .     S
C316   C321    1.389   .     A
C316   H347    1.083   .     S
C317   H351    1.083   .     S
C317   C320    1.389   .     A
C318   H352    1.083   .     S
C319   H353    1.083   .     S
C320   H354    1.083   .     S
C321   H355    1.083   .     S
C322   H356    1.083   .     S
C322   C225    1.389   1_556 S
C323   H326    1.083   .     S
C323   C224    1.389   1_554 S
C324   H327    1.083   .     S
C324   C227    1.389   1_556 S
H333   O405    0.989   .     S
H334   O406    0.989   .     S
H335   O407    0.989   .     S
H337   O408    0.989   .     S
H338   O409    0.989   .     S
H339   O410    0.989   .     S
H340   O411    0.989   .     S
H341   O413    0.989   .     S
H342   O414    0.989   .     S
H343   O415    0.989   .     S
H344   O416    0.989   .     S
H345   O417    0.989   .     S
H346   O418    0.989   .     S
H348   O419    0.989   .     S
H349   O420    0.989   .     S
H350   O421    0.989   .     S
O357   Zn425   1.936   .     S
O357   Zn872   1.936   1_545 S
O357   Zn436   1.936   .     S
O357   Zn428   1.936   .     S
O358   Zn427   1.950   .     S
O358   C677    1.270   .     S
O359   C28     1.270   1_655 A
O359   Zn430   1.950   .     S
O360   Zn429   1.950   .     S
O361   Zn439   1.950   .     S
O362   Zn438   1.950   .     S
O363   Zn433   1.950   .     S
O364   Zn425   1.950   .     S
O365   Zn435   1.950   .     S
O366   Zn434   1.950   .     S
O367   Zn437   1.950   .     S
O368   Zn433   1.936   .     S
O368   Zn437   1.936   .     S
O368   Zn431   1.936   .     S
O368   Zn867   1.936   1_545 S
O369   Zn436   1.950   .     S
O370   Zn428   1.915   .     S
O371   Zn427   1.915   .     S
O372   Zn430   1.916   .     S
O373   Zn429   1.916   .     S
O374   Zn432   1.915   .     S
O375   Zn431   1.915   .     S
O376   Zn426   1.916   .     S
O377   Zn440   1.916   .     S
O378   Zn427   1.916   .     S
O379   Zn434   1.936   .     S
O379   Zn426   1.936   .     S
O379   Zn438   1.936   .     S
O380   Zn428   1.916   .     S
O381   Zn440   1.915   .     S
O382   Zn426   1.915   .     S
O383   Zn431   1.916   .     S
O384   Zn432   1.916   .     S
O385   Zn429   1.915   .     S
O386   Zn430   1.915   .     S
O387   Zn215   1.915   1_655 S
O388   Zn434   1.915   .     S
O389   Zn877   1.916   .     S
O390   Zn429   1.936   .     S
O390   Zn435   1.936   .     S
O390   Zn439   1.936   .     S
O391   Zn436   1.916   .     S
O392   Zn439   1.915   .     S
O393   Zn218   1.915   1_655 S
O394   Zn433   1.916   .     S
O395   Zn865   1.916   .     S
O396   Zn214   1.916   1_655 S
O397   Zn435   1.916   .     S
O398   Zn425   1.915   .     S
O399   Zn873   1.915   .     S
O400   Zn438   1.916   .     S
O401   Zn432   1.950   .     S
O401   C661    1.270   .     A
O402   Zn219   1.916   1_655 S
O403   Zn876   1.915   .     S
O404   Zn437   1.915   .     S
O412   Zn431   1.950   .     S
O422   Zn426   1.950   .     S
O423   Zn440   1.950   .     S
O423   C39     1.270   1_655 S
O424   Zn428   1.950   .     S
Zn425  O835    1.916   1_545 S
Zn427  O808    1.936   .     S
Zn430  O159    1.936   1_655 S
Zn432  O797    1.936   .     S
Zn433  O839    1.915   1_545 S
Zn436  O843    1.915   1_545 S
Zn437  O829    1.916   1_545 S
Zn440  O170    1.936   1_655 S
C441   C500    1.462   .     S
C441   O644    1.270   .     S
C442   O619    1.277   .     A
C442   C476    1.423   .     S
C442   O591    1.277   .     A
C443   C519    1.404   .     A
C443   H548    1.083   .     S
C443   C446    1.389   1_554 S
C444   H549    1.083   .     S
C444   C520    1.404   .     A
C444   C543    1.389   1_556 S
C445   H550    1.083   .     S
C445   C521    1.404   .     A
C445   C542    1.389   1_554 S
C446   H551    1.083   .     S
C446   C522    1.404   .     A
C446   C443    1.389   1_556 S
C447   H552    1.083   .     S
C447   C524    1.404   .     A
C447   C544    1.389   1_554 S
C448   O592    1.277   .     A
C448   C475    1.423   .     S
C448   O616    1.277   .     A
C449   C474    1.423   .     S
C449   O617    1.277   .     A
C449   O593    1.277   .     A
C450   O594    1.277   .     A
C450   O623    1.277   .     A
C450   C473    1.423   .     S
C451   O595    1.277   .     A
C451   C472    1.423   .     S
C451   O624    1.277   .     A
C452   C480    1.423   .     S
C452   O620    1.277   .     A
C452   O596    1.277   .     A
C453   O597    1.277   .     A
C453   C478    1.423   .     S
C453   O622    1.277   .     A
C454   O598    1.277   .     A
C454   O609    1.277   .     A
C454   C469    1.423   .     S
C455   C467    1.423   .     S
C455   O611    1.277   .     A
C455   O600    1.277   .     A
C456   O607    1.277   .     A
C456   C466    1.423   .     S
C456   O601    1.277   .     A
C457   O632    1.270   .     A
C457   C502    1.462   .     S
C458   C465    1.423   .     S
C458   O608    1.277   .     A
C458   O602    1.277   .     A
C459   O614    1.277   .     A
C459   O603    1.277   .     A
C459   C464    1.423   .     S
C460   O615    1.277   .     A
C460   O604    1.277   .     A
C460   C463    1.423   .     S
C461   O605    1.277   .     A
C461   C471    1.423   .     S
C461   O612    1.277   .     A
C462   O613    1.277   .     A
C462   C470    1.423   .     S
C462   O606    1.277   .     A
C463   C480    1.199   .     T
C464   C478    1.199   .     T
C465   C477    1.198   .     T
C466   C476    1.198   .     T
C467   C475    1.199   .     T
C468   O799    1.270   1_455 A
C468   C498    1.462   .     S
C468   O642    1.270   .     S
C469   C474    1.199   .     T
C470   C473    1.198   .     T
C471   C472    1.198   .     T
C477   C534    1.423   .     S
C479   C499    1.462   .     S
C479   O580    1.270   .     A
C479   O863    1.270   1_455 S
C481   C718    1.418   .     A
C481   C511    1.403   .     A
C481   O625    1.386   .     S
C482   C513    1.403   .     A
C482   C499    1.418   .     A
C482   O626    1.385   .     S
C483   C514    1.403   .     A
C483   O627    1.385   .     S
C483   C500    1.418   .     S
C484   C515    1.403   .     A
C484   O628    1.385   .     S
C484   C62     1.418   1_565 S
C485   C507    1.403   .     A
C485   O629    1.385   .     S
C485   C498    1.418   .     S
C486   O630    1.385   .     S
C486   C508    1.403   .     A
C486   C719    1.418   .     S
C487   C509    1.403   .     A
C487   C60     1.418   1_565 A
C487   O631    1.385   .     S
C488   O633    1.385   .     S
C488   C502    1.418   .     A
C488   C510    1.403   .     A
C489   O634    1.385   .     S
C489   C520    1.403   .     A
C489   C503    1.418   .     S
C490   O581    1.270   .     A
C490   C505    1.462   .     S
C490   O585    1.270   .     S
C491   C521    1.403   .     A
C491   O635    1.385   .     S
C491   C64     1.418   1_565 S
C492   O636    1.385   .     S
C492   C522    1.403   .     A
C492   C725    1.418   .     A
C493   C524    1.403   .     A
C493   O637    1.385   .     S
C493   C506    1.418   .     A
C494   C516    1.403   .     A
C494   O638    1.386   .     S
C494   C63     1.418   1_565 A
C495   C517    1.403   .     A
C495   O639    1.386   .     S
C495   C504    1.418   .     A
C496   C518    1.403   .     A
C496   O640    1.385   .     S
C496   C505    1.418   .     S
C497   C519    1.403   .     A
C497   O641    1.385   .     S
C497   C726    1.418   .     S
C498   C701    1.418   1_455 A
C499   C706    1.418   1_455 S
C501   C506    1.462   .     S
C501   O582    1.270   .     A
C501   O586    1.270   .     S
C503   C512    1.462   .     S
C504   C523    1.462   .     S
C505   C712    1.418   1_455 A
C506   C717    1.418   1_455 S
C507   C533    1.404   .     A
C507   C525    1.413   .     S
C508   C535    1.404   .     A
C508   C746    1.413   .     S
C509   C536    1.404   .     A
C509   C87     1.413   1_565 A
C510   C528    1.413   .     A
C510   C537    1.404   .     A
C511   C745    1.413   .     A
C511   C538    1.404   .     A
C512   O583    1.270   .     S
C512   O587    1.270   .     S
C513   C539    1.404   .     A
C513   C526    1.413   .     A
C514   C540    1.404   .     A
C514   C527    1.413   .     S
C515   C541    1.404   .     A
C515   C88     1.413   1_565 S
C516   C89     1.413   1_565 A
C516   C542    1.404   .     A
C517   C530    1.413   .     A
C517   C543    1.404   .     A
C518   C544    1.404   .     A
C518   C531    1.413   .     S
C519   C752    1.413   .     S
C520   C529    1.413   .     S
C521   C90     1.413   1_565 S
C522   C751    1.413   .     A
C523   O584    1.270   .     S
C523   O589    1.270   .     S
C524   C532    1.413   .     A
C525   C731    1.413   1_455 A
C525   C526    1.414   .     S
C526   C728    1.413   1_455 S
C527   C528    1.414   .     S
C529   C530    1.414   1_556 S
C530   C529    1.414   1_554 S
C531   C742    1.413   1_455 A
C531   C532    1.414   1_556 S
C532   C739    1.413   1_455 S
C532   C531    1.414   1_554 S
C533   H545    1.083   .     S
C533   C539    1.389   .     A
C534   O618    1.277   .     A
C534   O590    1.277   .     A
C535   C538    1.389   .     A
C535   H556    1.083   .     S
C536   C541    1.389   .     A
C536   H567    1.083   .     S
C537   H571    1.083   .     S
C537   C540    1.389   .     A
C538   H572    1.083   .     S
C539   H573    1.083   .     S
C540   H574    1.083   .     S
C541   H575    1.083   .     S
C542   H576    1.083   .     S
C542   C445    1.389   1_556 S
C543   H546    1.083   .     S
C543   C444    1.389   1_554 S
C544   H547    1.083   .     S
C544   C447    1.389   1_556 S
H553   O625    0.989   .     S
H554   O626    0.989   .     S
H555   O627    0.989   .     S
H557   O628    0.989   .     S
H558   O629    0.989   .     S
H559   O630    0.989   .     S
H560   O631    0.989   .     S
H561   O633    0.989   .     S
H562   O634    0.989   .     S
H563   O635    0.989   .     S
H564   O636    0.989   .     S
H565   O637    0.989   .     S
H566   O638    0.989   .     S
H568   O639    0.989   .     S
H569   O640    0.989   .     S
H570   O641    0.989   .     S
O577   Zn645   1.936   .     S
O577   Zn656   1.936   .     S
O577   Zn648   1.936   .     S
O578   Zn647   1.950   .     S
O578   C17     1.270   1_565 S
O579   C688    1.270   .     A
O579   Zn650   1.950   .     S
O580   Zn649   1.950   .     S
O581   Zn659   1.950   .     S
O582   Zn658   1.950   .     S
O583   Zn653   1.950   .     S
O584   Zn645   1.950   .     S
O585   Zn655   1.950   .     S
O586   Zn654   1.950   .     S
O587   Zn657   1.950   .     S
O588   Zn653   1.936   .     S
O588   Zn657   1.936   .     S
O588   Zn651   1.936   .     S
O589   Zn656   1.950   .     S
O590   Zn648   1.915   .     S
O591   Zn647   1.915   .     S
O592   Zn650   1.916   .     S
O593   Zn649   1.916   .     S
O594   Zn652   1.915   .     S
O595   Zn651   1.915   .     S
O596   Zn646   1.916   .     S
O597   Zn660   1.916   .     S
O598   Zn647   1.916   .     S
O599   Zn654   1.936   .     S
O599   Zn646   1.936   .     S
O599   Zn870   1.936   1_455 S
O599   Zn658   1.936   .     S
O600   Zn648   1.916   .     S
O601   Zn660   1.915   .     S
O602   Zn646   1.915   .     S
O603   Zn651   1.916   .     S
O604   Zn652   1.916   .     S
O605   Zn649   1.915   .     S
O606   Zn650   1.915   .     S
O607   Zn875   1.915   .     S
O608   Zn654   1.915   .     S
O609   Zn217   1.916   1_565 S
O610   Zn880   1.936   1_455 S
O610   Zn649   1.936   .     S
O610   Zn655   1.936   .     S
O610   Zn659   1.936   .     S
O611   Zn656   1.916   .     S
O612   Zn659   1.915   .     S
O613   Zn878   1.915   .     S
O614   Zn653   1.916   .     S
O615   Zn205   1.916   1_565 S
O616   Zn874   1.916   .     S
O617   Zn655   1.916   .     S
O618   Zn645   1.915   .     S
O619   Zn213   1.915   1_565 S
O620   Zn658   1.916   .     S
O621   Zn652   1.950   .     S
O621   C1      1.270   1_565 A
O622   Zn879   1.916   .     S
O623   Zn216   1.915   1_565 S
O624   Zn657   1.915   .     S
O632   Zn651   1.950   .     S
O642   Zn646   1.950   .     S
O643   Zn660   1.950   .     S
O643   C699    1.270   .     S
O644   Zn648   1.950   .     S
Zn647  O148    1.936   1_565 S
Zn650  O819    1.936   .     S
Zn652  O137    1.936   1_565 S
Zn654  O836    1.916   1_455 S
Zn655  O827    1.915   1_455 S
Zn658  O833    1.915   1_455 S
Zn659  O842    1.916   1_455 S
Zn660  O830    1.936   .     S
C661   C720    1.462   .     S
C661   O864    1.270   .     S
C662   O839    1.277   .     A
C662   C696    1.423   .     S
C662   O811    1.277   .     A
C663   C739    1.404   .     A
C663   H768    1.083   .     S
C663   C666    1.389   1_554 S
C664   H769    1.083   .     S
C664   C740    1.404   .     A
C664   C763    1.389   1_556 S
C665   H770    1.083   .     S
C665   C741    1.404   .     A
C665   C762    1.389   1_554 S
C666   H771    1.083   .     S
C666   C742    1.404   .     A
C666   C663    1.389   1_556 S
C667   H772    1.083   .     S
C667   C744    1.404   .     A
C667   C764    1.389   1_554 S
C668   O812    1.277   .     A
C668   C695    1.423   .     S
C668   O836    1.277   .     A
C669   C694    1.423   .     S
C669   O837    1.277   .     A
C669   O813    1.277   .     A
C670   O814    1.277   .     A
C670   O843    1.277   .     A
C670   C693    1.423   .     S
C671   O815    1.277   .     A
C671   C692    1.423   .     S
C671   O844    1.277   .     A
C672   C700    1.423   .     S
C672   O840    1.277   .     A
C672   O816    1.277   .     A
C673   O817    1.277   .     A
C673   C698    1.423   .     S
C673   O842    1.277   .     A
C674   O818    1.277   .     A
C674   O829    1.277   .     A
C674   C689    1.423   .     S
C675   C687    1.423   .     S
C675   O831    1.277   .     A
C675   O820    1.277   .     A
C676   O827    1.277   .     A
C676   C686    1.423   .     S
C676   O821    1.277   .     A
C677   O852    1.270   .     A
C677   C722    1.462   .     S
C678   C685    1.423   .     S
C678   O828    1.277   .     A
C678   O822    1.277   .     A
C679   O834    1.277   .     A
C679   O823    1.277   .     A
C679   C684    1.423   .     S
C680   O835    1.277   .     A
C680   O824    1.277   .     A
C680   C683    1.423   .     S
C681   O825    1.277   .     A
C681   C691    1.423   .     S
C681   O832    1.277   .     A
C682   O833    1.277   .     A
C682   C690    1.423   .     S
C682   O826    1.277   .     A
C683   C700    1.199   .     T
C684   C698    1.199   .     T
C685   C697    1.198   .     T
C686   C696    1.198   .     T
C687   C695    1.199   .     T
C688   C718    1.462   .     S
C688   O862    1.270   .     S
C689   C694    1.199   .     T
C690   C693    1.198   .     T
C691   C692    1.198   .     T
C697   C754    1.423   .     S
C699   C719    1.462   .     S
C699   O800    1.270   .     A
C701   C498    1.418   1_655 A
C701   C731    1.403   .     A
C701   O845    1.386   .     S
C702   C733    1.403   .     A
C702   C719    1.418   .     A
C702   O846    1.385   .     S
C703   C734    1.403   .     A
C703   O847    1.385   .     S
C703   C720    1.418   .     S
C704   C735    1.403   .     A
C704   O848    1.385   .     S
C704   C282    1.418   1_565 S
C705   C727    1.403   .     A
C705   O849    1.385   .     S
C705   C718    1.418   .     S
C706   O850    1.385   .     S
C706   C728    1.403   .     A
C706   C499    1.418   1_655 S
C707   C729    1.403   .     A
C707   C280    1.418   1_565 A
C707   O851    1.385   .     S
C708   O853    1.385   .     S
C708   C722    1.418   .     A
C708   C730    1.403   .     A
C709   O854    1.385   .     S
C709   C740    1.403   .     A
C709   C723    1.418   .     S
C710   O801    1.270   .     A
C710   C725    1.462   .     S
C710   O805    1.270   .     S
C711   C741    1.403   .     A
C711   O855    1.385   .     S
C711   C284    1.418   1_565 S
C712   O856    1.385   .     S
C712   C742    1.403   .     A
C712   C505    1.418   1_655 A
C713   C744    1.403   .     A
C713   O857    1.385   .     S
C713   C726    1.418   .     A
C714   C736    1.403   .     A
C714   O858    1.386   .     S
C714   C283    1.418   1_565 A
C715   C737    1.403   .     A
C715   O859    1.386   .     S
C715   C724    1.418   .     A
C716   C738    1.403   .     A
C716   O860    1.385   .     S
C716   C725    1.418   .     S
C717   C739    1.403   .     A
C717   O861    1.385   .     S
C717   C506    1.418   1_655 S
C721   C726    1.462   .     S
C721   O802    1.270   .     A
C721   O806    1.270   .     S
C723   C732    1.462   .     S
C724   C743    1.462   .     S
C727   C753    1.404   .     A
C727   C745    1.413   .     S
C728   C755    1.404   .     A
C728   C526    1.413   1_655 S
C729   C756    1.404   .     A
C729   C307    1.413   1_565 A
C730   C748    1.413   .     A
C730   C757    1.404   .     A
C731   C525    1.413   1_655 A
C731   C758    1.404   .     A
C732   O803    1.270   .     S
C732   O807    1.270   .     S
C733   C759    1.404   .     A
C733   C746    1.413   .     A
C734   C760    1.404   .     A
C734   C747    1.413   .     S
C735   C761    1.404   .     A
C735   C308    1.413   1_565 S
C736   C309    1.413   1_565 A
C736   C762    1.404   .     A
C737   C750    1.413   .     A
C737   C763    1.404   .     A
C738   C764    1.404   .     A
C738   C751    1.413   .     S
C739   C532    1.413   1_655 S
C740   C749    1.413   .     S
C741   C310    1.413   1_565 S
C742   C531    1.413   1_655 A
C743   O804    1.270   .     S
C743   O809    1.270   .     S
C744   C752    1.413   .     A
C745   C746    1.414   .     S
C747   C748    1.414   .     S
C749   C750    1.414   1_556 S
C750   C749    1.414   1_554 S
C751   C752    1.414   1_556 S
C752   C751    1.414   1_554 S
C753   H765    1.083   .     S
C753   C759    1.389   .     A
C754   O838    1.277   .     A
C754   O810    1.277   .     A
C755   C758    1.389   .     A
C755   H776    1.083   .     S
C756   C761    1.389   .     A
C756   H787    1.083   .     S
C757   H791    1.083   .     S
C757   C760    1.389   .     A
C758   H792    1.083   .     S
C759   H793    1.083   .     S
C760   H794    1.083   .     S
C761   H795    1.083   .     S
C762   H796    1.083   .     S
C762   C665    1.389   1_556 S
C763   H766    1.083   .     S
C763   C664    1.389   1_554 S
C764   H767    1.083   .     S
C764   C667    1.389   1_556 S
H773   O845    0.989   .     S
H774   O846    0.989   .     S
H775   O847    0.989   .     S
H777   O848    0.989   .     S
H778   O849    0.989   .     S
H779   O850    0.989   .     S
H780   O851    0.989   .     S
H781   O853    0.989   .     S
H782   O854    0.989   .     S
H783   O855    0.989   .     S
H784   O856    0.989   .     S
H785   O857    0.989   .     S
H786   O858    0.989   .     S
H788   O859    0.989   .     S
H789   O860    0.989   .     S
H790   O861    0.989   .     S
O797   Zn865   1.936   .     S
O797   Zn876   1.936   .     S
O797   Zn868   1.936   .     S
O798   Zn867   1.950   .     S
O798   C237    1.270   1_565 S
O799   C468    1.270   1_655 A
O799   Zn870   1.950   .     S
O800   Zn869   1.950   .     S
O801   Zn879   1.950   .     S
O802   Zn878   1.950   .     S
O803   Zn873   1.950   .     S
O804   Zn865   1.950   .     S
O805   Zn875   1.950   .     S
O806   Zn874   1.950   .     S
O807   Zn877   1.950   .     S
O808   Zn873   1.936   .     S
O808   Zn877   1.936   .     S
O808   Zn871   1.936   .     S
O809   Zn876   1.950   .     S
O810   Zn868   1.915   .     S
O811   Zn867   1.915   .     S
O812   Zn870   1.916   .     S
O813   Zn869   1.916   .     S
O814   Zn872   1.915   .     S
O815   Zn871   1.915   .     S
O816   Zn866   1.916   .     S
O817   Zn880   1.916   .     S
O818   Zn867   1.916   .     S
O819   Zn874   1.936   .     S
O819   Zn866   1.936   .     S
O819   Zn878   1.936   .     S
O820   Zn868   1.916   .     S
O821   Zn880   1.915   .     S
O822   Zn866   1.915   .     S
O823   Zn871   1.916   .     S
O824   Zn872   1.916   .     S
O825   Zn869   1.915   .     S
O826   Zn870   1.915   .     S
O827   Zn655   1.915   1_655 S
O828   Zn874   1.915   .     S
O829   Zn437   1.916   1_565 S
O830   Zn869   1.936   .     S
O830   Zn875   1.936   .     S
O830   Zn879   1.936   .     S
O831   Zn876   1.916   .     S
O832   Zn879   1.915   .     S
O833   Zn658   1.915   1_655 S
O834   Zn873   1.916   .     S
O835   Zn425   1.916   1_565 S
O836   Zn654   1.916   1_655 S
O837   Zn875   1.916   .     S
O838   Zn865   1.915   .     S
O839   Zn433   1.915   1_565 S
O840   Zn878   1.916   .     S
O841   Zn872   1.950   .     S
O841   C221    1.270   1_565 A
O842   Zn659   1.916   1_655 S
O843   Zn436   1.915   1_565 S
O844   Zn877   1.915   .     S
O852   Zn871   1.950   .     S
O862   Zn866   1.950   .     S
O863   Zn880   1.950   .     S
O863   C479    1.270   1_655 S
O864   Zn868   1.950   .     S
Zn867  O368    1.936   1_565 S
Zn870  O599    1.936   1_655 S
Zn872  O357    1.936   1_565 S
Zn880  O610    1.936   1_655 S
