data_str_m3_o10_o17_pcu_sym.142
_audit_creation_date              2020-01-03
_audit_creation_method            'Materials Studio'
_symmetry_space_group_name_H-M    'P1'
_symmetry_Int_Tables_number       1
_symmetry_cell_setting            triclinic
loop_
_symmetry_equiv_pos_as_xyz
  x,y,z
_cell_length_a                    23.2707
_cell_length_b                    25.7296
_cell_length_c                    29.8368
_cell_angle_alpha                 91.5001
_cell_angle_beta                  86.8048
_cell_angle_gamma                 93.1694
loop_
_atom_site_label
_atom_site_type_symbol
_atom_site_fract_x
_atom_site_fract_y
_atom_site_fract_z
_atom_site_U_iso_or_equiv
_atom_site_adp_type
_atom_site_occupancy
C1     C     0.18182   0.26488   0.24913   0.00000  Uiso   1.00
C2     C     0.20841   0.20276   0.40845   0.00000  Uiso   1.00
C3     C     0.16207   0.16661   0.11600   0.00000  Uiso   1.00
C4     C     0.16955   0.16941   0.38504   0.00000  Uiso   1.00
C5     C     0.18976   0.20918   0.09472   0.00000  Uiso   1.00
C6     C     0.12519   0.14042   0.40764   0.00000  Uiso   1.00
C7     C     0.18919   0.21320   0.04846   0.00000  Uiso   1.00
C8     C     0.11886   0.14234   0.45411   0.00000  Uiso   1.00
C9     C     0.15487   0.17598   0.02460   0.00000  Uiso   1.00
C10    C     0.15605   0.17693   0.47777   0.00000  Uiso   1.00
C11    C     0.12108   0.13636   0.04726   0.00000  Uiso   1.00
C12    C     0.15161   0.06852   0.25230   0.00000  Uiso   1.00
C13    C     0.19622   0.21112   0.45466   0.00000  Uiso   1.00
C14    C     0.22011   0.25407   0.02527   0.00000  Uiso   1.00
C15    C     0.07722   0.10997   0.47766   0.00000  Uiso   1.00
C16    C     0.25179   0.29806   0.04782   0.00000  Uiso   1.00
C17    C     0.03073   0.07918   0.45551   0.00000  Uiso   1.00
C18    C     0.22226   0.25278   0.47852   0.00000  Uiso   1.00
C19    C     0.08000   0.10617   0.02390   0.00000  Uiso   1.00
C20    C     0.18994   0.31928   0.24923   0.00000  Uiso   1.00
C21    C     0.14358   0.01415   0.25366   0.00000  Uiso   1.00
C22    C     0.16818   0.16817   0.33672   0.00000  Uiso   1.00
C23    C     0.16523   0.16550   0.16357   0.00000  Uiso   1.00
C24    C     0.12916   0.12842   0.09269   0.00000  Uiso   1.00
H25    H     0.21236   0.23834   0.11490   0.00000  Uiso   1.00
H26    H     0.30123   0.28387   0.33267   0.00000  Uiso   1.00
H27    H     0.26742   0.04252   0.05288   0.00000  Uiso   1.00
H28    H     0.31764   0.01154   0.45092   0.00000  Uiso   1.00
H29    H     0.09767   0.11415   0.38832   0.00000  Uiso   1.00
H30    H     0.24370   0.28496   0.46090   0.00000  Uiso   1.00
H31    H     0.04830   0.08086   0.04166   0.00000  Uiso   1.00
H32    H     0.23388   0.00261   0.24534   0.00000  Uiso   1.00
H33    H     0.09965   0.33082   0.25762   0.00000  Uiso   1.00
H34    H     0.00419   0.12549   0.21792   0.00000  Uiso   1.00
H35    H     0.32942   0.20891   0.28094   0.00000  Uiso   1.00
H36    H     0.02742   0.04160   0.15634   0.00000  Uiso   1.00
N37    N     0.31678   0.15265   0.23783   0.00000  Uiso   1.00
N38    N     0.01656   0.18068   0.26217   0.00000  Uiso   1.00
O39    O     0.12975   0.24619   0.25298   0.00000  Uiso   1.00
O40    O     0.14356   0.05628   0.15488   0.00000  Uiso   1.00
O41    O     0.03736   0.07471   0.14079   0.00000  Uiso   1.00
O42    O     0.31660   0.25058   0.41421   0.00000  Uiso   1.00
O43    O     0.30450   0.17986   0.36008   0.00000  Uiso   1.00
O44    O     0.26279   0.26853   0.34258   0.00000  Uiso   1.00
O45    O     0.28698   0.28988   0.07540   0.00000  Uiso   1.00
O46    O     0.24308   0.01572   0.03575   0.00000  Uiso   1.00
O47    O     0.00368   0.09873   0.42689   0.00000  Uiso   1.00
O48    O     0.01650   0.02822   0.46865   0.00000  Uiso   1.00
O49    O     0.20358   0.08714   0.24701   0.00000  Uiso   1.00
O50    O     0.22613   0.23721   0.24518   0.00000  Uiso   1.00
O51    O     0.10720   0.09613   0.25481   0.00000  Uiso   1.00
O52    O     0.11847   0.17117   0.31997   0.00000  Uiso   1.00
O53    O     0.21486   0.16216   0.18002   0.00000  Uiso   1.00
O54    O     0.21485   0.16219   0.31217   0.00000  Uiso   1.00
O55    O     0.11848   0.17115   0.18782   0.00000  Uiso   1.00
O56    O     0.10479   0.02437   0.08474   0.00000  Uiso   1.00
S57    S     0.10471   0.06872   0.11859   0.00000  Uiso   1.00
S58    S     0.27563   0.22557   0.38186   0.00000  Uiso   1.00
Zn59   Zn    0.10231   0.17266   0.25521   0.00000  Uiso   1.00
Zn60   Zn    0.23102   0.16067   0.24479   0.00000  Uiso   1.00
C61    C     0.51515   0.26488   0.24913   0.00000  Uiso   1.00
C62    C     0.54174   0.20276   0.40845   0.00000  Uiso   1.00
C63    C     0.49540   0.16661   0.11600   0.00000  Uiso   1.00
C64    C     0.50288   0.16941   0.38504   0.00000  Uiso   1.00
C65    C     0.52309   0.20918   0.09472   0.00000  Uiso   1.00
C66    C     0.45852   0.14042   0.40764   0.00000  Uiso   1.00
C67    C     0.52253   0.21320   0.04846   0.00000  Uiso   1.00
C68    C     0.45219   0.14234   0.45411   0.00000  Uiso   1.00
C69    C     0.48820   0.17598   0.02460   0.00000  Uiso   1.00
C70    C     0.48938   0.17693   0.47777   0.00000  Uiso   1.00
C71    C     0.45441   0.13636   0.04726   0.00000  Uiso   1.00
C72    C     0.48494   0.06852   0.25230   0.00000  Uiso   1.00
C73    C     0.52955   0.21112   0.45466   0.00000  Uiso   1.00
C74    C     0.55344   0.25407   0.02527   0.00000  Uiso   1.00
C75    C     0.41055   0.10997   0.47766   0.00000  Uiso   1.00
C76    C     0.58513   0.29806   0.04782   0.00000  Uiso   1.00
C77    C     0.36406   0.07918   0.45551   0.00000  Uiso   1.00
C78    C     0.55559   0.25278   0.47852   0.00000  Uiso   1.00
C79    C     0.41333   0.10617   0.02390   0.00000  Uiso   1.00
C80    C     0.52328   0.31928   0.24923   0.00000  Uiso   1.00
C81    C     0.47692   0.01415   0.25366   0.00000  Uiso   1.00
C82    C     0.50151   0.16817   0.33672   0.00000  Uiso   1.00
C83    C     0.49856   0.16550   0.16357   0.00000  Uiso   1.00
C84    C     0.46249   0.12842   0.09269   0.00000  Uiso   1.00
H85    H     0.54569   0.23834   0.11490   0.00000  Uiso   1.00
H86    H     0.63457   0.28387   0.33267   0.00000  Uiso   1.00
H87    H     0.60075   0.04252   0.05288   0.00000  Uiso   1.00
H88    H     0.65097   0.01154   0.45092   0.00000  Uiso   1.00
H89    H     0.43101   0.11415   0.38832   0.00000  Uiso   1.00
H90    H     0.57703   0.28496   0.46090   0.00000  Uiso   1.00
H91    H     0.38163   0.08086   0.04166   0.00000  Uiso   1.00
H92    H     0.56721   0.00261   0.24534   0.00000  Uiso   1.00
H93    H     0.43299   0.33082   0.25762   0.00000  Uiso   1.00
H94    H     0.33752   0.12549   0.21792   0.00000  Uiso   1.00
H95    H     0.66275   0.20891   0.28094   0.00000  Uiso   1.00
H96    H     0.36075   0.04160   0.15634   0.00000  Uiso   1.00
N97    N     0.65011   0.15265   0.23783   0.00000  Uiso   1.00
N98    N     0.34989   0.18068   0.26217   0.00000  Uiso   1.00
O99    O     0.46308   0.24619   0.25298   0.00000  Uiso   1.00
O100   O     0.47690   0.05628   0.15488   0.00000  Uiso   1.00
O101   O     0.37070   0.07471   0.14079   0.00000  Uiso   1.00
O102   O     0.64993   0.25058   0.41421   0.00000  Uiso   1.00
O103   O     0.63784   0.17986   0.36008   0.00000  Uiso   1.00
O104   O     0.59613   0.26853   0.34258   0.00000  Uiso   1.00
O105   O     0.62031   0.28988   0.07540   0.00000  Uiso   1.00
O106   O     0.57641   0.01572   0.03575   0.00000  Uiso   1.00
O107   O     0.33701   0.09873   0.42689   0.00000  Uiso   1.00
O108   O     0.34983   0.02822   0.46865   0.00000  Uiso   1.00
O109   O     0.53692   0.08714   0.24701   0.00000  Uiso   1.00
O110   O     0.55946   0.23721   0.24518   0.00000  Uiso   1.00
O111   O     0.44054   0.09613   0.25481   0.00000  Uiso   1.00
O112   O     0.45181   0.17117   0.31997   0.00000  Uiso   1.00
O113   O     0.54819   0.16216   0.18002   0.00000  Uiso   1.00
O114   O     0.54819   0.16219   0.31217   0.00000  Uiso   1.00
O115   O     0.45181   0.17115   0.18782   0.00000  Uiso   1.00
O116   O     0.43812   0.02437   0.08474   0.00000  Uiso   1.00
S117   S     0.43805   0.06872   0.11859   0.00000  Uiso   1.00
S118   S     0.60896   0.22557   0.38186   0.00000  Uiso   1.00
Zn119  Zn    0.43565   0.17266   0.25521   0.00000  Uiso   1.00
Zn120  Zn    0.56435   0.16067   0.24479   0.00000  Uiso   1.00
C121   C     0.84849   0.26488   0.24913   0.00000  Uiso   1.00
C122   C     0.87507   0.20276   0.40845   0.00000  Uiso   1.00
C123   C     0.82874   0.16661   0.11600   0.00000  Uiso   1.00
C124   C     0.83622   0.16941   0.38504   0.00000  Uiso   1.00
C125   C     0.85642   0.20918   0.09472   0.00000  Uiso   1.00
C126   C     0.79186   0.14042   0.40764   0.00000  Uiso   1.00
C127   C     0.85586   0.21320   0.04846   0.00000  Uiso   1.00
C128   C     0.78552   0.14234   0.45411   0.00000  Uiso   1.00
C129   C     0.82153   0.17598   0.02460   0.00000  Uiso   1.00
C130   C     0.82271   0.17693   0.47777   0.00000  Uiso   1.00
C131   C     0.78774   0.13636   0.04726   0.00000  Uiso   1.00
C132   C     0.81828   0.06852   0.25230   0.00000  Uiso   1.00
C133   C     0.86289   0.21112   0.45466   0.00000  Uiso   1.00
C134   C     0.88678   0.25407   0.02527   0.00000  Uiso   1.00
C135   C     0.74388   0.10997   0.47766   0.00000  Uiso   1.00
C136   C     0.91846   0.29806   0.04782   0.00000  Uiso   1.00
C137   C     0.69739   0.07918   0.45551   0.00000  Uiso   1.00
C138   C     0.88892   0.25278   0.47852   0.00000  Uiso   1.00
C139   C     0.74667   0.10617   0.02390   0.00000  Uiso   1.00
C140   C     0.85661   0.31928   0.24923   0.00000  Uiso   1.00
C141   C     0.81025   0.01415   0.25366   0.00000  Uiso   1.00
C142   C     0.83484   0.16817   0.33672   0.00000  Uiso   1.00
C143   C     0.83189   0.16550   0.16357   0.00000  Uiso   1.00
C144   C     0.79583   0.12842   0.09269   0.00000  Uiso   1.00
H145   H     0.87902   0.23834   0.11490   0.00000  Uiso   1.00
H146   H     0.96790   0.28387   0.33267   0.00000  Uiso   1.00
H147   H     0.93409   0.04252   0.05288   0.00000  Uiso   1.00
H148   H     0.98430   0.01154   0.45092   0.00000  Uiso   1.00
H149   H     0.76434   0.11415   0.38832   0.00000  Uiso   1.00
H150   H     0.91036   0.28496   0.46090   0.00000  Uiso   1.00
H151   H     0.71496   0.08086   0.04166   0.00000  Uiso   1.00
H152   H     0.90055   0.00261   0.24534   0.00000  Uiso   1.00
H153   H     0.76632   0.33082   0.25762   0.00000  Uiso   1.00
H154   H     0.67086   0.12549   0.21792   0.00000  Uiso   1.00
H155   H     0.99609   0.20891   0.28094   0.00000  Uiso   1.00
H156   H     0.69408   0.04160   0.15634   0.00000  Uiso   1.00
N157   N     0.98344   0.15265   0.23783   0.00000  Uiso   1.00
N158   N     0.68322   0.18068   0.26217   0.00000  Uiso   1.00
O159   O     0.79642   0.24619   0.25298   0.00000  Uiso   1.00
O160   O     0.81023   0.05628   0.15488   0.00000  Uiso   1.00
O161   O     0.70403   0.07471   0.14079   0.00000  Uiso   1.00
O162   O     0.98327   0.25058   0.41421   0.00000  Uiso   1.00
O163   O     0.97117   0.17986   0.36008   0.00000  Uiso   1.00
O164   O     0.92946   0.26853   0.34258   0.00000  Uiso   1.00
O165   O     0.95364   0.28988   0.07540   0.00000  Uiso   1.00
O166   O     0.90974   0.01572   0.03575   0.00000  Uiso   1.00
O167   O     0.67034   0.09873   0.42689   0.00000  Uiso   1.00
O168   O     0.68316   0.02822   0.46865   0.00000  Uiso   1.00
O169   O     0.87025   0.08714   0.24701   0.00000  Uiso   1.00
O170   O     0.89280   0.23721   0.24518   0.00000  Uiso   1.00
O171   O     0.77387   0.09613   0.25481   0.00000  Uiso   1.00
O172   O     0.78514   0.17117   0.31997   0.00000  Uiso   1.00
O173   O     0.88153   0.16216   0.18002   0.00000  Uiso   1.00
O174   O     0.88152   0.16219   0.31217   0.00000  Uiso   1.00
O175   O     0.78515   0.17115   0.18782   0.00000  Uiso   1.00
O176   O     0.77145   0.02437   0.08474   0.00000  Uiso   1.00
S177   S     0.77138   0.06872   0.11859   0.00000  Uiso   1.00
S178   S     0.94230   0.22557   0.38186   0.00000  Uiso   1.00
Zn179  Zn    0.76898   0.17266   0.25521   0.00000  Uiso   1.00
Zn180  Zn    0.89769   0.16067   0.24479   0.00000  Uiso   1.00
C181   C     0.18182   0.59822   0.24913   0.00000  Uiso   1.00
C182   C     0.20841   0.53609   0.40845   0.00000  Uiso   1.00
C183   C     0.16207   0.49994   0.11600   0.00000  Uiso   1.00
C184   C     0.16955   0.50274   0.38504   0.00000  Uiso   1.00
C185   C     0.18976   0.54251   0.09472   0.00000  Uiso   1.00
C186   C     0.12519   0.47375   0.40764   0.00000  Uiso   1.00
C187   C     0.18919   0.54653   0.04846   0.00000  Uiso   1.00
C188   C     0.11886   0.47567   0.45411   0.00000  Uiso   1.00
C189   C     0.15487   0.50931   0.02460   0.00000  Uiso   1.00
C190   C     0.15605   0.51026   0.47777   0.00000  Uiso   1.00
C191   C     0.12108   0.46970   0.04726   0.00000  Uiso   1.00
C192   C     0.15161   0.40185   0.25230   0.00000  Uiso   1.00
C193   C     0.19622   0.54445   0.45466   0.00000  Uiso   1.00
C194   C     0.22011   0.58740   0.02527   0.00000  Uiso   1.00
C195   C     0.07722   0.44330   0.47766   0.00000  Uiso   1.00
C196   C     0.25179   0.63139   0.04782   0.00000  Uiso   1.00
C197   C     0.03073   0.41252   0.45551   0.00000  Uiso   1.00
C198   C     0.22226   0.58612   0.47852   0.00000  Uiso   1.00
C199   C     0.08000   0.43950   0.02390   0.00000  Uiso   1.00
C200   C     0.18994   0.65261   0.24923   0.00000  Uiso   1.00
C201   C     0.14358   0.34748   0.25366   0.00000  Uiso   1.00
C202   C     0.16818   0.50151   0.33672   0.00000  Uiso   1.00
C203   C     0.16523   0.49884   0.16357   0.00000  Uiso   1.00
C204   C     0.12916   0.46175   0.09269   0.00000  Uiso   1.00
H205   H     0.21236   0.57167   0.11490   0.00000  Uiso   1.00
H206   H     0.30123   0.61721   0.33267   0.00000  Uiso   1.00
H207   H     0.26742   0.37586   0.05288   0.00000  Uiso   1.00
H208   H     0.31764   0.34487   0.45092   0.00000  Uiso   1.00
H209   H     0.09767   0.44749   0.38832   0.00000  Uiso   1.00
H210   H     0.24370   0.61829   0.46090   0.00000  Uiso   1.00
H211   H     0.04830   0.41419   0.04166   0.00000  Uiso   1.00
H212   H     0.23388   0.33594   0.24534   0.00000  Uiso   1.00
H213   H     0.09965   0.66415   0.25762   0.00000  Uiso   1.00
H214   H     0.00419   0.45883   0.21792   0.00000  Uiso   1.00
H215   H     0.32942   0.54225   0.28094   0.00000  Uiso   1.00
H216   H     0.02742   0.37493   0.15634   0.00000  Uiso   1.00
N217   N     0.31678   0.48598   0.23783   0.00000  Uiso   1.00
N218   N     0.01656   0.51402   0.26217   0.00000  Uiso   1.00
O219   O     0.12975   0.57952   0.25298   0.00000  Uiso   1.00
O220   O     0.14356   0.38961   0.15488   0.00000  Uiso   1.00
O221   O     0.03736   0.40804   0.14079   0.00000  Uiso   1.00
O222   O     0.31660   0.58391   0.41421   0.00000  Uiso   1.00
O223   O     0.30450   0.51319   0.36008   0.00000  Uiso   1.00
O224   O     0.26279   0.60186   0.34258   0.00000  Uiso   1.00
O225   O     0.28698   0.62322   0.07540   0.00000  Uiso   1.00
O226   O     0.24308   0.34906   0.03575   0.00000  Uiso   1.00
O227   O     0.00368   0.43206   0.42689   0.00000  Uiso   1.00
O228   O     0.01650   0.36156   0.46865   0.00000  Uiso   1.00
O229   O     0.20358   0.42048   0.24701   0.00000  Uiso   1.00
O230   O     0.22613   0.57054   0.24518   0.00000  Uiso   1.00
O231   O     0.10720   0.42946   0.25481   0.00000  Uiso   1.00
O232   O     0.11847   0.50450   0.31997   0.00000  Uiso   1.00
O233   O     0.21486   0.49550   0.18002   0.00000  Uiso   1.00
O234   O     0.21485   0.49552   0.31217   0.00000  Uiso   1.00
O235   O     0.11848   0.50448   0.18782   0.00000  Uiso   1.00
O236   O     0.10479   0.35770   0.08474   0.00000  Uiso   1.00
S237   S     0.10471   0.40205   0.11859   0.00000  Uiso   1.00
S238   S     0.27563   0.55891   0.38186   0.00000  Uiso   1.00
Zn239  Zn    0.10231   0.50600   0.25521   0.00000  Uiso   1.00
Zn240  Zn    0.23102   0.49400   0.24479   0.00000  Uiso   1.00
C241   C     0.51515   0.59822   0.24913   0.00000  Uiso   1.00
C242   C     0.54174   0.53609   0.40845   0.00000  Uiso   1.00
C243   C     0.49540   0.49994   0.11600   0.00000  Uiso   1.00
C244   C     0.50288   0.50274   0.38504   0.00000  Uiso   1.00
C245   C     0.52309   0.54251   0.09472   0.00000  Uiso   1.00
C246   C     0.45852   0.47375   0.40764   0.00000  Uiso   1.00
C247   C     0.52253   0.54653   0.04846   0.00000  Uiso   1.00
C248   C     0.45219   0.47567   0.45411   0.00000  Uiso   1.00
C249   C     0.48820   0.50931   0.02460   0.00000  Uiso   1.00
C250   C     0.48938   0.51026   0.47777   0.00000  Uiso   1.00
C251   C     0.45441   0.46970   0.04726   0.00000  Uiso   1.00
C252   C     0.48494   0.40185   0.25230   0.00000  Uiso   1.00
C253   C     0.52955   0.54445   0.45466   0.00000  Uiso   1.00
C254   C     0.55344   0.58740   0.02527   0.00000  Uiso   1.00
C255   C     0.41055   0.44330   0.47766   0.00000  Uiso   1.00
C256   C     0.58513   0.63139   0.04782   0.00000  Uiso   1.00
C257   C     0.36406   0.41252   0.45551   0.00000  Uiso   1.00
C258   C     0.55559   0.58612   0.47852   0.00000  Uiso   1.00
C259   C     0.41333   0.43950   0.02390   0.00000  Uiso   1.00
C260   C     0.52328   0.65261   0.24923   0.00000  Uiso   1.00
C261   C     0.47692   0.34748   0.25366   0.00000  Uiso   1.00
C262   C     0.50151   0.50151   0.33672   0.00000  Uiso   1.00
C263   C     0.49856   0.49884   0.16357   0.00000  Uiso   1.00
C264   C     0.46249   0.46175   0.09269   0.00000  Uiso   1.00
H265   H     0.54569   0.57167   0.11490   0.00000  Uiso   1.00
H266   H     0.63457   0.61721   0.33267   0.00000  Uiso   1.00
H267   H     0.60075   0.37586   0.05288   0.00000  Uiso   1.00
H268   H     0.65097   0.34487   0.45092   0.00000  Uiso   1.00
H269   H     0.43101   0.44749   0.38832   0.00000  Uiso   1.00
H270   H     0.57703   0.61829   0.46090   0.00000  Uiso   1.00
H271   H     0.38163   0.41419   0.04166   0.00000  Uiso   1.00
H272   H     0.56721   0.33594   0.24534   0.00000  Uiso   1.00
H273   H     0.43299   0.66415   0.25762   0.00000  Uiso   1.00
H274   H     0.33752   0.45883   0.21792   0.00000  Uiso   1.00
H275   H     0.66275   0.54225   0.28094   0.00000  Uiso   1.00
H276   H     0.36075   0.37493   0.15634   0.00000  Uiso   1.00
N277   N     0.65011   0.48598   0.23783   0.00000  Uiso   1.00
N278   N     0.34989   0.51402   0.26217   0.00000  Uiso   1.00
O279   O     0.46308   0.57952   0.25298   0.00000  Uiso   1.00
O280   O     0.47690   0.38961   0.15488   0.00000  Uiso   1.00
O281   O     0.37070   0.40804   0.14079   0.00000  Uiso   1.00
O282   O     0.64993   0.58391   0.41421   0.00000  Uiso   1.00
O283   O     0.63784   0.51319   0.36008   0.00000  Uiso   1.00
O284   O     0.59613   0.60186   0.34258   0.00000  Uiso   1.00
O285   O     0.62031   0.62322   0.07540   0.00000  Uiso   1.00
O286   O     0.57641   0.34906   0.03575   0.00000  Uiso   1.00
O287   O     0.33701   0.43206   0.42689   0.00000  Uiso   1.00
O288   O     0.34983   0.36156   0.46865   0.00000  Uiso   1.00
O289   O     0.53692   0.42048   0.24701   0.00000  Uiso   1.00
O290   O     0.55946   0.57054   0.24518   0.00000  Uiso   1.00
O291   O     0.44054   0.42946   0.25481   0.00000  Uiso   1.00
O292   O     0.45181   0.50450   0.31997   0.00000  Uiso   1.00
O293   O     0.54819   0.49550   0.18002   0.00000  Uiso   1.00
O294   O     0.54819   0.49552   0.31217   0.00000  Uiso   1.00
O295   O     0.45181   0.50448   0.18782   0.00000  Uiso   1.00
O296   O     0.43812   0.35770   0.08474   0.00000  Uiso   1.00
S297   S     0.43805   0.40205   0.11859   0.00000  Uiso   1.00
S298   S     0.60896   0.55891   0.38186   0.00000  Uiso   1.00
Zn299  Zn    0.43565   0.50600   0.25521   0.00000  Uiso   1.00
Zn300  Zn    0.56435   0.49400   0.24479   0.00000  Uiso   1.00
C301   C     0.84849   0.59822   0.24913   0.00000  Uiso   1.00
C302   C     0.87507   0.53609   0.40845   0.00000  Uiso   1.00
C303   C     0.82874   0.49994   0.11600   0.00000  Uiso   1.00
C304   C     0.83622   0.50274   0.38504   0.00000  Uiso   1.00
C305   C     0.85642   0.54251   0.09472   0.00000  Uiso   1.00
C306   C     0.79186   0.47375   0.40764   0.00000  Uiso   1.00
C307   C     0.85586   0.54653   0.04846   0.00000  Uiso   1.00
C308   C     0.78552   0.47567   0.45411   0.00000  Uiso   1.00
C309   C     0.82153   0.50931   0.02460   0.00000  Uiso   1.00
C310   C     0.82271   0.51026   0.47777   0.00000  Uiso   1.00
C311   C     0.78774   0.46970   0.04726   0.00000  Uiso   1.00
C312   C     0.81828   0.40185   0.25230   0.00000  Uiso   1.00
C313   C     0.86289   0.54445   0.45466   0.00000  Uiso   1.00
C314   C     0.88678   0.58740   0.02527   0.00000  Uiso   1.00
C315   C     0.74388   0.44330   0.47766   0.00000  Uiso   1.00
C316   C     0.91846   0.63139   0.04782   0.00000  Uiso   1.00
C317   C     0.69739   0.41252   0.45551   0.00000  Uiso   1.00
C318   C     0.88892   0.58612   0.47852   0.00000  Uiso   1.00
C319   C     0.74667   0.43950   0.02390   0.00000  Uiso   1.00
C320   C     0.85661   0.65261   0.24923   0.00000  Uiso   1.00
C321   C     0.81025   0.34748   0.25366   0.00000  Uiso   1.00
C322   C     0.83484   0.50151   0.33672   0.00000  Uiso   1.00
C323   C     0.83189   0.49884   0.16357   0.00000  Uiso   1.00
C324   C     0.79583   0.46175   0.09269   0.00000  Uiso   1.00
H325   H     0.87902   0.57167   0.11490   0.00000  Uiso   1.00
H326   H     0.96790   0.61721   0.33267   0.00000  Uiso   1.00
H327   H     0.93409   0.37586   0.05288   0.00000  Uiso   1.00
H328   H     0.98430   0.34487   0.45092   0.00000  Uiso   1.00
H329   H     0.76434   0.44749   0.38832   0.00000  Uiso   1.00
H330   H     0.91036   0.61829   0.46090   0.00000  Uiso   1.00
H331   H     0.71496   0.41419   0.04166   0.00000  Uiso   1.00
H332   H     0.90055   0.33594   0.24534   0.00000  Uiso   1.00
H333   H     0.76632   0.66415   0.25762   0.00000  Uiso   1.00
H334   H     0.67086   0.45883   0.21792   0.00000  Uiso   1.00
H335   H     0.99609   0.54225   0.28094   0.00000  Uiso   1.00
H336   H     0.69408   0.37493   0.15634   0.00000  Uiso   1.00
N337   N     0.98344   0.48598   0.23783   0.00000  Uiso   1.00
N338   N     0.68322   0.51402   0.26217   0.00000  Uiso   1.00
O339   O     0.79642   0.57952   0.25298   0.00000  Uiso   1.00
O340   O     0.81023   0.38961   0.15488   0.00000  Uiso   1.00
O341   O     0.70403   0.40804   0.14079   0.00000  Uiso   1.00
O342   O     0.98327   0.58391   0.41421   0.00000  Uiso   1.00
O343   O     0.97117   0.51319   0.36008   0.00000  Uiso   1.00
O344   O     0.92946   0.60186   0.34258   0.00000  Uiso   1.00
O345   O     0.95364   0.62322   0.07540   0.00000  Uiso   1.00
O346   O     0.90974   0.34906   0.03575   0.00000  Uiso   1.00
O347   O     0.67034   0.43206   0.42689   0.00000  Uiso   1.00
O348   O     0.68316   0.36156   0.46865   0.00000  Uiso   1.00
O349   O     0.87025   0.42048   0.24701   0.00000  Uiso   1.00
O350   O     0.89280   0.57054   0.24518   0.00000  Uiso   1.00
O351   O     0.77387   0.42946   0.25481   0.00000  Uiso   1.00
O352   O     0.78514   0.50450   0.31997   0.00000  Uiso   1.00
O353   O     0.88153   0.49550   0.18002   0.00000  Uiso   1.00
O354   O     0.88152   0.49552   0.31217   0.00000  Uiso   1.00
O355   O     0.78515   0.50448   0.18782   0.00000  Uiso   1.00
O356   O     0.77145   0.35770   0.08474   0.00000  Uiso   1.00
S357   S     0.77138   0.40205   0.11859   0.00000  Uiso   1.00
S358   S     0.94230   0.55891   0.38186   0.00000  Uiso   1.00
Zn359  Zn    0.76898   0.50600   0.25521   0.00000  Uiso   1.00
Zn360  Zn    0.89769   0.49400   0.24479   0.00000  Uiso   1.00
C361   C     0.18182   0.93155   0.24913   0.00000  Uiso   1.00
C362   C     0.20841   0.86943   0.40845   0.00000  Uiso   1.00
C363   C     0.16207   0.83328   0.11600   0.00000  Uiso   1.00
C364   C     0.16955   0.83607   0.38504   0.00000  Uiso   1.00
C365   C     0.18976   0.87585   0.09472   0.00000  Uiso   1.00
C366   C     0.12519   0.80708   0.40764   0.00000  Uiso   1.00
C367   C     0.18919   0.87987   0.04846   0.00000  Uiso   1.00
C368   C     0.11886   0.80901   0.45411   0.00000  Uiso   1.00
C369   C     0.15487   0.84265   0.02460   0.00000  Uiso   1.00
C370   C     0.15605   0.84360   0.47777   0.00000  Uiso   1.00
C371   C     0.12108   0.80303   0.04726   0.00000  Uiso   1.00
C372   C     0.15161   0.73518   0.25230   0.00000  Uiso   1.00
C373   C     0.19622   0.87778   0.45466   0.00000  Uiso   1.00
C374   C     0.22011   0.92073   0.02527   0.00000  Uiso   1.00
C375   C     0.07722   0.77664   0.47766   0.00000  Uiso   1.00
C376   C     0.25179   0.96472   0.04782   0.00000  Uiso   1.00
C377   C     0.03073   0.74585   0.45551   0.00000  Uiso   1.00
C378   C     0.22226   0.91945   0.47852   0.00000  Uiso   1.00
C379   C     0.08000   0.77283   0.02390   0.00000  Uiso   1.00
C380   C     0.18994   0.98594   0.24923   0.00000  Uiso   1.00
C381   C     0.14358   0.68082   0.25366   0.00000  Uiso   1.00
C382   C     0.16818   0.83484   0.33672   0.00000  Uiso   1.00
C383   C     0.16523   0.83217   0.16357   0.00000  Uiso   1.00
C384   C     0.12916   0.79509   0.09269   0.00000  Uiso   1.00
H385   H     0.21236   0.90500   0.11490   0.00000  Uiso   1.00
H386   H     0.30123   0.95054   0.33267   0.00000  Uiso   1.00
H387   H     0.26742   0.70919   0.05288   0.00000  Uiso   1.00
H388   H     0.31764   0.67820   0.45092   0.00000  Uiso   1.00
H389   H     0.09767   0.78082   0.38832   0.00000  Uiso   1.00
H390   H     0.24370   0.95163   0.46090   0.00000  Uiso   1.00
H391   H     0.04830   0.74753   0.04166   0.00000  Uiso   1.00
H392   H     0.23388   0.66928   0.24534   0.00000  Uiso   1.00
H393   H     0.09965   0.99748   0.25762   0.00000  Uiso   1.00
H394   H     0.00419   0.79216   0.21792   0.00000  Uiso   1.00
H395   H     0.32942   0.87558   0.28094   0.00000  Uiso   1.00
H396   H     0.02742   0.70826   0.15634   0.00000  Uiso   1.00
N397   N     0.31678   0.81932   0.23783   0.00000  Uiso   1.00
N398   N     0.01656   0.84735   0.26217   0.00000  Uiso   1.00
O399   O     0.12975   0.91286   0.25298   0.00000  Uiso   1.00
O400   O     0.14356   0.72295   0.15488   0.00000  Uiso   1.00
O401   O     0.03736   0.74138   0.14079   0.00000  Uiso   1.00
O402   O     0.31660   0.91724   0.41421   0.00000  Uiso   1.00
O403   O     0.30450   0.84653   0.36008   0.00000  Uiso   1.00
O404   O     0.26279   0.93520   0.34258   0.00000  Uiso   1.00
O405   O     0.28698   0.95655   0.07540   0.00000  Uiso   1.00
O406   O     0.24308   0.68239   0.03575   0.00000  Uiso   1.00
O407   O     0.00368   0.76540   0.42689   0.00000  Uiso   1.00
O408   O     0.01650   0.69489   0.46865   0.00000  Uiso   1.00
O409   O     0.20358   0.75381   0.24701   0.00000  Uiso   1.00
O410   O     0.22613   0.90387   0.24518   0.00000  Uiso   1.00
O411   O     0.10720   0.76279   0.25481   0.00000  Uiso   1.00
O412   O     0.11847   0.83784   0.31997   0.00000  Uiso   1.00
O413   O     0.21486   0.82883   0.18002   0.00000  Uiso   1.00
O414   O     0.21485   0.82885   0.31217   0.00000  Uiso   1.00
O415   O     0.11848   0.83781   0.18782   0.00000  Uiso   1.00
O416   O     0.10479   0.69103   0.08474   0.00000  Uiso   1.00
S417   S     0.10471   0.73539   0.11859   0.00000  Uiso   1.00
S418   S     0.27563   0.89224   0.38186   0.00000  Uiso   1.00
Zn419  Zn    0.10231   0.83933   0.25521   0.00000  Uiso   1.00
Zn420  Zn    0.23102   0.82734   0.24479   0.00000  Uiso   1.00
C421   C     0.51515   0.93155   0.24913   0.00000  Uiso   1.00
C422   C     0.54174   0.86943   0.40845   0.00000  Uiso   1.00
C423   C     0.49540   0.83328   0.11600   0.00000  Uiso   1.00
C424   C     0.50288   0.83607   0.38504   0.00000  Uiso   1.00
C425   C     0.52309   0.87585   0.09472   0.00000  Uiso   1.00
C426   C     0.45852   0.80708   0.40764   0.00000  Uiso   1.00
C427   C     0.52253   0.87987   0.04846   0.00000  Uiso   1.00
C428   C     0.45219   0.80901   0.45411   0.00000  Uiso   1.00
C429   C     0.48820   0.84265   0.02460   0.00000  Uiso   1.00
C430   C     0.48938   0.84360   0.47777   0.00000  Uiso   1.00
C431   C     0.45441   0.80303   0.04726   0.00000  Uiso   1.00
C432   C     0.48494   0.73518   0.25230   0.00000  Uiso   1.00
C433   C     0.52955   0.87778   0.45466   0.00000  Uiso   1.00
C434   C     0.55344   0.92073   0.02527   0.00000  Uiso   1.00
C435   C     0.41055   0.77664   0.47766   0.00000  Uiso   1.00
C436   C     0.58513   0.96472   0.04782   0.00000  Uiso   1.00
C437   C     0.36406   0.74585   0.45551   0.00000  Uiso   1.00
C438   C     0.55559   0.91945   0.47852   0.00000  Uiso   1.00
C439   C     0.41333   0.77283   0.02390   0.00000  Uiso   1.00
C440   C     0.52328   0.98594   0.24923   0.00000  Uiso   1.00
C441   C     0.47692   0.68082   0.25366   0.00000  Uiso   1.00
C442   C     0.50151   0.83484   0.33672   0.00000  Uiso   1.00
C443   C     0.49856   0.83217   0.16357   0.00000  Uiso   1.00
C444   C     0.46249   0.79509   0.09269   0.00000  Uiso   1.00
H445   H     0.54569   0.90500   0.11490   0.00000  Uiso   1.00
H446   H     0.63457   0.95054   0.33267   0.00000  Uiso   1.00
H447   H     0.60075   0.70919   0.05288   0.00000  Uiso   1.00
H448   H     0.65097   0.67820   0.45092   0.00000  Uiso   1.00
H449   H     0.43101   0.78082   0.38832   0.00000  Uiso   1.00
H450   H     0.57703   0.95163   0.46090   0.00000  Uiso   1.00
H451   H     0.38163   0.74753   0.04166   0.00000  Uiso   1.00
H452   H     0.56721   0.66928   0.24534   0.00000  Uiso   1.00
H453   H     0.43299   0.99748   0.25762   0.00000  Uiso   1.00
H454   H     0.33752   0.79216   0.21792   0.00000  Uiso   1.00
H455   H     0.66275   0.87558   0.28094   0.00000  Uiso   1.00
H456   H     0.36075   0.70826   0.15634   0.00000  Uiso   1.00
N457   N     0.65011   0.81932   0.23783   0.00000  Uiso   1.00
N458   N     0.34989   0.84735   0.26217   0.00000  Uiso   1.00
O459   O     0.46308   0.91286   0.25298   0.00000  Uiso   1.00
O460   O     0.47690   0.72295   0.15488   0.00000  Uiso   1.00
O461   O     0.37070   0.74138   0.14079   0.00000  Uiso   1.00
O462   O     0.64993   0.91724   0.41421   0.00000  Uiso   1.00
O463   O     0.63784   0.84653   0.36008   0.00000  Uiso   1.00
O464   O     0.59613   0.93520   0.34258   0.00000  Uiso   1.00
O465   O     0.62031   0.95655   0.07540   0.00000  Uiso   1.00
O466   O     0.57641   0.68239   0.03575   0.00000  Uiso   1.00
O467   O     0.33701   0.76540   0.42689   0.00000  Uiso   1.00
O468   O     0.34983   0.69489   0.46865   0.00000  Uiso   1.00
O469   O     0.53692   0.75381   0.24701   0.00000  Uiso   1.00
O470   O     0.55946   0.90387   0.24518   0.00000  Uiso   1.00
O471   O     0.44054   0.76279   0.25481   0.00000  Uiso   1.00
O472   O     0.45181   0.83784   0.31997   0.00000  Uiso   1.00
O473   O     0.54819   0.82883   0.18002   0.00000  Uiso   1.00
O474   O     0.54819   0.82885   0.31217   0.00000  Uiso   1.00
O475   O     0.45181   0.83781   0.18782   0.00000  Uiso   1.00
O476   O     0.43812   0.69103   0.08474   0.00000  Uiso   1.00
S477   S     0.43805   0.73539   0.11859   0.00000  Uiso   1.00
S478   S     0.60896   0.89224   0.38186   0.00000  Uiso   1.00
Zn479  Zn    0.43565   0.83933   0.25521   0.00000  Uiso   1.00
Zn480  Zn    0.56435   0.82734   0.24479   0.00000  Uiso   1.00
C481   C     0.84849   0.93155   0.24913   0.00000  Uiso   1.00
C482   C     0.87507   0.86943   0.40845   0.00000  Uiso   1.00
C483   C     0.82874   0.83328   0.11600   0.00000  Uiso   1.00
C484   C     0.83622   0.83607   0.38504   0.00000  Uiso   1.00
C485   C     0.85642   0.87585   0.09472   0.00000  Uiso   1.00
C486   C     0.79186   0.80708   0.40764   0.00000  Uiso   1.00
C487   C     0.85586   0.87987   0.04846   0.00000  Uiso   1.00
C488   C     0.78552   0.80901   0.45411   0.00000  Uiso   1.00
C489   C     0.82153   0.84265   0.02460   0.00000  Uiso   1.00
C490   C     0.82271   0.84360   0.47777   0.00000  Uiso   1.00
C491   C     0.78774   0.80303   0.04726   0.00000  Uiso   1.00
C492   C     0.81828   0.73518   0.25230   0.00000  Uiso   1.00
C493   C     0.86289   0.87778   0.45466   0.00000  Uiso   1.00
C494   C     0.88678   0.92073   0.02527   0.00000  Uiso   1.00
C495   C     0.74388   0.77664   0.47766   0.00000  Uiso   1.00
C496   C     0.91846   0.96472   0.04782   0.00000  Uiso   1.00
C497   C     0.69739   0.74585   0.45551   0.00000  Uiso   1.00
C498   C     0.88892   0.91945   0.47852   0.00000  Uiso   1.00
C499   C     0.74667   0.77283   0.02390   0.00000  Uiso   1.00
C500   C     0.85661   0.98594   0.24923   0.00000  Uiso   1.00
C501   C     0.81025   0.68082   0.25366   0.00000  Uiso   1.00
C502   C     0.83484   0.83484   0.33672   0.00000  Uiso   1.00
C503   C     0.83189   0.83217   0.16357   0.00000  Uiso   1.00
C504   C     0.79583   0.79509   0.09269   0.00000  Uiso   1.00
H505   H     0.87902   0.90500   0.11490   0.00000  Uiso   1.00
H506   H     0.96790   0.95054   0.33267   0.00000  Uiso   1.00
H507   H     0.93409   0.70919   0.05288   0.00000  Uiso   1.00
H508   H     0.98430   0.67820   0.45092   0.00000  Uiso   1.00
H509   H     0.76434   0.78082   0.38832   0.00000  Uiso   1.00
H510   H     0.91036   0.95163   0.46090   0.00000  Uiso   1.00
H511   H     0.71496   0.74753   0.04166   0.00000  Uiso   1.00
H512   H     0.90055   0.66928   0.24534   0.00000  Uiso   1.00
H513   H     0.76632   0.99748   0.25762   0.00000  Uiso   1.00
H514   H     0.67086   0.79216   0.21792   0.00000  Uiso   1.00
H515   H     0.99609   0.87558   0.28094   0.00000  Uiso   1.00
H516   H     0.69408   0.70826   0.15634   0.00000  Uiso   1.00
N517   N     0.98344   0.81932   0.23783   0.00000  Uiso   1.00
N518   N     0.68322   0.84735   0.26217   0.00000  Uiso   1.00
O519   O     0.79642   0.91286   0.25298   0.00000  Uiso   1.00
O520   O     0.81023   0.72295   0.15488   0.00000  Uiso   1.00
O521   O     0.70403   0.74138   0.14079   0.00000  Uiso   1.00
O522   O     0.98327   0.91724   0.41421   0.00000  Uiso   1.00
O523   O     0.97117   0.84653   0.36008   0.00000  Uiso   1.00
O524   O     0.92946   0.93520   0.34258   0.00000  Uiso   1.00
O525   O     0.95364   0.95655   0.07540   0.00000  Uiso   1.00
O526   O     0.90974   0.68239   0.03575   0.00000  Uiso   1.00
O527   O     0.67034   0.76540   0.42689   0.00000  Uiso   1.00
O528   O     0.68316   0.69489   0.46865   0.00000  Uiso   1.00
O529   O     0.87025   0.75381   0.24701   0.00000  Uiso   1.00
O530   O     0.89280   0.90387   0.24518   0.00000  Uiso   1.00
O531   O     0.77387   0.76279   0.25481   0.00000  Uiso   1.00
O532   O     0.78514   0.83784   0.31997   0.00000  Uiso   1.00
O533   O     0.88153   0.82883   0.18002   0.00000  Uiso   1.00
O534   O     0.88152   0.82885   0.31217   0.00000  Uiso   1.00
O535   O     0.78515   0.83781   0.18782   0.00000  Uiso   1.00
O536   O     0.77145   0.69103   0.08474   0.00000  Uiso   1.00
S537   S     0.77138   0.73539   0.11859   0.00000  Uiso   1.00
S538   S     0.94230   0.89224   0.38186   0.00000  Uiso   1.00
Zn539  Zn    0.76898   0.83933   0.25521   0.00000  Uiso   1.00
Zn540  Zn    0.89769   0.82734   0.24479   0.00000  Uiso   1.00
C541   C     0.18182   0.26488   0.74913   0.00000  Uiso   1.00
C542   C     0.20841   0.20276   0.90845   0.00000  Uiso   1.00
C543   C     0.16207   0.16661   0.61600   0.00000  Uiso   1.00
C544   C     0.16955   0.16941   0.88504   0.00000  Uiso   1.00
C545   C     0.18976   0.20918   0.59472   0.00000  Uiso   1.00
C546   C     0.12519   0.14042   0.90764   0.00000  Uiso   1.00
C547   C     0.18919   0.21320   0.54846   0.00000  Uiso   1.00
C548   C     0.11886   0.14234   0.95411   0.00000  Uiso   1.00
C549   C     0.15487   0.17598   0.52460   0.00000  Uiso   1.00
C550   C     0.15605   0.17693   0.97777   0.00000  Uiso   1.00
C551   C     0.12108   0.13636   0.54726   0.00000  Uiso   1.00
C552   C     0.15161   0.06852   0.75230   0.00000  Uiso   1.00
C553   C     0.19622   0.21112   0.95466   0.00000  Uiso   1.00
C554   C     0.22011   0.25407   0.52527   0.00000  Uiso   1.00
C555   C     0.07722   0.10997   0.97766   0.00000  Uiso   1.00
C556   C     0.25179   0.29806   0.54782   0.00000  Uiso   1.00
C557   C     0.03073   0.07918   0.95551   0.00000  Uiso   1.00
C558   C     0.22226   0.25278   0.97852   0.00000  Uiso   1.00
C559   C     0.08000   0.10617   0.52390   0.00000  Uiso   1.00
C560   C     0.18994   0.31928   0.74923   0.00000  Uiso   1.00
C561   C     0.14358   0.01415   0.75366   0.00000  Uiso   1.00
C562   C     0.16818   0.16817   0.83672   0.00000  Uiso   1.00
C563   C     0.16523   0.16550   0.66357   0.00000  Uiso   1.00
C564   C     0.12916   0.12842   0.59269   0.00000  Uiso   1.00
H565   H     0.21236   0.23834   0.61490   0.00000  Uiso   1.00
H566   H     0.30123   0.28387   0.83267   0.00000  Uiso   1.00
H567   H     0.26742   0.04252   0.55288   0.00000  Uiso   1.00
H568   H     0.31764   0.01154   0.95092   0.00000  Uiso   1.00
H569   H     0.09767   0.11415   0.88832   0.00000  Uiso   1.00
H570   H     0.24370   0.28496   0.96090   0.00000  Uiso   1.00
H571   H     0.04830   0.08086   0.54166   0.00000  Uiso   1.00
H572   H     0.23388   0.00261   0.74534   0.00000  Uiso   1.00
H573   H     0.09965   0.33082   0.75762   0.00000  Uiso   1.00
H574   H     0.00419   0.12549   0.71792   0.00000  Uiso   1.00
H575   H     0.32942   0.20891   0.78094   0.00000  Uiso   1.00
H576   H     0.02742   0.04160   0.65634   0.00000  Uiso   1.00
N577   N     0.31678   0.15265   0.73783   0.00000  Uiso   1.00
N578   N     0.01656   0.18068   0.76217   0.00000  Uiso   1.00
O579   O     0.12975   0.24619   0.75298   0.00000  Uiso   1.00
O580   O     0.14356   0.05628   0.65488   0.00000  Uiso   1.00
O581   O     0.03736   0.07471   0.64079   0.00000  Uiso   1.00
O582   O     0.31660   0.25058   0.91421   0.00000  Uiso   1.00
O583   O     0.30450   0.17986   0.86008   0.00000  Uiso   1.00
O584   O     0.26279   0.26853   0.84258   0.00000  Uiso   1.00
O585   O     0.28698   0.28988   0.57540   0.00000  Uiso   1.00
O586   O     0.24308   0.01572   0.53575   0.00000  Uiso   1.00
O587   O     0.00368   0.09873   0.92689   0.00000  Uiso   1.00
O588   O     0.01650   0.02822   0.96865   0.00000  Uiso   1.00
O589   O     0.20358   0.08714   0.74701   0.00000  Uiso   1.00
O590   O     0.22613   0.23721   0.74518   0.00000  Uiso   1.00
O591   O     0.10720   0.09613   0.75481   0.00000  Uiso   1.00
O592   O     0.11847   0.17117   0.81997   0.00000  Uiso   1.00
O593   O     0.21486   0.16216   0.68002   0.00000  Uiso   1.00
O594   O     0.21485   0.16219   0.81217   0.00000  Uiso   1.00
O595   O     0.11848   0.17115   0.68782   0.00000  Uiso   1.00
O596   O     0.10479   0.02437   0.58474   0.00000  Uiso   1.00
S597   S     0.10471   0.06872   0.61859   0.00000  Uiso   1.00
S598   S     0.27563   0.22557   0.88186   0.00000  Uiso   1.00
Zn599  Zn    0.10231   0.17266   0.75521   0.00000  Uiso   1.00
Zn600  Zn    0.23102   0.16067   0.74479   0.00000  Uiso   1.00
C601   C     0.51515   0.26488   0.74913   0.00000  Uiso   1.00
C602   C     0.54174   0.20276   0.90845   0.00000  Uiso   1.00
C603   C     0.49540   0.16661   0.61600   0.00000  Uiso   1.00
C604   C     0.50288   0.16941   0.88504   0.00000  Uiso   1.00
C605   C     0.52309   0.20918   0.59472   0.00000  Uiso   1.00
C606   C     0.45852   0.14042   0.90764   0.00000  Uiso   1.00
C607   C     0.52253   0.21320   0.54846   0.00000  Uiso   1.00
C608   C     0.45219   0.14234   0.95411   0.00000  Uiso   1.00
C609   C     0.48820   0.17598   0.52460   0.00000  Uiso   1.00
C610   C     0.48938   0.17693   0.97777   0.00000  Uiso   1.00
C611   C     0.45441   0.13636   0.54726   0.00000  Uiso   1.00
C612   C     0.48494   0.06852   0.75230   0.00000  Uiso   1.00
C613   C     0.52955   0.21112   0.95466   0.00000  Uiso   1.00
C614   C     0.55344   0.25407   0.52527   0.00000  Uiso   1.00
C615   C     0.41055   0.10997   0.97766   0.00000  Uiso   1.00
C616   C     0.58513   0.29806   0.54782   0.00000  Uiso   1.00
C617   C     0.36406   0.07918   0.95551   0.00000  Uiso   1.00
C618   C     0.55559   0.25278   0.97852   0.00000  Uiso   1.00
C619   C     0.41333   0.10617   0.52390   0.00000  Uiso   1.00
C620   C     0.52328   0.31928   0.74923   0.00000  Uiso   1.00
C621   C     0.47692   0.01415   0.75366   0.00000  Uiso   1.00
C622   C     0.50151   0.16817   0.83672   0.00000  Uiso   1.00
C623   C     0.49856   0.16550   0.66357   0.00000  Uiso   1.00
C624   C     0.46249   0.12842   0.59269   0.00000  Uiso   1.00
H625   H     0.54569   0.23834   0.61490   0.00000  Uiso   1.00
H626   H     0.63457   0.28387   0.83267   0.00000  Uiso   1.00
H627   H     0.60075   0.04252   0.55288   0.00000  Uiso   1.00
H628   H     0.65097   0.01154   0.95092   0.00000  Uiso   1.00
H629   H     0.43101   0.11415   0.88832   0.00000  Uiso   1.00
H630   H     0.57703   0.28496   0.96090   0.00000  Uiso   1.00
H631   H     0.38163   0.08086   0.54166   0.00000  Uiso   1.00
H632   H     0.56721   0.00261   0.74534   0.00000  Uiso   1.00
H633   H     0.43299   0.33082   0.75762   0.00000  Uiso   1.00
H634   H     0.33752   0.12549   0.71792   0.00000  Uiso   1.00
H635   H     0.66275   0.20891   0.78094   0.00000  Uiso   1.00
H636   H     0.36075   0.04160   0.65634   0.00000  Uiso   1.00
N637   N     0.65011   0.15265   0.73783   0.00000  Uiso   1.00
N638   N     0.34989   0.18068   0.76217   0.00000  Uiso   1.00
O639   O     0.46308   0.24619   0.75298   0.00000  Uiso   1.00
O640   O     0.47690   0.05628   0.65488   0.00000  Uiso   1.00
O641   O     0.37070   0.07471   0.64079   0.00000  Uiso   1.00
O642   O     0.64993   0.25058   0.91421   0.00000  Uiso   1.00
O643   O     0.63784   0.17986   0.86008   0.00000  Uiso   1.00
O644   O     0.59613   0.26853   0.84258   0.00000  Uiso   1.00
O645   O     0.62031   0.28988   0.57540   0.00000  Uiso   1.00
O646   O     0.57641   0.01572   0.53575   0.00000  Uiso   1.00
O647   O     0.33701   0.09873   0.92689   0.00000  Uiso   1.00
O648   O     0.34983   0.02822   0.96865   0.00000  Uiso   1.00
O649   O     0.53692   0.08714   0.74701   0.00000  Uiso   1.00
O650   O     0.55946   0.23721   0.74518   0.00000  Uiso   1.00
O651   O     0.44054   0.09613   0.75481   0.00000  Uiso   1.00
O652   O     0.45181   0.17117   0.81997   0.00000  Uiso   1.00
O653   O     0.54819   0.16216   0.68002   0.00000  Uiso   1.00
O654   O     0.54819   0.16219   0.81217   0.00000  Uiso   1.00
O655   O     0.45181   0.17115   0.68782   0.00000  Uiso   1.00
O656   O     0.43812   0.02437   0.58474   0.00000  Uiso   1.00
S657   S     0.43805   0.06872   0.61859   0.00000  Uiso   1.00
S658   S     0.60896   0.22557   0.88186   0.00000  Uiso   1.00
Zn659  Zn    0.43565   0.17266   0.75521   0.00000  Uiso   1.00
Zn660  Zn    0.56435   0.16067   0.74479   0.00000  Uiso   1.00
C661   C     0.84849   0.26488   0.74913   0.00000  Uiso   1.00
C662   C     0.87507   0.20276   0.90845   0.00000  Uiso   1.00
C663   C     0.82874   0.16661   0.61600   0.00000  Uiso   1.00
C664   C     0.83622   0.16941   0.88504   0.00000  Uiso   1.00
C665   C     0.85642   0.20918   0.59472   0.00000  Uiso   1.00
C666   C     0.79186   0.14042   0.90764   0.00000  Uiso   1.00
C667   C     0.85586   0.21320   0.54846   0.00000  Uiso   1.00
C668   C     0.78552   0.14234   0.95411   0.00000  Uiso   1.00
C669   C     0.82153   0.17598   0.52460   0.00000  Uiso   1.00
C670   C     0.82271   0.17693   0.97777   0.00000  Uiso   1.00
C671   C     0.78774   0.13636   0.54726   0.00000  Uiso   1.00
C672   C     0.81828   0.06852   0.75230   0.00000  Uiso   1.00
C673   C     0.86289   0.21112   0.95466   0.00000  Uiso   1.00
C674   C     0.88678   0.25407   0.52527   0.00000  Uiso   1.00
C675   C     0.74388   0.10997   0.97766   0.00000  Uiso   1.00
C676   C     0.91846   0.29806   0.54782   0.00000  Uiso   1.00
C677   C     0.69739   0.07918   0.95551   0.00000  Uiso   1.00
C678   C     0.88892   0.25278   0.97852   0.00000  Uiso   1.00
C679   C     0.74667   0.10617   0.52390   0.00000  Uiso   1.00
C680   C     0.85661   0.31928   0.74923   0.00000  Uiso   1.00
C681   C     0.81025   0.01415   0.75366   0.00000  Uiso   1.00
C682   C     0.83484   0.16817   0.83672   0.00000  Uiso   1.00
C683   C     0.83189   0.16550   0.66357   0.00000  Uiso   1.00
C684   C     0.79583   0.12842   0.59269   0.00000  Uiso   1.00
H685   H     0.87902   0.23834   0.61490   0.00000  Uiso   1.00
H686   H     0.96790   0.28387   0.83267   0.00000  Uiso   1.00
H687   H     0.93409   0.04252   0.55288   0.00000  Uiso   1.00
H688   H     0.98430   0.01154   0.95092   0.00000  Uiso   1.00
H689   H     0.76434   0.11415   0.88832   0.00000  Uiso   1.00
H690   H     0.91036   0.28496   0.96090   0.00000  Uiso   1.00
H691   H     0.71496   0.08086   0.54166   0.00000  Uiso   1.00
H692   H     0.90055   0.00261   0.74534   0.00000  Uiso   1.00
H693   H     0.76632   0.33082   0.75762   0.00000  Uiso   1.00
H694   H     0.67086   0.12549   0.71792   0.00000  Uiso   1.00
H695   H     0.99609   0.20891   0.78094   0.00000  Uiso   1.00
H696   H     0.69408   0.04160   0.65634   0.00000  Uiso   1.00
N697   N     0.98344   0.15265   0.73783   0.00000  Uiso   1.00
N698   N     0.68322   0.18068   0.76217   0.00000  Uiso   1.00
O699   O     0.79642   0.24619   0.75298   0.00000  Uiso   1.00
O700   O     0.81023   0.05628   0.65488   0.00000  Uiso   1.00
O701   O     0.70403   0.07471   0.64079   0.00000  Uiso   1.00
O702   O     0.98327   0.25058   0.91421   0.00000  Uiso   1.00
O703   O     0.97117   0.17986   0.86008   0.00000  Uiso   1.00
O704   O     0.92946   0.26853   0.84258   0.00000  Uiso   1.00
O705   O     0.95364   0.28988   0.57540   0.00000  Uiso   1.00
O706   O     0.90974   0.01572   0.53575   0.00000  Uiso   1.00
O707   O     0.67034   0.09873   0.92689   0.00000  Uiso   1.00
O708   O     0.68316   0.02822   0.96865   0.00000  Uiso   1.00
O709   O     0.87025   0.08714   0.74701   0.00000  Uiso   1.00
O710   O     0.89280   0.23721   0.74518   0.00000  Uiso   1.00
O711   O     0.77387   0.09613   0.75481   0.00000  Uiso   1.00
O712   O     0.78514   0.17117   0.81997   0.00000  Uiso   1.00
O713   O     0.88153   0.16216   0.68002   0.00000  Uiso   1.00
O714   O     0.88152   0.16219   0.81217   0.00000  Uiso   1.00
O715   O     0.78515   0.17115   0.68782   0.00000  Uiso   1.00
O716   O     0.77145   0.02437   0.58474   0.00000  Uiso   1.00
S717   S     0.77138   0.06872   0.61859   0.00000  Uiso   1.00
S718   S     0.94230   0.22557   0.88186   0.00000  Uiso   1.00
Zn719  Zn    0.76898   0.17266   0.75521   0.00000  Uiso   1.00
Zn720  Zn    0.89769   0.16067   0.74479   0.00000  Uiso   1.00
C721   C     0.18182   0.59822   0.74913   0.00000  Uiso   1.00
C722   C     0.20841   0.53609   0.90845   0.00000  Uiso   1.00
C723   C     0.16207   0.49994   0.61600   0.00000  Uiso   1.00
C724   C     0.16955   0.50274   0.88504   0.00000  Uiso   1.00
C725   C     0.18976   0.54251   0.59472   0.00000  Uiso   1.00
C726   C     0.12519   0.47375   0.90764   0.00000  Uiso   1.00
C727   C     0.18919   0.54653   0.54846   0.00000  Uiso   1.00
C728   C     0.11886   0.47567   0.95411   0.00000  Uiso   1.00
C729   C     0.15487   0.50931   0.52460   0.00000  Uiso   1.00
C730   C     0.15605   0.51026   0.97777   0.00000  Uiso   1.00
C731   C     0.12108   0.46970   0.54726   0.00000  Uiso   1.00
C732   C     0.15161   0.40185   0.75230   0.00000  Uiso   1.00
C733   C     0.19622   0.54445   0.95466   0.00000  Uiso   1.00
C734   C     0.22011   0.58740   0.52527   0.00000  Uiso   1.00
C735   C     0.07722   0.44330   0.97766   0.00000  Uiso   1.00
C736   C     0.25179   0.63139   0.54782   0.00000  Uiso   1.00
C737   C     0.03073   0.41252   0.95551   0.00000  Uiso   1.00
C738   C     0.22226   0.58612   0.97852   0.00000  Uiso   1.00
C739   C     0.08000   0.43950   0.52390   0.00000  Uiso   1.00
C740   C     0.18994   0.65261   0.74923   0.00000  Uiso   1.00
C741   C     0.14358   0.34748   0.75366   0.00000  Uiso   1.00
C742   C     0.16818   0.50151   0.83672   0.00000  Uiso   1.00
C743   C     0.16523   0.49884   0.66357   0.00000  Uiso   1.00
C744   C     0.12916   0.46175   0.59269   0.00000  Uiso   1.00
H745   H     0.21236   0.57167   0.61490   0.00000  Uiso   1.00
H746   H     0.30123   0.61721   0.83267   0.00000  Uiso   1.00
H747   H     0.26742   0.37586   0.55288   0.00000  Uiso   1.00
H748   H     0.31764   0.34487   0.95092   0.00000  Uiso   1.00
H749   H     0.09767   0.44749   0.88832   0.00000  Uiso   1.00
H750   H     0.24370   0.61829   0.96090   0.00000  Uiso   1.00
H751   H     0.04830   0.41419   0.54166   0.00000  Uiso   1.00
H752   H     0.23388   0.33594   0.74534   0.00000  Uiso   1.00
H753   H     0.09965   0.66415   0.75762   0.00000  Uiso   1.00
H754   H     0.00419   0.45883   0.71792   0.00000  Uiso   1.00
H755   H     0.32942   0.54225   0.78094   0.00000  Uiso   1.00
H756   H     0.02742   0.37493   0.65634   0.00000  Uiso   1.00
N757   N     0.31678   0.48598   0.73783   0.00000  Uiso   1.00
N758   N     0.01656   0.51402   0.76217   0.00000  Uiso   1.00
O759   O     0.12975   0.57952   0.75298   0.00000  Uiso   1.00
O760   O     0.14356   0.38961   0.65488   0.00000  Uiso   1.00
O761   O     0.03736   0.40804   0.64079   0.00000  Uiso   1.00
O762   O     0.31660   0.58391   0.91421   0.00000  Uiso   1.00
O763   O     0.30450   0.51319   0.86008   0.00000  Uiso   1.00
O764   O     0.26279   0.60186   0.84258   0.00000  Uiso   1.00
O765   O     0.28698   0.62322   0.57540   0.00000  Uiso   1.00
O766   O     0.24308   0.34906   0.53575   0.00000  Uiso   1.00
O767   O     0.00368   0.43206   0.92689   0.00000  Uiso   1.00
O768   O     0.01650   0.36156   0.96865   0.00000  Uiso   1.00
O769   O     0.20358   0.42048   0.74701   0.00000  Uiso   1.00
O770   O     0.22613   0.57054   0.74518   0.00000  Uiso   1.00
O771   O     0.10720   0.42946   0.75481   0.00000  Uiso   1.00
O772   O     0.11847   0.50450   0.81997   0.00000  Uiso   1.00
O773   O     0.21486   0.49550   0.68002   0.00000  Uiso   1.00
O774   O     0.21485   0.49552   0.81217   0.00000  Uiso   1.00
O775   O     0.11848   0.50448   0.68782   0.00000  Uiso   1.00
O776   O     0.10479   0.35770   0.58474   0.00000  Uiso   1.00
S777   S     0.10471   0.40205   0.61859   0.00000  Uiso   1.00
S778   S     0.27563   0.55891   0.88186   0.00000  Uiso   1.00
Zn779  Zn    0.10231   0.50600   0.75521   0.00000  Uiso   1.00
Zn780  Zn    0.23102   0.49400   0.74479   0.00000  Uiso   1.00
C781   C     0.51515   0.59822   0.74913   0.00000  Uiso   1.00
C782   C     0.54174   0.53609   0.90845   0.00000  Uiso   1.00
C783   C     0.49540   0.49994   0.61600   0.00000  Uiso   1.00
C784   C     0.50288   0.50274   0.88504   0.00000  Uiso   1.00
C785   C     0.52309   0.54251   0.59472   0.00000  Uiso   1.00
C786   C     0.45852   0.47375   0.90764   0.00000  Uiso   1.00
C787   C     0.52253   0.54653   0.54846   0.00000  Uiso   1.00
C788   C     0.45219   0.47567   0.95411   0.00000  Uiso   1.00
C789   C     0.48820   0.50931   0.52460   0.00000  Uiso   1.00
C790   C     0.48938   0.51026   0.97777   0.00000  Uiso   1.00
C791   C     0.45441   0.46970   0.54726   0.00000  Uiso   1.00
C792   C     0.48494   0.40185   0.75230   0.00000  Uiso   1.00
C793   C     0.52955   0.54445   0.95466   0.00000  Uiso   1.00
C794   C     0.55344   0.58740   0.52527   0.00000  Uiso   1.00
C795   C     0.41055   0.44330   0.97766   0.00000  Uiso   1.00
C796   C     0.58513   0.63139   0.54782   0.00000  Uiso   1.00
C797   C     0.36406   0.41252   0.95551   0.00000  Uiso   1.00
C798   C     0.55559   0.58612   0.97852   0.00000  Uiso   1.00
C799   C     0.41333   0.43950   0.52390   0.00000  Uiso   1.00
C800   C     0.52328   0.65261   0.74923   0.00000  Uiso   1.00
C801   C     0.47692   0.34748   0.75366   0.00000  Uiso   1.00
C802   C     0.50151   0.50151   0.83672   0.00000  Uiso   1.00
C803   C     0.49856   0.49884   0.66357   0.00000  Uiso   1.00
C804   C     0.46249   0.46175   0.59269   0.00000  Uiso   1.00
H805   H     0.54569   0.57167   0.61490   0.00000  Uiso   1.00
H806   H     0.63457   0.61721   0.83267   0.00000  Uiso   1.00
H807   H     0.60075   0.37586   0.55288   0.00000  Uiso   1.00
H808   H     0.65097   0.34487   0.95092   0.00000  Uiso   1.00
H809   H     0.43101   0.44749   0.88832   0.00000  Uiso   1.00
H810   H     0.57703   0.61829   0.96090   0.00000  Uiso   1.00
H811   H     0.38163   0.41419   0.54166   0.00000  Uiso   1.00
H812   H     0.56721   0.33594   0.74534   0.00000  Uiso   1.00
H813   H     0.43299   0.66415   0.75762   0.00000  Uiso   1.00
H814   H     0.33752   0.45883   0.71792   0.00000  Uiso   1.00
H815   H     0.66275   0.54225   0.78094   0.00000  Uiso   1.00
H816   H     0.36075   0.37493   0.65634   0.00000  Uiso   1.00
N817   N     0.65011   0.48598   0.73783   0.00000  Uiso   1.00
N818   N     0.34989   0.51402   0.76217   0.00000  Uiso   1.00
O819   O     0.46308   0.57952   0.75298   0.00000  Uiso   1.00
O820   O     0.47690   0.38961   0.65488   0.00000  Uiso   1.00
O821   O     0.37070   0.40804   0.64079   0.00000  Uiso   1.00
O822   O     0.64993   0.58391   0.91421   0.00000  Uiso   1.00
O823   O     0.63784   0.51319   0.86008   0.00000  Uiso   1.00
O824   O     0.59613   0.60186   0.84258   0.00000  Uiso   1.00
O825   O     0.62031   0.62322   0.57540   0.00000  Uiso   1.00
O826   O     0.57641   0.34906   0.53575   0.00000  Uiso   1.00
O827   O     0.33701   0.43206   0.92689   0.00000  Uiso   1.00
O828   O     0.34983   0.36156   0.96865   0.00000  Uiso   1.00
O829   O     0.53692   0.42048   0.74701   0.00000  Uiso   1.00
O830   O     0.55946   0.57054   0.74518   0.00000  Uiso   1.00
O831   O     0.44054   0.42946   0.75481   0.00000  Uiso   1.00
O832   O     0.45181   0.50450   0.81997   0.00000  Uiso   1.00
O833   O     0.54819   0.49550   0.68002   0.00000  Uiso   1.00
O834   O     0.54819   0.49552   0.81217   0.00000  Uiso   1.00
O835   O     0.45181   0.50448   0.68782   0.00000  Uiso   1.00
O836   O     0.43812   0.35770   0.58474   0.00000  Uiso   1.00
S837   S     0.43805   0.40205   0.61859   0.00000  Uiso   1.00
S838   S     0.60896   0.55891   0.88186   0.00000  Uiso   1.00
Zn839  Zn    0.43565   0.50600   0.75521   0.00000  Uiso   1.00
Zn840  Zn    0.56435   0.49400   0.74479   0.00000  Uiso   1.00
C841   C     0.84849   0.59822   0.74913   0.00000  Uiso   1.00
C842   C     0.87507   0.53609   0.90845   0.00000  Uiso   1.00
C843   C     0.82874   0.49994   0.61600   0.00000  Uiso   1.00
C844   C     0.83622   0.50274   0.88504   0.00000  Uiso   1.00
C845   C     0.85642   0.54251   0.59472   0.00000  Uiso   1.00
C846   C     0.79186   0.47375   0.90764   0.00000  Uiso   1.00
C847   C     0.85586   0.54653   0.54846   0.00000  Uiso   1.00
C848   C     0.78552   0.47567   0.95411   0.00000  Uiso   1.00
C849   C     0.82153   0.50931   0.52460   0.00000  Uiso   1.00
C850   C     0.82271   0.51026   0.97777   0.00000  Uiso   1.00
C851   C     0.78774   0.46970   0.54726   0.00000  Uiso   1.00
C852   C     0.81828   0.40185   0.75230   0.00000  Uiso   1.00
C853   C     0.86289   0.54445   0.95466   0.00000  Uiso   1.00
C854   C     0.88678   0.58740   0.52527   0.00000  Uiso   1.00
C855   C     0.74388   0.44330   0.97766   0.00000  Uiso   1.00
C856   C     0.91846   0.63139   0.54782   0.00000  Uiso   1.00
C857   C     0.69739   0.41252   0.95551   0.00000  Uiso   1.00
C858   C     0.88892   0.58612   0.97852   0.00000  Uiso   1.00
C859   C     0.74667   0.43950   0.52390   0.00000  Uiso   1.00
C860   C     0.85661   0.65261   0.74923   0.00000  Uiso   1.00
C861   C     0.81025   0.34748   0.75366   0.00000  Uiso   1.00
C862   C     0.83484   0.50151   0.83672   0.00000  Uiso   1.00
C863   C     0.83189   0.49884   0.66357   0.00000  Uiso   1.00
C864   C     0.79583   0.46175   0.59269   0.00000  Uiso   1.00
H865   H     0.87902   0.57167   0.61490   0.00000  Uiso   1.00
H866   H     0.96790   0.61721   0.83267   0.00000  Uiso   1.00
H867   H     0.93409   0.37586   0.55288   0.00000  Uiso   1.00
H868   H     0.98430   0.34487   0.95092   0.00000  Uiso   1.00
H869   H     0.76434   0.44749   0.88832   0.00000  Uiso   1.00
H870   H     0.91036   0.61829   0.96090   0.00000  Uiso   1.00
H871   H     0.71496   0.41419   0.54166   0.00000  Uiso   1.00
H872   H     0.90055   0.33594   0.74534   0.00000  Uiso   1.00
H873   H     0.76632   0.66415   0.75762   0.00000  Uiso   1.00
H874   H     0.67086   0.45883   0.71792   0.00000  Uiso   1.00
H875   H     0.99609   0.54225   0.78094   0.00000  Uiso   1.00
H876   H     0.69408   0.37493   0.65634   0.00000  Uiso   1.00
N877   N     0.98344   0.48598   0.73783   0.00000  Uiso   1.00
N878   N     0.68322   0.51402   0.76217   0.00000  Uiso   1.00
O879   O     0.79642   0.57952   0.75298   0.00000  Uiso   1.00
O880   O     0.81023   0.38961   0.65488   0.00000  Uiso   1.00
O881   O     0.70403   0.40804   0.64079   0.00000  Uiso   1.00
O882   O     0.98327   0.58391   0.91421   0.00000  Uiso   1.00
O883   O     0.97117   0.51319   0.86008   0.00000  Uiso   1.00
O884   O     0.92946   0.60186   0.84258   0.00000  Uiso   1.00
O885   O     0.95364   0.62322   0.57540   0.00000  Uiso   1.00
O886   O     0.90974   0.34906   0.53575   0.00000  Uiso   1.00
O887   O     0.67034   0.43206   0.92689   0.00000  Uiso   1.00
O888   O     0.68316   0.36156   0.96865   0.00000  Uiso   1.00
O889   O     0.87025   0.42048   0.74701   0.00000  Uiso   1.00
O890   O     0.89280   0.57054   0.74518   0.00000  Uiso   1.00
O891   O     0.77387   0.42946   0.75481   0.00000  Uiso   1.00
O892   O     0.78514   0.50450   0.81997   0.00000  Uiso   1.00
O893   O     0.88153   0.49550   0.68002   0.00000  Uiso   1.00
O894   O     0.88152   0.49552   0.81217   0.00000  Uiso   1.00
O895   O     0.78515   0.50448   0.68782   0.00000  Uiso   1.00
O896   O     0.77145   0.35770   0.58474   0.00000  Uiso   1.00
S897   S     0.77138   0.40205   0.61859   0.00000  Uiso   1.00
S898   S     0.94230   0.55891   0.88186   0.00000  Uiso   1.00
Zn899  Zn    0.76898   0.50600   0.75521   0.00000  Uiso   1.00
Zn900  Zn    0.89769   0.49400   0.74479   0.00000  Uiso   1.00
C901   C     0.18182   0.93155   0.74913   0.00000  Uiso   1.00
C902   C     0.20841   0.86943   0.90845   0.00000  Uiso   1.00
C903   C     0.16207   0.83328   0.61600   0.00000  Uiso   1.00
C904   C     0.16955   0.83607   0.88504   0.00000  Uiso   1.00
C905   C     0.18976   0.87585   0.59472   0.00000  Uiso   1.00
C906   C     0.12519   0.80708   0.90764   0.00000  Uiso   1.00
C907   C     0.18919   0.87987   0.54846   0.00000  Uiso   1.00
C908   C     0.11886   0.80901   0.95411   0.00000  Uiso   1.00
C909   C     0.15487   0.84265   0.52460   0.00000  Uiso   1.00
C910   C     0.15605   0.84360   0.97777   0.00000  Uiso   1.00
C911   C     0.12108   0.80303   0.54726   0.00000  Uiso   1.00
C912   C     0.15161   0.73518   0.75230   0.00000  Uiso   1.00
C913   C     0.19622   0.87778   0.95466   0.00000  Uiso   1.00
C914   C     0.22011   0.92073   0.52527   0.00000  Uiso   1.00
C915   C     0.07722   0.77664   0.97766   0.00000  Uiso   1.00
C916   C     0.25179   0.96472   0.54782   0.00000  Uiso   1.00
C917   C     0.03073   0.74585   0.95551   0.00000  Uiso   1.00
C918   C     0.22226   0.91945   0.97852   0.00000  Uiso   1.00
C919   C     0.08000   0.77283   0.52390   0.00000  Uiso   1.00
C920   C     0.18994   0.98594   0.74923   0.00000  Uiso   1.00
C921   C     0.14358   0.68082   0.75366   0.00000  Uiso   1.00
C922   C     0.16818   0.83484   0.83672   0.00000  Uiso   1.00
C923   C     0.16523   0.83217   0.66357   0.00000  Uiso   1.00
C924   C     0.12916   0.79509   0.59269   0.00000  Uiso   1.00
H925   H     0.21236   0.90500   0.61490   0.00000  Uiso   1.00
H926   H     0.30123   0.95054   0.83267   0.00000  Uiso   1.00
H927   H     0.26742   0.70919   0.55288   0.00000  Uiso   1.00
H928   H     0.31764   0.67820   0.95092   0.00000  Uiso   1.00
H929   H     0.09767   0.78082   0.88832   0.00000  Uiso   1.00
H930   H     0.24370   0.95163   0.96090   0.00000  Uiso   1.00
H931   H     0.04830   0.74753   0.54166   0.00000  Uiso   1.00
H932   H     0.23388   0.66928   0.74534   0.00000  Uiso   1.00
H933   H     0.09965   0.99748   0.75762   0.00000  Uiso   1.00
H934   H     0.00419   0.79216   0.71792   0.00000  Uiso   1.00
H935   H     0.32942   0.87558   0.78094   0.00000  Uiso   1.00
H936   H     0.02742   0.70826   0.65634   0.00000  Uiso   1.00
N937   N     0.31678   0.81932   0.73783   0.00000  Uiso   1.00
N938   N     0.01656   0.84735   0.76217   0.00000  Uiso   1.00
O939   O     0.12975   0.91286   0.75298   0.00000  Uiso   1.00
O940   O     0.14356   0.72295   0.65488   0.00000  Uiso   1.00
O941   O     0.03736   0.74138   0.64079   0.00000  Uiso   1.00
O942   O     0.31660   0.91724   0.91421   0.00000  Uiso   1.00
O943   O     0.30450   0.84653   0.86008   0.00000  Uiso   1.00
O944   O     0.26279   0.93520   0.84258   0.00000  Uiso   1.00
O945   O     0.28698   0.95655   0.57540   0.00000  Uiso   1.00
O946   O     0.24308   0.68239   0.53575   0.00000  Uiso   1.00
O947   O     0.00368   0.76540   0.92689   0.00000  Uiso   1.00
O948   O     0.01650   0.69489   0.96865   0.00000  Uiso   1.00
O949   O     0.20358   0.75381   0.74701   0.00000  Uiso   1.00
O950   O     0.22613   0.90387   0.74518   0.00000  Uiso   1.00
O951   O     0.10720   0.76279   0.75481   0.00000  Uiso   1.00
O952   O     0.11847   0.83784   0.81997   0.00000  Uiso   1.00
O953   O     0.21486   0.82883   0.68002   0.00000  Uiso   1.00
O954   O     0.21485   0.82885   0.81217   0.00000  Uiso   1.00
O955   O     0.11848   0.83781   0.68782   0.00000  Uiso   1.00
O956   O     0.10479   0.69103   0.58474   0.00000  Uiso   1.00
S957   S     0.10471   0.73539   0.61859   0.00000  Uiso   1.00
S958   S     0.27563   0.89224   0.88186   0.00000  Uiso   1.00
Zn959  Zn    0.10231   0.83933   0.75521   0.00000  Uiso   1.00
Zn960  Zn    0.23102   0.82734   0.74479   0.00000  Uiso   1.00
C961   C     0.51515   0.93155   0.74913   0.00000  Uiso   1.00
C962   C     0.54174   0.86943   0.90845   0.00000  Uiso   1.00
C963   C     0.49540   0.83328   0.61600   0.00000  Uiso   1.00
C964   C     0.50288   0.83607   0.88504   0.00000  Uiso   1.00
C965   C     0.52309   0.87585   0.59472   0.00000  Uiso   1.00
C966   C     0.45852   0.80708   0.90764   0.00000  Uiso   1.00
C967   C     0.52253   0.87987   0.54846   0.00000  Uiso   1.00
C968   C     0.45219   0.80901   0.95411   0.00000  Uiso   1.00
C969   C     0.48820   0.84265   0.52460   0.00000  Uiso   1.00
C970   C     0.48938   0.84360   0.97777   0.00000  Uiso   1.00
C971   C     0.45441   0.80303   0.54726   0.00000  Uiso   1.00
C972   C     0.48494   0.73518   0.75230   0.00000  Uiso   1.00
C973   C     0.52955   0.87778   0.95466   0.00000  Uiso   1.00
C974   C     0.55344   0.92073   0.52527   0.00000  Uiso   1.00
C975   C     0.41055   0.77664   0.97766   0.00000  Uiso   1.00
C976   C     0.58513   0.96472   0.54782   0.00000  Uiso   1.00
C977   C     0.36406   0.74585   0.95551   0.00000  Uiso   1.00
C978   C     0.55559   0.91945   0.97852   0.00000  Uiso   1.00
C979   C     0.41333   0.77283   0.52390   0.00000  Uiso   1.00
C980   C     0.52328   0.98594   0.74923   0.00000  Uiso   1.00
C981   C     0.47692   0.68082   0.75366   0.00000  Uiso   1.00
C982   C     0.50151   0.83484   0.83672   0.00000  Uiso   1.00
C983   C     0.49856   0.83217   0.66357   0.00000  Uiso   1.00
C984   C     0.46249   0.79509   0.59269   0.00000  Uiso   1.00
H985   H     0.54569   0.90500   0.61490   0.00000  Uiso   1.00
H986   H     0.63457   0.95054   0.83267   0.00000  Uiso   1.00
H987   H     0.60075   0.70919   0.55288   0.00000  Uiso   1.00
H988   H     0.65097   0.67820   0.95092   0.00000  Uiso   1.00
H989   H     0.43101   0.78082   0.88832   0.00000  Uiso   1.00
H990   H     0.57703   0.95163   0.96090   0.00000  Uiso   1.00
H991   H     0.38163   0.74753   0.54166   0.00000  Uiso   1.00
H992   H     0.56721   0.66928   0.74534   0.00000  Uiso   1.00
H993   H     0.43299   0.99748   0.75762   0.00000  Uiso   1.00
H994   H     0.33752   0.79216   0.71792   0.00000  Uiso   1.00
H995   H     0.66275   0.87558   0.78094   0.00000  Uiso   1.00
H996   H     0.36075   0.70826   0.65634   0.00000  Uiso   1.00
N997   N     0.65011   0.81932   0.73783   0.00000  Uiso   1.00
N998   N     0.34989   0.84735   0.76217   0.00000  Uiso   1.00
O999   O     0.46308   0.91286   0.75298   0.00000  Uiso   1.00
O1000  O     0.47690   0.72295   0.65488   0.00000  Uiso   1.00
O1001  O     0.37070   0.74138   0.64079   0.00000  Uiso   1.00
O1002  O     0.64993   0.91724   0.91421   0.00000  Uiso   1.00
O1003  O     0.63784   0.84653   0.86008   0.00000  Uiso   1.00
O1004  O     0.59613   0.93520   0.84258   0.00000  Uiso   1.00
O1005  O     0.62031   0.95655   0.57540   0.00000  Uiso   1.00
O1006  O     0.57641   0.68239   0.53575   0.00000  Uiso   1.00
O1007  O     0.33701   0.76540   0.92689   0.00000  Uiso   1.00
O1008  O     0.34983   0.69489   0.96865   0.00000  Uiso   1.00
O1009  O     0.53692   0.75381   0.74701   0.00000  Uiso   1.00
O1010  O     0.55946   0.90387   0.74518   0.00000  Uiso   1.00
O1011  O     0.44054   0.76279   0.75481   0.00000  Uiso   1.00
O1012  O     0.45181   0.83784   0.81997   0.00000  Uiso   1.00
O1013  O     0.54819   0.82883   0.68002   0.00000  Uiso   1.00
O1014  O     0.54819   0.82885   0.81217   0.00000  Uiso   1.00
O1015  O     0.45181   0.83781   0.68782   0.00000  Uiso   1.00
O1016  O     0.43812   0.69103   0.58474   0.00000  Uiso   1.00
S1017  S     0.43805   0.73539   0.61859   0.00000  Uiso   1.00
S1018  S     0.60896   0.89224   0.88186   0.00000  Uiso   1.00
Zn1019 Zn    0.43565   0.83933   0.75521   0.00000  Uiso   1.00
Zn1020 Zn    0.56435   0.82734   0.74479   0.00000  Uiso   1.00
C1021  C     0.84849   0.93155   0.74913   0.00000  Uiso   1.00
C1022  C     0.87507   0.86943   0.90845   0.00000  Uiso   1.00
C1023  C     0.82874   0.83328   0.61600   0.00000  Uiso   1.00
C1024  C     0.83622   0.83607   0.88504   0.00000  Uiso   1.00
C1025  C     0.85642   0.87585   0.59472   0.00000  Uiso   1.00
C1026  C     0.79186   0.80708   0.90764   0.00000  Uiso   1.00
C1027  C     0.85586   0.87987   0.54846   0.00000  Uiso   1.00
C1028  C     0.78552   0.80901   0.95411   0.00000  Uiso   1.00
C1029  C     0.82153   0.84265   0.52460   0.00000  Uiso   1.00
C1030  C     0.82271   0.84360   0.97777   0.00000  Uiso   1.00
C1031  C     0.78774   0.80303   0.54726   0.00000  Uiso   1.00
C1032  C     0.81828   0.73518   0.75230   0.00000  Uiso   1.00
C1033  C     0.86289   0.87778   0.95466   0.00000  Uiso   1.00
C1034  C     0.88678   0.92073   0.52527   0.00000  Uiso   1.00
C1035  C     0.74388   0.77664   0.97766   0.00000  Uiso   1.00
C1036  C     0.91846   0.96472   0.54782   0.00000  Uiso   1.00
C1037  C     0.69739   0.74585   0.95551   0.00000  Uiso   1.00
C1038  C     0.88892   0.91945   0.97852   0.00000  Uiso   1.00
C1039  C     0.74667   0.77283   0.52390   0.00000  Uiso   1.00
C1040  C     0.85661   0.98594   0.74923   0.00000  Uiso   1.00
C1041  C     0.81025   0.68082   0.75366   0.00000  Uiso   1.00
C1042  C     0.83484   0.83484   0.83672   0.00000  Uiso   1.00
C1043  C     0.83189   0.83217   0.66357   0.00000  Uiso   1.00
C1044  C     0.79583   0.79509   0.59269   0.00000  Uiso   1.00
H1045  H     0.87902   0.90500   0.61490   0.00000  Uiso   1.00
H1046  H     0.96790   0.95054   0.83267   0.00000  Uiso   1.00
H1047  H     0.93409   0.70919   0.55288   0.00000  Uiso   1.00
H1048  H     0.98430   0.67820   0.95092   0.00000  Uiso   1.00
H1049  H     0.76434   0.78082   0.88832   0.00000  Uiso   1.00
H1050  H     0.91036   0.95163   0.96090   0.00000  Uiso   1.00
H1051  H     0.71496   0.74753   0.54166   0.00000  Uiso   1.00
H1052  H     0.90055   0.66928   0.74534   0.00000  Uiso   1.00
H1053  H     0.76632   0.99748   0.75762   0.00000  Uiso   1.00
H1054  H     0.67086   0.79216   0.71792   0.00000  Uiso   1.00
H1055  H     0.99609   0.87558   0.78094   0.00000  Uiso   1.00
H1056  H     0.69408   0.70826   0.65634   0.00000  Uiso   1.00
N1057  N     0.98344   0.81932   0.73783   0.00000  Uiso   1.00
N1058  N     0.68322   0.84735   0.76217   0.00000  Uiso   1.00
O1059  O     0.79642   0.91286   0.75298   0.00000  Uiso   1.00
O1060  O     0.81023   0.72295   0.65488   0.00000  Uiso   1.00
O1061  O     0.70403   0.74138   0.64079   0.00000  Uiso   1.00
O1062  O     0.98327   0.91724   0.91421   0.00000  Uiso   1.00
O1063  O     0.97117   0.84653   0.86008   0.00000  Uiso   1.00
O1064  O     0.92946   0.93520   0.84258   0.00000  Uiso   1.00
O1065  O     0.95364   0.95655   0.57540   0.00000  Uiso   1.00
O1066  O     0.90974   0.68239   0.53575   0.00000  Uiso   1.00
O1067  O     0.67034   0.76540   0.92689   0.00000  Uiso   1.00
O1068  O     0.68316   0.69489   0.96865   0.00000  Uiso   1.00
O1069  O     0.87025   0.75381   0.74701   0.00000  Uiso   1.00
O1070  O     0.89280   0.90387   0.74518   0.00000  Uiso   1.00
O1071  O     0.77387   0.76279   0.75481   0.00000  Uiso   1.00
O1072  O     0.78514   0.83784   0.81997   0.00000  Uiso   1.00
O1073  O     0.88153   0.82883   0.68002   0.00000  Uiso   1.00
O1074  O     0.88152   0.82885   0.81217   0.00000  Uiso   1.00
O1075  O     0.78515   0.83781   0.68782   0.00000  Uiso   1.00
O1076  O     0.77145   0.69103   0.58474   0.00000  Uiso   1.00
S1077  S     0.77138   0.73539   0.61859   0.00000  Uiso   1.00
S1078  S     0.94230   0.89224   0.88186   0.00000  Uiso   1.00
Zn1079 Zn    0.76898   0.83933   0.75521   0.00000  Uiso   1.00
Zn1080 Zn    0.89769   0.82734   0.74479   0.00000  Uiso   1.00
loop_
_geom_bond_atom_site_label_1
_geom_bond_atom_site_label_2
_geom_bond_distance
_geom_bond_site_symmetry_2
_ccdc_geom_bond_type
C1     O50     1.284   .     A
C1     O39     1.279   .     A
C1     C20     1.402   .     S
C2     C4      1.412   .     A
C2     S58     1.790   .     S
C2     C13     1.406   .     A
C3     C23     1.426   .     S
C3     C24     1.406   .     A
C3     C5      1.390   .     A
C4     C22     1.443   .     S
C4     C6      1.393   .     A
C5     H25     1.082   .     S
C5     C7      1.388   .     A
C6     H29     1.083   .     S
C6     C8      1.386   .     A
C7     C9      1.416   .     A
C7     C14     1.415   .     A
C8     C10     1.410   .     A
C8     C15     1.411   .     A
C9     C11     1.415   .     A
C9     C550    1.397   1_554 S
C10    C13     1.411   .     A
C10    C549    1.397   .     S
C11    C19     1.403   .     A
C11    C24     1.401   .     A
C12    O49     1.279   .     A
C12    C21     1.402   .     S
C12    O51     1.284   .     A
C13    C18     1.400   .     A
C14    C16     1.483   .     S
C14    C558    1.392   1_554 S
C15    C17     1.481   .     S
C15    C559    1.391   .     S
C16    O45     1.223   .     D
C16    O226    1.398   .     S
C17    O48     1.395   .     S
C17    O47     1.223   .     D
C18    H30     1.077   .     S
C18    C554    1.392   .     S
C19    H31     1.082   .     S
C19    C555    1.391   1_554 S
C20    C201    1.332   .     S
C20    H212    1.088   .     S
C21    C380    1.332   1_545 S
C21    H393    1.088   1_545 S
C22    O54     1.290   .     A
C22    O52     1.292   .     A
C23    O55     1.285   .     A
C23    O53     1.288   .     A
C24    S57     1.788   .     S
H26    O44     0.990   .     S
H27    O46     1.014   .     S
H28    O108    1.011   .     S
H32    C380    1.088   1_545 S
H33    C201    1.088   .     S
H34    N157    1.029   1_455 S
H35    N98     1.027   .     S
H36    O41     0.991   .     S
N37    Zn60    2.016   .     S
N37    H94     1.029   .     S
N37    N98     1.271   .     S
N38    Zn59    2.016   .     S
N38    H155    1.027   1_455 S
N38    N157    1.271   1_455 S
O39    Zn59    1.965   .     S
O40    S57     1.500   .     D
O41    S57     1.681   .     S
O42    S58     1.502   .     D
O43    S58     1.502   .     D
O44    S58     1.682   .     S
O46    C376    1.398   1_545 S
O48    H148    1.011   1_455 S
O49    Zn60    1.965   .     S
O50    Zn60    1.979   .     S
O51    Zn59    1.979   .     S
O52    Zn59    1.991   .     S
O53    Zn60    1.991   .     S
O54    Zn60    2.024   .     S
O55    Zn59    2.024   .     S
O56    S57     1.504   .     D
C61    O110    1.284   .     A
C61    O99     1.279   .     A
C61    C80     1.402   .     S
C62    C64     1.412   .     A
C62    S118    1.790   .     S
C62    C73     1.406   .     A
C63    C83     1.426   .     S
C63    C84     1.406   .     A
C63    C65     1.390   .     A
C64    C82     1.443   .     S
C64    C66     1.393   .     A
C65    H85     1.082   .     S
C65    C67     1.388   .     A
C66    H89     1.083   .     S
C66    C68     1.386   .     A
C67    C69     1.416   .     A
C67    C74     1.415   .     A
C68    C70     1.410   .     A
C68    C75     1.411   .     A
C69    C71     1.415   .     A
C69    C610    1.397   1_554 S
C70    C73     1.411   .     A
C70    C609    1.397   .     S
C71    C79     1.403   .     A
C71    C84     1.401   .     A
C72    O109    1.279   .     A
C72    C81     1.402   .     S
C72    O111    1.284   .     A
C73    C78     1.400   .     A
C74    C76     1.483   .     S
C74    C618    1.392   1_554 S
C75    C77     1.481   .     S
C75    C619    1.391   .     S
C76    O105    1.223   .     D
C76    O286    1.398   .     S
C77    O108    1.395   .     S
C77    O107    1.223   .     D
C78    H90     1.077   .     S
C78    C614    1.392   .     S
C79    H91     1.082   .     S
C79    C615    1.391   1_554 S
C80    C261    1.332   .     S
C80    H272    1.088   .     S
C81    C440    1.332   1_545 S
C81    H453    1.088   1_545 S
C82    O114    1.290   .     A
C82    O112    1.292   .     A
C83    O115    1.285   .     A
C83    O113    1.288   .     A
C84    S117    1.788   .     S
H86    O104    0.990   .     S
H87    O106    1.014   .     S
H88    O168    1.011   .     S
H92    C440    1.088   1_545 S
H93    C261    1.088   .     S
H95    N158    1.027   .     S
H96    O101    0.991   .     S
N97    Zn120   2.016   .     S
N97    H154    1.029   .     S
N97    N158    1.271   .     S
N98    Zn119   2.016   .     S
O99    Zn119   1.965   .     S
O100   S117    1.500   .     D
O101   S117    1.681   .     S
O102   S118    1.502   .     D
O103   S118    1.502   .     D
O104   S118    1.682   .     S
O106   C436    1.398   1_545 S
O109   Zn120   1.965   .     S
O110   Zn120   1.979   .     S
O111   Zn119   1.979   .     S
O112   Zn119   1.991   .     S
O113   Zn120   1.991   .     S
O114   Zn120   2.024   .     S
O115   Zn119   2.024   .     S
O116   S117    1.504   .     D
C121   O170    1.284   .     A
C121   O159    1.279   .     A
C121   C140    1.402   .     S
C122   C124    1.412   .     A
C122   S178    1.790   .     S
C122   C133    1.406   .     A
C123   C143    1.426   .     S
C123   C144    1.406   .     A
C123   C125    1.390   .     A
C124   C142    1.443   .     S
C124   C126    1.393   .     A
C125   H145    1.082   .     S
C125   C127    1.388   .     A
C126   H149    1.083   .     S
C126   C128    1.386   .     A
C127   C129    1.416   .     A
C127   C134    1.415   .     A
C128   C130    1.410   .     A
C128   C135    1.411   .     A
C129   C131    1.415   .     A
C129   C670    1.397   1_554 S
C130   C133    1.411   .     A
C130   C669    1.397   .     S
C131   C139    1.403   .     A
C131   C144    1.401   .     A
C132   O169    1.279   .     A
C132   C141    1.402   .     S
C132   O171    1.284   .     A
C133   C138    1.400   .     A
C134   C136    1.483   .     S
C134   C678    1.392   1_554 S
C135   C137    1.481   .     S
C135   C679    1.391   .     S
C136   O165    1.223   .     D
C136   O346    1.398   .     S
C137   O168    1.395   .     S
C137   O167    1.223   .     D
C138   H150    1.077   .     S
C138   C674    1.392   .     S
C139   H151    1.082   .     S
C139   C675    1.391   1_554 S
C140   C321    1.332   .     S
C140   H332    1.088   .     S
C141   C500    1.332   1_545 S
C141   H513    1.088   1_545 S
C142   O174    1.290   .     A
C142   O172    1.292   .     A
C143   O175    1.285   .     A
C143   O173    1.288   .     A
C144   S177    1.788   .     S
H146   O164    0.990   .     S
H147   O166    1.014   .     S
H148   O48     1.011   1_655 S
H152   C500    1.088   1_545 S
H153   C321    1.088   .     S
H155   N38     1.027   1_655 S
H156   O161    0.991   .     S
N157   Zn180   2.016   .     S
N157   H34     1.029   1_655 S
N157   N38     1.271   1_655 S
N158   Zn179   2.016   .     S
O159   Zn179   1.965   .     S
O160   S177    1.500   .     D
O161   S177    1.681   .     S
O162   S178    1.502   .     D
O163   S178    1.502   .     D
O164   S178    1.682   .     S
O166   C496    1.398   1_545 S
O169   Zn180   1.965   .     S
O170   Zn180   1.979   .     S
O171   Zn179   1.979   .     S
O172   Zn179   1.991   .     S
O173   Zn180   1.991   .     S
O174   Zn180   2.024   .     S
O175   Zn179   2.024   .     S
O176   S177    1.504   .     D
C181   O230    1.284   .     A
C181   O219    1.279   .     A
C181   C200    1.402   .     S
C182   C184    1.412   .     A
C182   S238    1.790   .     S
C182   C193    1.406   .     A
C183   C203    1.426   .     S
C183   C204    1.406   .     A
C183   C185    1.390   .     A
C184   C202    1.443   .     S
C184   C186    1.393   .     A
C185   H205    1.082   .     S
C185   C187    1.388   .     A
C186   H209    1.083   .     S
C186   C188    1.386   .     A
C187   C189    1.416   .     A
C187   C194    1.415   .     A
C188   C190    1.410   .     A
C188   C195    1.411   .     A
C189   C191    1.415   .     A
C189   C730    1.397   1_554 S
C190   C193    1.411   .     A
C190   C729    1.397   .     S
C191   C199    1.403   .     A
C191   C204    1.401   .     A
C192   O229    1.279   .     A
C192   C201    1.402   .     S
C192   O231    1.284   .     A
C193   C198    1.400   .     A
C194   C196    1.483   .     S
C194   C738    1.392   1_554 S
C195   C197    1.481   .     S
C195   C739    1.391   .     S
C196   O225    1.223   .     D
C196   O406    1.398   .     S
C197   O228    1.395   .     S
C197   O227    1.223   .     D
C198   H210    1.077   .     S
C198   C734    1.392   .     S
C199   H211    1.082   .     S
C199   C735    1.391   1_554 S
C200   C381    1.332   .     S
C200   H392    1.088   .     S
C202   O234    1.290   .     A
C202   O232    1.292   .     A
C203   O235    1.285   .     A
C203   O233    1.288   .     A
C204   S237    1.788   .     S
H206   O224    0.990   .     S
H207   O226    1.014   .     S
H208   O288    1.011   .     S
H213   C381    1.088   .     S
H214   N337    1.029   1_455 S
H215   N278    1.027   .     S
H216   O221    0.991   .     S
N217   Zn240   2.016   .     S
N217   H274    1.029   .     S
N217   N278    1.271   .     S
N218   Zn239   2.016   .     S
N218   H335    1.027   1_455 S
N218   N337    1.271   1_455 S
O219   Zn239   1.965   .     S
O220   S237    1.500   .     D
O221   S237    1.681   .     S
O222   S238    1.502   .     D
O223   S238    1.502   .     D
O224   S238    1.682   .     S
O228   H328    1.011   1_455 S
O229   Zn240   1.965   .     S
O230   Zn240   1.979   .     S
O231   Zn239   1.979   .     S
O232   Zn239   1.991   .     S
O233   Zn240   1.991   .     S
O234   Zn240   2.024   .     S
O235   Zn239   2.024   .     S
O236   S237    1.504   .     D
C241   O290    1.284   .     A
C241   O279    1.279   .     A
C241   C260    1.402   .     S
C242   C244    1.412   .     A
C242   S298    1.790   .     S
C242   C253    1.406   .     A
C243   C263    1.426   .     S
C243   C264    1.406   .     A
C243   C245    1.390   .     A
C244   C262    1.443   .     S
C244   C246    1.393   .     A
C245   H265    1.082   .     S
C245   C247    1.388   .     A
C246   H269    1.083   .     S
C246   C248    1.386   .     A
C247   C249    1.416   .     A
C247   C254    1.415   .     A
C248   C250    1.410   .     A
C248   C255    1.411   .     A
C249   C251    1.415   .     A
C249   C790    1.397   1_554 S
C250   C253    1.411   .     A
C250   C789    1.397   .     S
C251   C259    1.403   .     A
C251   C264    1.401   .     A
C252   O289    1.279   .     A
C252   C261    1.402   .     S
C252   O291    1.284   .     A
C253   C258    1.400   .     A
C254   C256    1.483   .     S
C254   C798    1.392   1_554 S
C255   C257    1.481   .     S
C255   C799    1.391   .     S
C256   O285    1.223   .     D
C256   O466    1.398   .     S
C257   O288    1.395   .     S
C257   O287    1.223   .     D
C258   H270    1.077   .     S
C258   C794    1.392   .     S
C259   H271    1.082   .     S
C259   C795    1.391   1_554 S
C260   C441    1.332   .     S
C260   H452    1.088   .     S
C262   O294    1.290   .     A
C262   O292    1.292   .     A
C263   O295    1.285   .     A
C263   O293    1.288   .     A
C264   S297    1.788   .     S
H266   O284    0.990   .     S
H267   O286    1.014   .     S
H268   O348    1.011   .     S
H273   C441    1.088   .     S
H275   N338    1.027   .     S
H276   O281    0.991   .     S
N277   Zn300   2.016   .     S
N277   H334    1.029   .     S
N277   N338    1.271   .     S
N278   Zn299   2.016   .     S
O279   Zn299   1.965   .     S
O280   S297    1.500   .     D
O281   S297    1.681   .     S
O282   S298    1.502   .     D
O283   S298    1.502   .     D
O284   S298    1.682   .     S
O289   Zn300   1.965   .     S
O290   Zn300   1.979   .     S
O291   Zn299   1.979   .     S
O292   Zn299   1.991   .     S
O293   Zn300   1.991   .     S
O294   Zn300   2.024   .     S
O295   Zn299   2.024   .     S
O296   S297    1.504   .     D
C301   O350    1.284   .     A
C301   O339    1.279   .     A
C301   C320    1.402   .     S
C302   C304    1.412   .     A
C302   S358    1.790   .     S
C302   C313    1.406   .     A
C303   C323    1.426   .     S
C303   C324    1.406   .     A
C303   C305    1.390   .     A
C304   C322    1.443   .     S
C304   C306    1.393   .     A
C305   H325    1.082   .     S
C305   C307    1.388   .     A
C306   H329    1.083   .     S
C306   C308    1.386   .     A
C307   C309    1.416   .     A
C307   C314    1.415   .     A
C308   C310    1.410   .     A
C308   C315    1.411   .     A
C309   C311    1.415   .     A
C309   C850    1.397   1_554 S
C310   C313    1.411   .     A
C310   C849    1.397   .     S
C311   C319    1.403   .     A
C311   C324    1.401   .     A
C312   O349    1.279   .     A
C312   C321    1.402   .     S
C312   O351    1.284   .     A
C313   C318    1.400   .     A
C314   C316    1.483   .     S
C314   C858    1.392   1_554 S
C315   C317    1.481   .     S
C315   C859    1.391   .     S
C316   O345    1.223   .     D
C316   O526    1.398   .     S
C317   O348    1.395   .     S
C317   O347    1.223   .     D
C318   H330    1.077   .     S
C318   C854    1.392   .     S
C319   H331    1.082   .     S
C319   C855    1.391   1_554 S
C320   C501    1.332   .     S
C320   H512    1.088   .     S
C322   O354    1.290   .     A
C322   O352    1.292   .     A
C323   O355    1.285   .     A
C323   O353    1.288   .     A
C324   S357    1.788   .     S
H326   O344    0.990   .     S
H327   O346    1.014   .     S
H328   O228    1.011   1_655 S
H333   C501    1.088   .     S
H335   N218    1.027   1_655 S
H336   O341    0.991   .     S
N337   Zn360   2.016   .     S
N337   H214    1.029   1_655 S
N337   N218    1.271   1_655 S
N338   Zn359   2.016   .     S
O339   Zn359   1.965   .     S
O340   S357    1.500   .     D
O341   S357    1.681   .     S
O342   S358    1.502   .     D
O343   S358    1.502   .     D
O344   S358    1.682   .     S
O349   Zn360   1.965   .     S
O350   Zn360   1.979   .     S
O351   Zn359   1.979   .     S
O352   Zn359   1.991   .     S
O353   Zn360   1.991   .     S
O354   Zn360   2.024   .     S
O355   Zn359   2.024   .     S
O356   S357    1.504   .     D
C361   O410    1.284   .     A
C361   O399    1.279   .     A
C361   C380    1.402   .     S
C362   C364    1.412   .     A
C362   S418    1.790   .     S
C362   C373    1.406   .     A
C363   C383    1.426   .     S
C363   C384    1.406   .     A
C363   C365    1.390   .     A
C364   C382    1.443   .     S
C364   C366    1.393   .     A
C365   H385    1.082   .     S
C365   C367    1.388   .     A
C366   H389    1.083   .     S
C366   C368    1.386   .     A
C367   C369    1.416   .     A
C367   C374    1.415   .     A
C368   C370    1.410   .     A
C368   C375    1.411   .     A
C369   C371    1.415   .     A
C369   C910    1.397   1_554 S
C370   C373    1.411   .     A
C370   C909    1.397   .     S
C371   C379    1.403   .     A
C371   C384    1.401   .     A
C372   O409    1.279   .     A
C372   C381    1.402   .     S
C372   O411    1.284   .     A
C373   C378    1.400   .     A
C374   C376    1.483   .     S
C374   C918    1.392   1_554 S
C375   C377    1.481   .     S
C375   C919    1.391   .     S
C376   O405    1.223   .     D
C376   O46     1.398   1_565 S
C377   O408    1.395   .     S
C377   O407    1.223   .     D
C378   H390    1.077   .     S
C378   C914    1.392   .     S
C379   H391    1.082   .     S
C379   C915    1.391   1_554 S
C380   C21     1.332   1_565 S
C380   H32     1.088   1_565 S
C382   O414    1.290   .     A
C382   O412    1.292   .     A
C383   O415    1.285   .     A
C383   O413    1.288   .     A
C384   S417    1.788   .     S
H386   O404    0.990   .     S
H387   O406    1.014   .     S
H388   O468    1.011   .     S
H393   C21     1.088   1_565 S
H394   N517    1.029   1_455 S
H395   N458    1.027   .     S
H396   O401    0.991   .     S
N397   Zn420   2.016   .     S
N397   H454    1.029   .     S
N397   N458    1.271   .     S
N398   Zn419   2.016   .     S
N398   H515    1.027   1_455 S
N398   N517    1.271   1_455 S
O399   Zn419   1.965   .     S
O400   S417    1.500   .     D
O401   S417    1.681   .     S
O402   S418    1.502   .     D
O403   S418    1.502   .     D
O404   S418    1.682   .     S
O408   H508    1.011   1_455 S
O409   Zn420   1.965   .     S
O410   Zn420   1.979   .     S
O411   Zn419   1.979   .     S
O412   Zn419   1.991   .     S
O413   Zn420   1.991   .     S
O414   Zn420   2.024   .     S
O415   Zn419   2.024   .     S
O416   S417    1.504   .     D
C421   O470    1.284   .     A
C421   O459    1.279   .     A
C421   C440    1.402   .     S
C422   C424    1.412   .     A
C422   S478    1.790   .     S
C422   C433    1.406   .     A
C423   C443    1.426   .     S
C423   C444    1.406   .     A
C423   C425    1.390   .     A
C424   C442    1.443   .     S
C424   C426    1.393   .     A
C425   H445    1.082   .     S
C425   C427    1.388   .     A
C426   H449    1.083   .     S
C426   C428    1.386   .     A
C427   C429    1.416   .     A
C427   C434    1.415   .     A
C428   C430    1.410   .     A
C428   C435    1.411   .     A
C429   C431    1.415   .     A
C429   C970    1.397   1_554 S
C430   C433    1.411   .     A
C430   C969    1.397   .     S
C431   C439    1.403   .     A
C431   C444    1.401   .     A
C432   O469    1.279   .     A
C432   C441    1.402   .     S
C432   O471    1.284   .     A
C433   C438    1.400   .     A
C434   C436    1.483   .     S
C434   C978    1.392   1_554 S
C435   C437    1.481   .     S
C435   C979    1.391   .     S
C436   O465    1.223   .     D
C436   O106    1.398   1_565 S
C437   O468    1.395   .     S
C437   O467    1.223   .     D
C438   H450    1.077   .     S
C438   C974    1.392   .     S
C439   H451    1.082   .     S
C439   C975    1.391   1_554 S
C440   C81     1.332   1_565 S
C440   H92     1.088   1_565 S
C442   O474    1.290   .     A
C442   O472    1.292   .     A
C443   O475    1.285   .     A
C443   O473    1.288   .     A
C444   S477    1.788   .     S
H446   O464    0.990   .     S
H447   O466    1.014   .     S
H448   O528    1.011   .     S
H453   C81     1.088   1_565 S
H455   N518    1.027   .     S
H456   O461    0.991   .     S
N457   Zn480   2.016   .     S
N457   H514    1.029   .     S
N457   N518    1.271   .     S
N458   Zn479   2.016   .     S
O459   Zn479   1.965   .     S
O460   S477    1.500   .     D
O461   S477    1.681   .     S
O462   S478    1.502   .     D
O463   S478    1.502   .     D
O464   S478    1.682   .     S
O469   Zn480   1.965   .     S
O470   Zn480   1.979   .     S
O471   Zn479   1.979   .     S
O472   Zn479   1.991   .     S
O473   Zn480   1.991   .     S
O474   Zn480   2.024   .     S
O475   Zn479   2.024   .     S
O476   S477    1.504   .     D
C481   O530    1.284   .     A
C481   O519    1.279   .     A
C481   C500    1.402   .     S
C482   C484    1.412   .     A
C482   S538    1.790   .     S
C482   C493    1.406   .     A
C483   C503    1.426   .     S
C483   C504    1.406   .     A
C483   C485    1.390   .     A
C484   C502    1.443   .     S
C484   C486    1.393   .     A
C485   H505    1.082   .     S
C485   C487    1.388   .     A
C486   H509    1.083   .     S
C486   C488    1.386   .     A
C487   C489    1.416   .     A
C487   C494    1.415   .     A
C488   C490    1.410   .     A
C488   C495    1.411   .     A
C489   C491    1.415   .     A
C489   C1030   1.397   1_554 S
C490   C493    1.411   .     A
C490   C1029   1.397   .     S
C491   C499    1.403   .     A
C491   C504    1.401   .     A
C492   O529    1.279   .     A
C492   C501    1.402   .     S
C492   O531    1.284   .     A
C493   C498    1.400   .     A
C494   C496    1.483   .     S
C494   C1038   1.392   1_554 S
C495   C497    1.481   .     S
C495   C1039   1.391   .     S
C496   O525    1.223   .     D
C496   O166    1.398   1_565 S
C497   O528    1.395   .     S
C497   O527    1.223   .     D
C498   H510    1.077   .     S
C498   C1034   1.392   .     S
C499   H511    1.082   .     S
C499   C1035   1.391   1_554 S
C500   C141    1.332   1_565 S
C500   H152    1.088   1_565 S
C502   O534    1.290   .     A
C502   O532    1.292   .     A
C503   O535    1.285   .     A
C503   O533    1.288   .     A
C504   S537    1.788   .     S
H506   O524    0.990   .     S
H507   O526    1.014   .     S
H508   O408    1.011   1_655 S
H513   C141    1.088   1_565 S
H515   N398    1.027   1_655 S
H516   O521    0.991   .     S
N517   Zn540   2.016   .     S
N517   H394    1.029   1_655 S
N517   N398    1.271   1_655 S
N518   Zn539   2.016   .     S
O519   Zn539   1.965   .     S
O520   S537    1.500   .     D
O521   S537    1.681   .     S
O522   S538    1.502   .     D
O523   S538    1.502   .     D
O524   S538    1.682   .     S
O529   Zn540   1.965   .     S
O530   Zn540   1.979   .     S
O531   Zn539   1.979   .     S
O532   Zn539   1.991   .     S
O533   Zn540   1.991   .     S
O534   Zn540   2.024   .     S
O535   Zn539   2.024   .     S
O536   S537    1.504   .     D
C541   O590    1.284   .     A
C541   O579    1.279   .     A
C541   C560    1.402   .     S
C542   C544    1.412   .     A
C542   S598    1.790   .     S
C542   C553    1.406   .     A
C543   C563    1.426   .     S
C543   C564    1.406   .     A
C543   C545    1.390   .     A
C544   C562    1.443   .     S
C544   C546    1.393   .     A
C545   H565    1.082   .     S
C545   C547    1.388   .     A
C546   H569    1.083   .     S
C546   C548    1.386   .     A
C547   C549    1.416   .     A
C547   C554    1.415   .     A
C548   C550    1.410   .     A
C548   C555    1.411   .     A
C549   C551    1.415   .     A
C550   C553    1.411   .     A
C550   C9      1.397   1_556 S
C551   C559    1.403   .     A
C551   C564    1.401   .     A
C552   O589    1.279   .     A
C552   C561    1.402   .     S
C552   O591    1.284   .     A
C553   C558    1.400   .     A
C554   C556    1.483   .     S
C555   C557    1.481   .     S
C555   C19     1.391   1_556 S
C556   O585    1.223   .     D
C556   O766    1.398   .     S
C557   O588    1.395   .     S
C557   O587    1.223   .     D
C558   H570    1.077   .     S
C558   C14     1.392   1_556 S
C559   H571    1.082   .     S
C560   C741    1.332   .     S
C560   H752    1.088   .     S
C561   C920    1.332   1_545 S
C561   H933    1.088   1_545 S
C562   O594    1.290   .     A
C562   O592    1.292   .     A
C563   O595    1.285   .     A
C563   O593    1.288   .     A
C564   S597    1.788   .     S
H566   O584    0.990   .     S
H567   O586    1.014   .     S
H568   O648    1.011   .     S
H572   C920    1.088   1_545 S
H573   C741    1.088   .     S
H574   N697    1.029   1_455 S
H575   N638    1.027   .     S
H576   O581    0.991   .     S
N577   Zn600   2.016   .     S
N577   H634    1.029   .     S
N577   N638    1.271   .     S
N578   Zn599   2.016   .     S
N578   H695    1.027   1_455 S
N578   N697    1.271   1_455 S
O579   Zn599   1.965   .     S
O580   S597    1.500   .     D
O581   S597    1.681   .     S
O582   S598    1.502   .     D
O583   S598    1.502   .     D
O584   S598    1.682   .     S
O586   C916    1.398   1_545 S
O588   H688    1.011   1_455 S
O589   Zn600   1.965   .     S
O590   Zn600   1.979   .     S
O591   Zn599   1.979   .     S
O592   Zn599   1.991   .     S
O593   Zn600   1.991   .     S
O594   Zn600   2.024   .     S
O595   Zn599   2.024   .     S
O596   S597    1.504   .     D
C601   O650    1.284   .     A
C601   O639    1.279   .     A
C601   C620    1.402   .     S
C602   C604    1.412   .     A
C602   S658    1.790   .     S
C602   C613    1.406   .     A
C603   C623    1.426   .     S
C603   C624    1.406   .     A
C603   C605    1.390   .     A
C604   C622    1.443   .     S
C604   C606    1.393   .     A
C605   H625    1.082   .     S
C605   C607    1.388   .     A
C606   H629    1.083   .     S
C606   C608    1.386   .     A
C607   C609    1.416   .     A
C607   C614    1.415   .     A
C608   C610    1.410   .     A
C608   C615    1.411   .     A
C609   C611    1.415   .     A
C610   C613    1.411   .     A
C610   C69     1.397   1_556 S
C611   C619    1.403   .     A
C611   C624    1.401   .     A
C612   O649    1.279   .     A
C612   C621    1.402   .     S
C612   O651    1.284   .     A
C613   C618    1.400   .     A
C614   C616    1.483   .     S
C615   C617    1.481   .     S
C615   C79     1.391   1_556 S
C616   O645    1.223   .     D
C616   O826    1.398   .     S
C617   O648    1.395   .     S
C617   O647    1.223   .     D
C618   H630    1.077   .     S
C618   C74     1.392   1_556 S
C619   H631    1.082   .     S
C620   C801    1.332   .     S
C620   H812    1.088   .     S
C621   C980    1.332   1_545 S
C621   H993    1.088   1_545 S
C622   O654    1.290   .     A
C622   O652    1.292   .     A
C623   O655    1.285   .     A
C623   O653    1.288   .     A
C624   S657    1.788   .     S
H626   O644    0.990   .     S
H627   O646    1.014   .     S
H628   O708    1.011   .     S
H632   C980    1.088   1_545 S
H633   C801    1.088   .     S
H635   N698    1.027   .     S
H636   O641    0.991   .     S
N637   Zn660   2.016   .     S
N637   H694    1.029   .     S
N637   N698    1.271   .     S
N638   Zn659   2.016   .     S
O639   Zn659   1.965   .     S
O640   S657    1.500   .     D
O641   S657    1.681   .     S
O642   S658    1.502   .     D
O643   S658    1.502   .     D
O644   S658    1.682   .     S
O646   C976    1.398   1_545 S
O649   Zn660   1.965   .     S
O650   Zn660   1.979   .     S
O651   Zn659   1.979   .     S
O652   Zn659   1.991   .     S
O653   Zn660   1.991   .     S
O654   Zn660   2.024   .     S
O655   Zn659   2.024   .     S
O656   S657    1.504   .     D
C661   O710    1.284   .     A
C661   O699    1.279   .     A
C661   C680    1.402   .     S
C662   C664    1.412   .     A
C662   S718    1.790   .     S
C662   C673    1.406   .     A
C663   C683    1.426   .     S
C663   C684    1.406   .     A
C663   C665    1.390   .     A
C664   C682    1.443   .     S
C664   C666    1.393   .     A
C665   H685    1.082   .     S
C665   C667    1.388   .     A
C666   H689    1.083   .     S
C666   C668    1.386   .     A
C667   C669    1.416   .     A
C667   C674    1.415   .     A
C668   C670    1.410   .     A
C668   C675    1.411   .     A
C669   C671    1.415   .     A
C670   C673    1.411   .     A
C670   C129    1.397   1_556 S
C671   C679    1.403   .     A
C671   C684    1.401   .     A
C672   O709    1.279   .     A
C672   C681    1.402   .     S
C672   O711    1.284   .     A
C673   C678    1.400   .     A
C674   C676    1.483   .     S
C675   C677    1.481   .     S
C675   C139    1.391   1_556 S
C676   O705    1.223   .     D
C676   O886    1.398   .     S
C677   O708    1.395   .     S
C677   O707    1.223   .     D
C678   H690    1.077   .     S
C678   C134    1.392   1_556 S
C679   H691    1.082   .     S
C680   C861    1.332   .     S
C680   H872    1.088   .     S
C681   C1040   1.332   1_545 S
C681   H1053   1.088   1_545 S
C682   O714    1.290   .     A
C682   O712    1.292   .     A
C683   O715    1.285   .     A
C683   O713    1.288   .     A
C684   S717    1.788   .     S
H686   O704    0.990   .     S
H687   O706    1.014   .     S
H688   O588    1.011   1_655 S
H692   C1040   1.088   1_545 S
H693   C861    1.088   .     S
H695   N578    1.027   1_655 S
H696   O701    0.991   .     S
N697   Zn720   2.016   .     S
N697   H574    1.029   1_655 S
N697   N578    1.271   1_655 S
N698   Zn719   2.016   .     S
O699   Zn719   1.965   .     S
O700   S717    1.500   .     D
O701   S717    1.681   .     S
O702   S718    1.502   .     D
O703   S718    1.502   .     D
O704   S718    1.682   .     S
O706   C1036   1.398   1_545 S
O709   Zn720   1.965   .     S
O710   Zn720   1.979   .     S
O711   Zn719   1.979   .     S
O712   Zn719   1.991   .     S
O713   Zn720   1.991   .     S
O714   Zn720   2.024   .     S
O715   Zn719   2.024   .     S
O716   S717    1.504   .     D
C721   O770    1.284   .     A
C721   O759    1.279   .     A
C721   C740    1.402   .     S
C722   C724    1.412   .     A
C722   S778    1.790   .     S
C722   C733    1.406   .     A
C723   C743    1.426   .     S
C723   C744    1.406   .     A
C723   C725    1.390   .     A
C724   C742    1.443   .     S
C724   C726    1.393   .     A
C725   H745    1.082   .     S
C725   C727    1.388   .     A
C726   H749    1.083   .     S
C726   C728    1.386   .     A
C727   C729    1.416   .     A
C727   C734    1.415   .     A
C728   C730    1.410   .     A
C728   C735    1.411   .     A
C729   C731    1.415   .     A
C730   C733    1.411   .     A
C730   C189    1.397   1_556 S
C731   C739    1.403   .     A
C731   C744    1.401   .     A
C732   O769    1.279   .     A
C732   C741    1.402   .     S
C732   O771    1.284   .     A
C733   C738    1.400   .     A
C734   C736    1.483   .     S
C735   C737    1.481   .     S
C735   C199    1.391   1_556 S
C736   O765    1.223   .     D
C736   O946    1.398   .     S
C737   O768    1.395   .     S
C737   O767    1.223   .     D
C738   H750    1.077   .     S
C738   C194    1.392   1_556 S
C739   H751    1.082   .     S
C740   C921    1.332   .     S
C740   H932    1.088   .     S
C742   O774    1.290   .     A
C742   O772    1.292   .     A
C743   O775    1.285   .     A
C743   O773    1.288   .     A
C744   S777    1.788   .     S
H746   O764    0.990   .     S
H747   O766    1.014   .     S
H748   O828    1.011   .     S
H753   C921    1.088   .     S
H754   N877    1.029   1_455 S
H755   N818    1.027   .     S
H756   O761    0.991   .     S
N757   Zn780   2.016   .     S
N757   H814    1.029   .     S
N757   N818    1.271   .     S
N758   Zn779   2.016   .     S
N758   H875    1.027   1_455 S
N758   N877    1.271   1_455 S
O759   Zn779   1.965   .     S
O760   S777    1.500   .     D
O761   S777    1.681   .     S
O762   S778    1.502   .     D
O763   S778    1.502   .     D
O764   S778    1.682   .     S
O768   H868    1.011   1_455 S
O769   Zn780   1.965   .     S
O770   Zn780   1.979   .     S
O771   Zn779   1.979   .     S
O772   Zn779   1.991   .     S
O773   Zn780   1.991   .     S
O774   Zn780   2.024   .     S
O775   Zn779   2.024   .     S
O776   S777    1.504   .     D
C781   O830    1.284   .     A
C781   O819    1.279   .     A
C781   C800    1.402   .     S
C782   C784    1.412   .     A
C782   S838    1.790   .     S
C782   C793    1.406   .     A
C783   C803    1.426   .     S
C783   C804    1.406   .     A
C783   C785    1.390   .     A
C784   C802    1.443   .     S
C784   C786    1.393   .     A
C785   H805    1.082   .     S
C785   C787    1.388   .     A
C786   H809    1.083   .     S
C786   C788    1.386   .     A
C787   C789    1.416   .     A
C787   C794    1.415   .     A
C788   C790    1.410   .     A
C788   C795    1.411   .     A
C789   C791    1.415   .     A
C790   C793    1.411   .     A
C790   C249    1.397   1_556 S
C791   C799    1.403   .     A
C791   C804    1.401   .     A
C792   O829    1.279   .     A
C792   C801    1.402   .     S
C792   O831    1.284   .     A
C793   C798    1.400   .     A
C794   C796    1.483   .     S
C795   C797    1.481   .     S
C795   C259    1.391   1_556 S
C796   O825    1.223   .     D
C796   O1006   1.398   .     S
C797   O828    1.395   .     S
C797   O827    1.223   .     D
C798   H810    1.077   .     S
C798   C254    1.392   1_556 S
C799   H811    1.082   .     S
C800   C981    1.332   .     S
C800   H992    1.088   .     S
C802   O834    1.290   .     A
C802   O832    1.292   .     A
C803   O835    1.285   .     A
C803   O833    1.288   .     A
C804   S837    1.788   .     S
H806   O824    0.990   .     S
H807   O826    1.014   .     S
H808   O888    1.011   .     S
H813   C981    1.088   .     S
H815   N878    1.027   .     S
H816   O821    0.991   .     S
N817   Zn840   2.016   .     S
N817   H874    1.029   .     S
N817   N878    1.271   .     S
N818   Zn839   2.016   .     S
O819   Zn839   1.965   .     S
O820   S837    1.500   .     D
O821   S837    1.681   .     S
O822   S838    1.502   .     D
O823   S838    1.502   .     D
O824   S838    1.682   .     S
O829   Zn840   1.965   .     S
O830   Zn840   1.979   .     S
O831   Zn839   1.979   .     S
O832   Zn839   1.991   .     S
O833   Zn840   1.991   .     S
O834   Zn840   2.024   .     S
O835   Zn839   2.024   .     S
O836   S837    1.504   .     D
C841   O890    1.284   .     A
C841   O879    1.279   .     A
C841   C860    1.402   .     S
C842   C844    1.412   .     A
C842   S898    1.790   .     S
C842   C853    1.406   .     A
C843   C863    1.426   .     S
C843   C864    1.406   .     A
C843   C845    1.390   .     A
C844   C862    1.443   .     S
C844   C846    1.393   .     A
C845   H865    1.082   .     S
C845   C847    1.388   .     A
C846   H869    1.083   .     S
C846   C848    1.386   .     A
C847   C849    1.416   .     A
C847   C854    1.415   .     A
C848   C850    1.410   .     A
C848   C855    1.411   .     A
C849   C851    1.415   .     A
C850   C853    1.411   .     A
C850   C309    1.397   1_556 S
C851   C859    1.403   .     A
C851   C864    1.401   .     A
C852   O889    1.279   .     A
C852   C861    1.402   .     S
C852   O891    1.284   .     A
C853   C858    1.400   .     A
C854   C856    1.483   .     S
C855   C857    1.481   .     S
C855   C319    1.391   1_556 S
C856   O885    1.223   .     D
C856   O1066   1.398   .     S
C857   O888    1.395   .     S
C857   O887    1.223   .     D
C858   H870    1.077   .     S
C858   C314    1.392   1_556 S
C859   H871    1.082   .     S
C860   C1041   1.332   .     S
C860   H1052   1.088   .     S
C862   O894    1.290   .     A
C862   O892    1.292   .     A
C863   O895    1.285   .     A
C863   O893    1.288   .     A
C864   S897    1.788   .     S
H866   O884    0.990   .     S
H867   O886    1.014   .     S
H868   O768    1.011   1_655 S
H873   C1041   1.088   .     S
H875   N758    1.027   1_655 S
H876   O881    0.991   .     S
N877   Zn900   2.016   .     S
N877   H754    1.029   1_655 S
N877   N758    1.271   1_655 S
N878   Zn899   2.016   .     S
O879   Zn899   1.965   .     S
O880   S897    1.500   .     D
O881   S897    1.681   .     S
O882   S898    1.502   .     D
O883   S898    1.502   .     D
O884   S898    1.682   .     S
O889   Zn900   1.965   .     S
O890   Zn900   1.979   .     S
O891   Zn899   1.979   .     S
O892   Zn899   1.991   .     S
O893   Zn900   1.991   .     S
O894   Zn900   2.024   .     S
O895   Zn899   2.024   .     S
O896   S897    1.504   .     D
C901   O950    1.284   .     A
C901   O939    1.279   .     A
C901   C920    1.402   .     S
C902   C904    1.412   .     A
C902   S958    1.790   .     S
C902   C913    1.406   .     A
C903   C923    1.426   .     S
C903   C924    1.406   .     A
C903   C905    1.390   .     A
C904   C922    1.443   .     S
C904   C906    1.393   .     A
C905   H925    1.082   .     S
C905   C907    1.388   .     A
C906   H929    1.083   .     S
C906   C908    1.386   .     A
C907   C909    1.416   .     A
C907   C914    1.415   .     A
C908   C910    1.410   .     A
C908   C915    1.411   .     A
C909   C911    1.415   .     A
C910   C913    1.411   .     A
C910   C369    1.397   1_556 S
C911   C919    1.403   .     A
C911   C924    1.401   .     A
C912   O949    1.279   .     A
C912   C921    1.402   .     S
C912   O951    1.284   .     A
C913   C918    1.400   .     A
C914   C916    1.483   .     S
C915   C917    1.481   .     S
C915   C379    1.391   1_556 S
C916   O945    1.223   .     D
C916   O586    1.398   1_565 S
C917   O948    1.395   .     S
C917   O947    1.223   .     D
C918   H930    1.077   .     S
C918   C374    1.392   1_556 S
C919   H931    1.082   .     S
C920   C561    1.332   1_565 S
C920   H572    1.088   1_565 S
C922   O954    1.290   .     A
C922   O952    1.292   .     A
C923   O955    1.285   .     A
C923   O953    1.288   .     A
C924   S957    1.788   .     S
H926   O944    0.990   .     S
H927   O946    1.014   .     S
H928   O1008   1.011   .     S
H933   C561    1.088   1_565 S
H934   N1057   1.029   1_455 S
H935   N998    1.027   .     S
H936   O941    0.991   .     S
N937   Zn960   2.016   .     S
N937   H994    1.029   .     S
N937   N998    1.271   .     S
N938   Zn959   2.016   .     S
N938   H1055   1.027   1_455 S
N938   N1057   1.271   1_455 S
O939   Zn959   1.965   .     S
O940   S957    1.500   .     D
O941   S957    1.681   .     S
O942   S958    1.502   .     D
O943   S958    1.502   .     D
O944   S958    1.682   .     S
O948   H1048   1.011   1_455 S
O949   Zn960   1.965   .     S
O950   Zn960   1.979   .     S
O951   Zn959   1.979   .     S
O952   Zn959   1.991   .     S
O953   Zn960   1.991   .     S
O954   Zn960   2.024   .     S
O955   Zn959   2.024   .     S
O956   S957    1.504   .     D
C961   O1010   1.284   .     A
C961   O999    1.279   .     A
C961   C980    1.402   .     S
C962   C964    1.412   .     A
C962   S1018   1.790   .     S
C962   C973    1.406   .     A
C963   C983    1.426   .     S
C963   C984    1.406   .     A
C963   C965    1.390   .     A
C964   C982    1.443   .     S
C964   C966    1.393   .     A
C965   H985    1.082   .     S
C965   C967    1.388   .     A
C966   H989    1.083   .     S
C966   C968    1.386   .     A
C967   C969    1.416   .     A
C967   C974    1.415   .     A
C968   C970    1.410   .     A
C968   C975    1.411   .     A
C969   C971    1.415   .     A
C970   C973    1.411   .     A
C970   C429    1.397   1_556 S
C971   C979    1.403   .     A
C971   C984    1.401   .     A
C972   O1009   1.279   .     A
C972   C981    1.402   .     S
C972   O1011   1.284   .     A
C973   C978    1.400   .     A
C974   C976    1.483   .     S
C975   C977    1.481   .     S
C975   C439    1.391   1_556 S
C976   O1005   1.223   .     D
C976   O646    1.398   1_565 S
C977   O1008   1.395   .     S
C977   O1007   1.223   .     D
C978   H990    1.077   .     S
C978   C434    1.392   1_556 S
C979   H991    1.082   .     S
C980   C621    1.332   1_565 S
C980   H632    1.088   1_565 S
C982   O1014   1.290   .     A
C982   O1012   1.292   .     A
C983   O1015   1.285   .     A
C983   O1013   1.288   .     A
C984   S1017   1.788   .     S
H986   O1004   0.990   .     S
H987   O1006   1.014   .     S
H988   O1068   1.011   .     S
H993   C621    1.088   1_565 S
H995   N1058   1.027   .     S
H996   O1001   0.991   .     S
N997   Zn1020  2.016   .     S
N997   H1054   1.029   .     S
N997   N1058   1.271   .     S
N998   Zn1019  2.016   .     S
O999   Zn1019  1.965   .     S
O1000  S1017   1.500   .     D
O1001  S1017   1.681   .     S
O1002  S1018   1.502   .     D
O1003  S1018   1.502   .     D
O1004  S1018   1.682   .     S
O1009  Zn1020  1.965   .     S
O1010  Zn1020  1.979   .     S
O1011  Zn1019  1.979   .     S
O1012  Zn1019  1.991   .     S
O1013  Zn1020  1.991   .     S
O1014  Zn1020  2.024   .     S
O1015  Zn1019  2.024   .     S
O1016  S1017   1.504   .     D
C1021  O1070   1.284   .     A
C1021  O1059   1.279   .     A
C1021  C1040   1.402   .     S
C1022  C1024   1.412   .     A
C1022  S1078   1.790   .     S
C1022  C1033   1.406   .     A
C1023  C1043   1.426   .     S
C1023  C1044   1.406   .     A
C1023  C1025   1.390   .     A
C1024  C1042   1.443   .     S
C1024  C1026   1.393   .     A
C1025  H1045   1.082   .     S
C1025  C1027   1.388   .     A
C1026  H1049   1.083   .     S
C1026  C1028   1.386   .     A
C1027  C1029   1.416   .     A
C1027  C1034   1.415   .     A
C1028  C1030   1.410   .     A
C1028  C1035   1.411   .     A
C1029  C1031   1.415   .     A
C1030  C1033   1.411   .     A
C1030  C489    1.397   1_556 S
C1031  C1039   1.403   .     A
C1031  C1044   1.401   .     A
C1032  O1069   1.279   .     A
C1032  C1041   1.402   .     S
C1032  O1071   1.284   .     A
C1033  C1038   1.400   .     A
C1034  C1036   1.483   .     S
C1035  C1037   1.481   .     S
C1035  C499    1.391   1_556 S
C1036  O1065   1.223   .     D
C1036  O706    1.398   1_565 S
C1037  O1068   1.395   .     S
C1037  O1067   1.223   .     D
C1038  H1050   1.077   .     S
C1038  C494    1.392   1_556 S
C1039  H1051   1.082   .     S
C1040  C681    1.332   1_565 S
C1040  H692    1.088   1_565 S
C1042  O1074   1.290   .     A
C1042  O1072   1.292   .     A
C1043  O1075   1.285   .     A
C1043  O1073   1.288   .     A
C1044  S1077   1.788   .     S
H1046  O1064   0.990   .     S
H1047  O1066   1.014   .     S
H1048  O948    1.011   1_655 S
H1053  C681    1.088   1_565 S
H1055  N938    1.027   1_655 S
H1056  O1061   0.991   .     S
N1057  Zn1080  2.016   .     S
N1057  H934    1.029   1_655 S
N1057  N938    1.271   1_655 S
N1058  Zn1079  2.016   .     S
O1059  Zn1079  1.965   .     S
O1060  S1077   1.500   .     D
O1061  S1077   1.681   .     S
O1062  S1078   1.502   .     D
O1063  S1078   1.502   .     D
O1064  S1078   1.682   .     S
O1069  Zn1080  1.965   .     S
O1070  Zn1080  1.979   .     S
O1071  Zn1079  1.979   .     S
O1072  Zn1079  1.991   .     S
O1073  Zn1080  1.991   .     S
O1074  Zn1080  2.024   .     S
O1075  Zn1079  2.024   .     S
O1076  S1077   1.504   .     D
