data_str_m3_o1_o17_pcu_sym.4
_audit_creation_date              2020-01-03
_audit_creation_method            'Materials Studio'
_symmetry_space_group_name_H-M    'P1'
_symmetry_Int_Tables_number       1
_symmetry_cell_setting            triclinic
loop_
_symmetry_equiv_pos_as_xyz
  x,y,z
_cell_length_a                    32.1721
_cell_length_b                    29.8034
_cell_length_c                    29.7655
_cell_angle_alpha                 89.8637
_cell_angle_beta                  91.6404
_cell_angle_gamma                 88.7446
loop_
_atom_site_label
_atom_site_type_symbol
_atom_site_fract_x
_atom_site_fract_y
_atom_site_fract_z
_atom_site_U_iso_or_equiv
_atom_site_adp_type
_atom_site_occupancy
Br1    Br    0.25455   0.14997   0.37620   0.00000  Uiso   1.00
Br2    Br    0.04171   0.26801   0.25758   0.00000  Uiso   1.00
Br3    Br    0.07879   0.18332   0.12377   0.00000  Uiso   1.00
Br4    Br    0.04357   0.12478   0.44289   0.00000  Uiso   1.00
Br5    Br    0.28985   0.20836   0.05709   0.00000  Uiso   1.00
Br6    Br    0.05077   0.11120   0.05039   0.00000  Uiso   1.00
Br7    Br    0.28262   0.22203   0.44961   0.00000  Uiso   1.00
Br8    Br    0.04846   0.07541   0.29314   0.00000  Uiso   1.00
Br9    Br    0.28487   0.25793   0.20688   0.00000  Uiso   1.00
Br10   Br    0.29163   0.06532   0.24244   0.00000  Uiso   1.00
C11    C     0.08685   0.16721   0.25404   0.00000  Uiso   1.00
C12    C     0.04233   0.16829   0.25803   0.00000  Uiso   1.00
C13    C     0.18749   0.02320   0.28312   0.00000  Uiso   1.00
C14    C     0.14584   0.31014   0.21688   0.00000  Uiso   1.00
C15    C     0.14569   0.02424   0.21695   0.00000  Uiso   1.00
C16    C     0.18764   0.30909   0.28305   0.00000  Uiso   1.00
C17    C     0.16647   0.16670   0.16374   0.00000  Uiso   1.00
C18    C     0.16687   0.16664   0.33626   0.00000  Uiso   1.00
C19    C     0.20459   0.16724   0.40760   0.00000  Uiso   1.00
C20    C     0.12877   0.16605   0.09239   0.00000  Uiso   1.00
C21    C     0.16672   0.16667   0.38393   0.00000  Uiso   1.00
C22    C     0.24648   0.16612   0.24596   0.00000  Uiso   1.00
C23    C     0.16663   0.16666   0.11607   0.00000  Uiso   1.00
C24    C     0.12862   0.16634   0.40519   0.00000  Uiso   1.00
C25    C     0.20474   0.16698   0.09482   0.00000  Uiso   1.00
C26    C     0.12857   0.16042   0.45188   0.00000  Uiso   1.00
C27    C     0.20480   0.17286   0.04813   0.00000  Uiso   1.00
C28    C     0.16656   0.16684   0.47653   0.00000  Uiso   1.00
C29    C     0.16681   0.16643   0.02348   0.00000  Uiso   1.00
C30    C     0.20427   0.17401   0.45407   0.00000  Uiso   1.00
C31    C     0.12910   0.15926   0.04593   0.00000  Uiso   1.00
C32    C     0.09266   0.14693   0.47448   0.00000  Uiso   1.00
C33    C     0.09363   0.14477   0.02149   0.00000  Uiso   1.00
C34    C     0.24072   0.18631   0.02552   0.00000  Uiso   1.00
C35    C     0.23975   0.18847   0.47851   0.00000  Uiso   1.00
C36    C     0.02198   0.12736   0.26363   0.00000  Uiso   1.00
C37    C     0.31135   0.20597   0.23638   0.00000  Uiso   1.00
C38    C     0.31373   0.12489   0.25149   0.00000  Uiso   1.00
C39    C     0.01961   0.20844   0.24852   0.00000  Uiso   1.00
C40    C     0.29101   0.16504   0.24197   0.00000  Uiso   1.00
H41    H     0.08808   0.14813   0.35524   0.00000  Uiso   1.00
H42    H     0.14567   0.05788   0.15781   0.00000  Uiso   1.00
H43    H     0.22740   0.26003   0.30753   0.00000  Uiso   1.00
H44    H     0.18767   0.27546   0.34219   0.00000  Uiso   1.00
H45    H     0.09169   0.20436   0.36291   0.00000  Uiso   1.00
H46    H     0.24524   0.18526   0.14477   0.00000  Uiso   1.00
H47    H     0.24167   0.12903   0.13715   0.00000  Uiso   1.00
H48    H     0.22501   0.07176   0.30831   0.00000  Uiso   1.00
H49    H     0.18615   0.05556   0.34257   0.00000  Uiso   1.00
H50    H     0.10833   0.26157   0.19169   0.00000  Uiso   1.00
H51    H     0.14718   0.27778   0.15743   0.00000  Uiso   1.00
H52    H     0.10593   0.07330   0.19247   0.00000  Uiso   1.00
N53    N     0.16667   0.28573   0.25000   0.00000  Uiso   1.00
N54    N     0.16667   0.04760   0.25000   0.00000  Uiso   1.00
N55    N     0.09059   0.17340   0.37939   0.00000  Uiso   1.00
N56    N     0.24276   0.15998   0.12064   0.00000  Uiso   1.00
N57    N     0.20839   0.04475   0.31991   0.00000  Uiso   1.00
N58    N     0.12495   0.28858   0.18009   0.00000  Uiso   1.00
N59    N     0.12402   0.04679   0.18054   0.00000  Uiso   1.00
N60    N     0.20931   0.28654   0.31946   0.00000  Uiso   1.00
O61    O     0.10559   0.20487   0.24999   0.00000  Uiso   1.00
O62    O     0.22774   0.12846   0.25001   0.00000  Uiso   1.00
O63    O     0.22774   0.20487   0.25001   0.00000  Uiso   1.00
O64    O     0.10559   0.12846   0.24999   0.00000  Uiso   1.00
O65    O     0.16666   0.20489   0.18392   0.00000  Uiso   1.00
O66    O     0.16667   0.12844   0.31608   0.00000  Uiso   1.00
O67    O     0.16667   0.20489   0.31607   0.00000  Uiso   1.00
O68    O     0.16666   0.12844   0.18393   0.00000  Uiso   1.00
Zn69   Zn    0.16667   0.21771   0.25000   0.00000  Uiso   1.00
Zn70   Zn    0.16667   0.11563   0.25000   0.00000  Uiso   1.00
Br71   Br    0.58789   0.14997   0.37620   0.00000  Uiso   1.00
Br72   Br    0.37504   0.26801   0.25758   0.00000  Uiso   1.00
Br73   Br    0.41212   0.18332   0.12377   0.00000  Uiso   1.00
Br74   Br    0.37691   0.12478   0.44289   0.00000  Uiso   1.00
Br75   Br    0.62319   0.20836   0.05709   0.00000  Uiso   1.00
Br76   Br    0.38410   0.11120   0.05039   0.00000  Uiso   1.00
Br77   Br    0.61596   0.22203   0.44961   0.00000  Uiso   1.00
Br78   Br    0.38180   0.07541   0.29314   0.00000  Uiso   1.00
Br79   Br    0.61821   0.25793   0.20688   0.00000  Uiso   1.00
Br80   Br    0.62496   0.06532   0.24244   0.00000  Uiso   1.00
C81    C     0.42018   0.16721   0.25404   0.00000  Uiso   1.00
C82    C     0.37566   0.16829   0.25803   0.00000  Uiso   1.00
C83    C     0.52083   0.02320   0.28312   0.00000  Uiso   1.00
C84    C     0.47917   0.31014   0.21688   0.00000  Uiso   1.00
C85    C     0.47902   0.02424   0.21695   0.00000  Uiso   1.00
C86    C     0.52098   0.30909   0.28305   0.00000  Uiso   1.00
C87    C     0.49980   0.16670   0.16374   0.00000  Uiso   1.00
C88    C     0.50020   0.16664   0.33626   0.00000  Uiso   1.00
C89    C     0.53792   0.16724   0.40760   0.00000  Uiso   1.00
C90    C     0.46210   0.16605   0.09239   0.00000  Uiso   1.00
C91    C     0.50005   0.16667   0.38393   0.00000  Uiso   1.00
C92    C     0.57982   0.16612   0.24596   0.00000  Uiso   1.00
C93    C     0.49996   0.16666   0.11607   0.00000  Uiso   1.00
C94    C     0.46195   0.16634   0.40519   0.00000  Uiso   1.00
C95    C     0.53807   0.16698   0.09482   0.00000  Uiso   1.00
C96    C     0.46190   0.16042   0.45188   0.00000  Uiso   1.00
C97    C     0.53814   0.17286   0.04813   0.00000  Uiso   1.00
C98    C     0.49989   0.16684   0.47653   0.00000  Uiso   1.00
C99    C     0.50015   0.16643   0.02348   0.00000  Uiso   1.00
C100   C     0.53760   0.17401   0.45407   0.00000  Uiso   1.00
C101   C     0.46243   0.15926   0.04593   0.00000  Uiso   1.00
C102   C     0.42599   0.14693   0.47448   0.00000  Uiso   1.00
C103   C     0.42697   0.14477   0.02149   0.00000  Uiso   1.00
C104   C     0.57406   0.18631   0.02552   0.00000  Uiso   1.00
C105   C     0.57308   0.18847   0.47851   0.00000  Uiso   1.00
C106   C     0.35531   0.12736   0.26363   0.00000  Uiso   1.00
C107   C     0.64469   0.20597   0.23638   0.00000  Uiso   1.00
C108   C     0.64706   0.12489   0.25149   0.00000  Uiso   1.00
C109   C     0.35294   0.20844   0.24852   0.00000  Uiso   1.00
C110   C     0.62434   0.16504   0.24197   0.00000  Uiso   1.00
H111   H     0.42141   0.14813   0.35524   0.00000  Uiso   1.00
H112   H     0.47900   0.05788   0.15781   0.00000  Uiso   1.00
H113   H     0.56073   0.26003   0.30753   0.00000  Uiso   1.00
H114   H     0.52100   0.27546   0.34219   0.00000  Uiso   1.00
H115   H     0.42503   0.20436   0.36291   0.00000  Uiso   1.00
H116   H     0.57857   0.18526   0.14477   0.00000  Uiso   1.00
H117   H     0.57501   0.12903   0.13715   0.00000  Uiso   1.00
H118   H     0.55834   0.07176   0.30831   0.00000  Uiso   1.00
H119   H     0.51948   0.05556   0.34257   0.00000  Uiso   1.00
H120   H     0.44166   0.26157   0.19169   0.00000  Uiso   1.00
H121   H     0.48052   0.27778   0.15743   0.00000  Uiso   1.00
H122   H     0.43927   0.07330   0.19247   0.00000  Uiso   1.00
N123   N     0.50000   0.28573   0.25000   0.00000  Uiso   1.00
N124   N     0.50000   0.04760   0.25000   0.00000  Uiso   1.00
N125   N     0.42392   0.17340   0.37939   0.00000  Uiso   1.00
N126   N     0.57609   0.15998   0.12064   0.00000  Uiso   1.00
N127   N     0.54172   0.04475   0.31991   0.00000  Uiso   1.00
N128   N     0.45828   0.28858   0.18009   0.00000  Uiso   1.00
N129   N     0.45735   0.04679   0.18054   0.00000  Uiso   1.00
N130   N     0.54265   0.28654   0.31946   0.00000  Uiso   1.00
O131   O     0.43892   0.20487   0.24999   0.00000  Uiso   1.00
O132   O     0.56108   0.12846   0.25001   0.00000  Uiso   1.00
O133   O     0.56108   0.20487   0.25001   0.00000  Uiso   1.00
O134   O     0.43892   0.12846   0.24999   0.00000  Uiso   1.00
O135   O     0.49999   0.20489   0.18392   0.00000  Uiso   1.00
O136   O     0.50001   0.12844   0.31608   0.00000  Uiso   1.00
O137   O     0.50001   0.20489   0.31607   0.00000  Uiso   1.00
O138   O     0.49999   0.12844   0.18393   0.00000  Uiso   1.00
Zn139  Zn    0.50000   0.21771   0.25000   0.00000  Uiso   1.00
Zn140  Zn    0.50000   0.11563   0.25000   0.00000  Uiso   1.00
Br141  Br    0.92122   0.14997   0.37620   0.00000  Uiso   1.00
Br142  Br    0.70837   0.26801   0.25758   0.00000  Uiso   1.00
Br143  Br    0.74545   0.18332   0.12377   0.00000  Uiso   1.00
Br144  Br    0.71024   0.12478   0.44289   0.00000  Uiso   1.00
Br145  Br    0.95652   0.20836   0.05709   0.00000  Uiso   1.00
Br146  Br    0.71744   0.11120   0.05039   0.00000  Uiso   1.00
Br147  Br    0.94929   0.22203   0.44961   0.00000  Uiso   1.00
Br148  Br    0.71513   0.07541   0.29314   0.00000  Uiso   1.00
Br149  Br    0.95154   0.25793   0.20688   0.00000  Uiso   1.00
Br150  Br    0.95829   0.06532   0.24244   0.00000  Uiso   1.00
C151   C     0.75352   0.16721   0.25404   0.00000  Uiso   1.00
C152   C     0.70899   0.16829   0.25803   0.00000  Uiso   1.00
C153   C     0.85416   0.02320   0.28312   0.00000  Uiso   1.00
C154   C     0.81251   0.31014   0.21688   0.00000  Uiso   1.00
C155   C     0.81236   0.02424   0.21695   0.00000  Uiso   1.00
C156   C     0.85431   0.30909   0.28305   0.00000  Uiso   1.00
C157   C     0.83313   0.16670   0.16374   0.00000  Uiso   1.00
C158   C     0.83353   0.16664   0.33626   0.00000  Uiso   1.00
C159   C     0.87126   0.16724   0.40760   0.00000  Uiso   1.00
C160   C     0.79543   0.16605   0.09239   0.00000  Uiso   1.00
C161   C     0.83339   0.16667   0.38393   0.00000  Uiso   1.00
C162   C     0.91315   0.16612   0.24596   0.00000  Uiso   1.00
C163   C     0.83329   0.16666   0.11607   0.00000  Uiso   1.00
C164   C     0.79528   0.16634   0.40519   0.00000  Uiso   1.00
C165   C     0.87141   0.16698   0.09482   0.00000  Uiso   1.00
C166   C     0.79523   0.16042   0.45188   0.00000  Uiso   1.00
C167   C     0.87147   0.17286   0.04813   0.00000  Uiso   1.00
C168   C     0.83323   0.16684   0.47653   0.00000  Uiso   1.00
C169   C     0.83348   0.16643   0.02348   0.00000  Uiso   1.00
C170   C     0.87094   0.17401   0.45407   0.00000  Uiso   1.00
C171   C     0.79577   0.15926   0.04593   0.00000  Uiso   1.00
C172   C     0.75933   0.14693   0.47448   0.00000  Uiso   1.00
C173   C     0.76030   0.14477   0.02149   0.00000  Uiso   1.00
C174   C     0.90739   0.18631   0.02552   0.00000  Uiso   1.00
C175   C     0.90641   0.18847   0.47851   0.00000  Uiso   1.00
C176   C     0.68865   0.12736   0.26363   0.00000  Uiso   1.00
C177   C     0.97802   0.20597   0.23638   0.00000  Uiso   1.00
C178   C     0.98040   0.12489   0.25149   0.00000  Uiso   1.00
C179   C     0.68627   0.20844   0.24852   0.00000  Uiso   1.00
C180   C     0.95767   0.16504   0.24197   0.00000  Uiso   1.00
H181   H     0.75474   0.14813   0.35524   0.00000  Uiso   1.00
H182   H     0.81233   0.05788   0.15781   0.00000  Uiso   1.00
H183   H     0.89407   0.26003   0.30753   0.00000  Uiso   1.00
H184   H     0.85433   0.27546   0.34219   0.00000  Uiso   1.00
H185   H     0.75836   0.20436   0.36291   0.00000  Uiso   1.00
H186   H     0.91191   0.18526   0.14477   0.00000  Uiso   1.00
H187   H     0.90834   0.12903   0.13715   0.00000  Uiso   1.00
H188   H     0.89167   0.07176   0.30831   0.00000  Uiso   1.00
H189   H     0.85281   0.05556   0.34257   0.00000  Uiso   1.00
H190   H     0.77500   0.26157   0.19169   0.00000  Uiso   1.00
H191   H     0.81385   0.27778   0.15743   0.00000  Uiso   1.00
H192   H     0.77260   0.07330   0.19247   0.00000  Uiso   1.00
N193   N     0.83333   0.28573   0.25000   0.00000  Uiso   1.00
N194   N     0.83333   0.04760   0.25000   0.00000  Uiso   1.00
N195   N     0.75726   0.17340   0.37939   0.00000  Uiso   1.00
N196   N     0.90942   0.15998   0.12064   0.00000  Uiso   1.00
N197   N     0.87505   0.04475   0.31991   0.00000  Uiso   1.00
N198   N     0.79161   0.28858   0.18009   0.00000  Uiso   1.00
N199   N     0.79069   0.04679   0.18054   0.00000  Uiso   1.00
N200   N     0.87598   0.28654   0.31946   0.00000  Uiso   1.00
O201   O     0.77226   0.20487   0.24999   0.00000  Uiso   1.00
O202   O     0.89441   0.12846   0.25001   0.00000  Uiso   1.00
O203   O     0.89441   0.20487   0.25001   0.00000  Uiso   1.00
O204   O     0.77226   0.12846   0.24999   0.00000  Uiso   1.00
O205   O     0.83333   0.20489   0.18392   0.00000  Uiso   1.00
O206   O     0.83334   0.12844   0.31608   0.00000  Uiso   1.00
O207   O     0.83334   0.20489   0.31607   0.00000  Uiso   1.00
O208   O     0.83333   0.12844   0.18393   0.00000  Uiso   1.00
Zn209  Zn    0.83333   0.21771   0.25000   0.00000  Uiso   1.00
Zn210  Zn    0.83333   0.11563   0.25000   0.00000  Uiso   1.00
Br211  Br    0.25455   0.48330   0.37620   0.00000  Uiso   1.00
Br212  Br    0.04171   0.60134   0.25758   0.00000  Uiso   1.00
Br213  Br    0.07879   0.51666   0.12377   0.00000  Uiso   1.00
Br214  Br    0.04357   0.45812   0.44289   0.00000  Uiso   1.00
Br215  Br    0.28985   0.54170   0.05709   0.00000  Uiso   1.00
Br216  Br    0.05077   0.44453   0.05039   0.00000  Uiso   1.00
Br217  Br    0.28262   0.55537   0.44961   0.00000  Uiso   1.00
Br218  Br    0.04846   0.40875   0.29314   0.00000  Uiso   1.00
Br219  Br    0.28487   0.59126   0.20688   0.00000  Uiso   1.00
Br220  Br    0.29163   0.39866   0.24244   0.00000  Uiso   1.00
C221   C     0.08685   0.50054   0.25404   0.00000  Uiso   1.00
C222   C     0.04233   0.50163   0.25803   0.00000  Uiso   1.00
C223   C     0.18749   0.35653   0.28312   0.00000  Uiso   1.00
C224   C     0.14584   0.64347   0.21688   0.00000  Uiso   1.00
C225   C     0.14569   0.35758   0.21695   0.00000  Uiso   1.00
C226   C     0.18764   0.64242   0.28305   0.00000  Uiso   1.00
C227   C     0.16647   0.50003   0.16374   0.00000  Uiso   1.00
C228   C     0.16687   0.49997   0.33626   0.00000  Uiso   1.00
C229   C     0.20459   0.50058   0.40760   0.00000  Uiso   1.00
C230   C     0.12877   0.49939   0.09239   0.00000  Uiso   1.00
C231   C     0.16672   0.50000   0.38393   0.00000  Uiso   1.00
C232   C     0.24648   0.49946   0.24596   0.00000  Uiso   1.00
C233   C     0.16663   0.49999   0.11607   0.00000  Uiso   1.00
C234   C     0.12862   0.49967   0.40519   0.00000  Uiso   1.00
C235   C     0.20474   0.50031   0.09482   0.00000  Uiso   1.00
C236   C     0.12857   0.49375   0.45188   0.00000  Uiso   1.00
C237   C     0.20480   0.50619   0.04813   0.00000  Uiso   1.00
C238   C     0.16656   0.50017   0.47653   0.00000  Uiso   1.00
C239   C     0.16681   0.49977   0.02348   0.00000  Uiso   1.00
C240   C     0.20427   0.50734   0.45407   0.00000  Uiso   1.00
C241   C     0.12910   0.49260   0.04593   0.00000  Uiso   1.00
C242   C     0.09266   0.48026   0.47448   0.00000  Uiso   1.00
C243   C     0.09363   0.47810   0.02149   0.00000  Uiso   1.00
C244   C     0.24072   0.51964   0.02552   0.00000  Uiso   1.00
C245   C     0.23975   0.52181   0.47851   0.00000  Uiso   1.00
C246   C     0.02198   0.46070   0.26363   0.00000  Uiso   1.00
C247   C     0.31135   0.53931   0.23638   0.00000  Uiso   1.00
C248   C     0.31373   0.45822   0.25149   0.00000  Uiso   1.00
C249   C     0.01961   0.54178   0.24852   0.00000  Uiso   1.00
C250   C     0.29101   0.49837   0.24197   0.00000  Uiso   1.00
H251   H     0.08808   0.48147   0.35524   0.00000  Uiso   1.00
H252   H     0.14567   0.39121   0.15781   0.00000  Uiso   1.00
H253   H     0.22740   0.59337   0.30753   0.00000  Uiso   1.00
H254   H     0.18767   0.60879   0.34219   0.00000  Uiso   1.00
H255   H     0.09169   0.53769   0.36291   0.00000  Uiso   1.00
H256   H     0.24524   0.51860   0.14477   0.00000  Uiso   1.00
H257   H     0.24167   0.46236   0.13715   0.00000  Uiso   1.00
H258   H     0.22501   0.40509   0.30831   0.00000  Uiso   1.00
H259   H     0.18615   0.38889   0.34257   0.00000  Uiso   1.00
H260   H     0.10833   0.59490   0.19169   0.00000  Uiso   1.00
H261   H     0.14718   0.61111   0.15743   0.00000  Uiso   1.00
H262   H     0.10593   0.40663   0.19247   0.00000  Uiso   1.00
N263   N     0.16667   0.61907   0.25000   0.00000  Uiso   1.00
N264   N     0.16667   0.38093   0.25000   0.00000  Uiso   1.00
N265   N     0.09059   0.50673   0.37939   0.00000  Uiso   1.00
N266   N     0.24276   0.49331   0.12064   0.00000  Uiso   1.00
N267   N     0.20839   0.37809   0.31991   0.00000  Uiso   1.00
N268   N     0.12495   0.62191   0.18009   0.00000  Uiso   1.00
N269   N     0.12402   0.38012   0.18054   0.00000  Uiso   1.00
N270   N     0.20931   0.61988   0.31946   0.00000  Uiso   1.00
O271   O     0.10559   0.53821   0.24999   0.00000  Uiso   1.00
O272   O     0.22774   0.46179   0.25001   0.00000  Uiso   1.00
O273   O     0.22774   0.53821   0.25001   0.00000  Uiso   1.00
O274   O     0.10559   0.46179   0.24999   0.00000  Uiso   1.00
O275   O     0.16666   0.53823   0.18392   0.00000  Uiso   1.00
O276   O     0.16667   0.46177   0.31608   0.00000  Uiso   1.00
O277   O     0.16667   0.53823   0.31607   0.00000  Uiso   1.00
O278   O     0.16666   0.46177   0.18393   0.00000  Uiso   1.00
Zn279  Zn    0.16667   0.55104   0.25000   0.00000  Uiso   1.00
Zn280  Zn    0.16667   0.44896   0.25000   0.00000  Uiso   1.00
Br281  Br    0.58789   0.48330   0.37620   0.00000  Uiso   1.00
Br282  Br    0.37504   0.60134   0.25758   0.00000  Uiso   1.00
Br283  Br    0.41212   0.51666   0.12377   0.00000  Uiso   1.00
Br284  Br    0.37691   0.45812   0.44289   0.00000  Uiso   1.00
Br285  Br    0.62319   0.54170   0.05709   0.00000  Uiso   1.00
Br286  Br    0.38410   0.44453   0.05039   0.00000  Uiso   1.00
Br287  Br    0.61596   0.55537   0.44961   0.00000  Uiso   1.00
Br288  Br    0.38180   0.40875   0.29314   0.00000  Uiso   1.00
Br289  Br    0.61821   0.59126   0.20688   0.00000  Uiso   1.00
Br290  Br    0.62496   0.39866   0.24244   0.00000  Uiso   1.00
C291   C     0.42018   0.50054   0.25404   0.00000  Uiso   1.00
C292   C     0.37566   0.50163   0.25803   0.00000  Uiso   1.00
C293   C     0.52083   0.35653   0.28312   0.00000  Uiso   1.00
C294   C     0.47917   0.64347   0.21688   0.00000  Uiso   1.00
C295   C     0.47902   0.35758   0.21695   0.00000  Uiso   1.00
C296   C     0.52098   0.64242   0.28305   0.00000  Uiso   1.00
C297   C     0.49980   0.50003   0.16374   0.00000  Uiso   1.00
C298   C     0.50020   0.49997   0.33626   0.00000  Uiso   1.00
C299   C     0.53792   0.50058   0.40760   0.00000  Uiso   1.00
C300   C     0.46210   0.49939   0.09239   0.00000  Uiso   1.00
C301   C     0.50005   0.50000   0.38393   0.00000  Uiso   1.00
C302   C     0.57982   0.49946   0.24596   0.00000  Uiso   1.00
C303   C     0.49996   0.49999   0.11607   0.00000  Uiso   1.00
C304   C     0.46195   0.49967   0.40519   0.00000  Uiso   1.00
C305   C     0.53807   0.50031   0.09482   0.00000  Uiso   1.00
C306   C     0.46190   0.49375   0.45188   0.00000  Uiso   1.00
C307   C     0.53814   0.50619   0.04813   0.00000  Uiso   1.00
C308   C     0.49989   0.50017   0.47653   0.00000  Uiso   1.00
C309   C     0.50015   0.49977   0.02348   0.00000  Uiso   1.00
C310   C     0.53760   0.50734   0.45407   0.00000  Uiso   1.00
C311   C     0.46243   0.49260   0.04593   0.00000  Uiso   1.00
C312   C     0.42599   0.48026   0.47448   0.00000  Uiso   1.00
C313   C     0.42697   0.47810   0.02149   0.00000  Uiso   1.00
C314   C     0.57406   0.51964   0.02552   0.00000  Uiso   1.00
C315   C     0.57308   0.52181   0.47851   0.00000  Uiso   1.00
C316   C     0.35531   0.46070   0.26363   0.00000  Uiso   1.00
C317   C     0.64469   0.53931   0.23638   0.00000  Uiso   1.00
C318   C     0.64706   0.45822   0.25149   0.00000  Uiso   1.00
C319   C     0.35294   0.54178   0.24852   0.00000  Uiso   1.00
C320   C     0.62434   0.49837   0.24197   0.00000  Uiso   1.00
H321   H     0.42141   0.48147   0.35524   0.00000  Uiso   1.00
H322   H     0.47900   0.39121   0.15781   0.00000  Uiso   1.00
H323   H     0.56073   0.59337   0.30753   0.00000  Uiso   1.00
H324   H     0.52100   0.60879   0.34219   0.00000  Uiso   1.00
H325   H     0.42503   0.53769   0.36291   0.00000  Uiso   1.00
H326   H     0.57857   0.51860   0.14477   0.00000  Uiso   1.00
H327   H     0.57501   0.46236   0.13715   0.00000  Uiso   1.00
H328   H     0.55834   0.40509   0.30831   0.00000  Uiso   1.00
H329   H     0.51948   0.38889   0.34257   0.00000  Uiso   1.00
H330   H     0.44166   0.59490   0.19169   0.00000  Uiso   1.00
H331   H     0.48052   0.61111   0.15743   0.00000  Uiso   1.00
H332   H     0.43927   0.40663   0.19247   0.00000  Uiso   1.00
N333   N     0.50000   0.61907   0.25000   0.00000  Uiso   1.00
N334   N     0.50000   0.38093   0.25000   0.00000  Uiso   1.00
N335   N     0.42392   0.50673   0.37939   0.00000  Uiso   1.00
N336   N     0.57609   0.49331   0.12064   0.00000  Uiso   1.00
N337   N     0.54172   0.37809   0.31991   0.00000  Uiso   1.00
N338   N     0.45828   0.62191   0.18009   0.00000  Uiso   1.00
N339   N     0.45735   0.38012   0.18054   0.00000  Uiso   1.00
N340   N     0.54265   0.61988   0.31946   0.00000  Uiso   1.00
O341   O     0.43892   0.53821   0.24999   0.00000  Uiso   1.00
O342   O     0.56108   0.46179   0.25001   0.00000  Uiso   1.00
O343   O     0.56108   0.53821   0.25001   0.00000  Uiso   1.00
O344   O     0.43892   0.46179   0.24999   0.00000  Uiso   1.00
O345   O     0.49999   0.53823   0.18392   0.00000  Uiso   1.00
O346   O     0.50001   0.46177   0.31608   0.00000  Uiso   1.00
O347   O     0.50001   0.53823   0.31607   0.00000  Uiso   1.00
O348   O     0.49999   0.46177   0.18393   0.00000  Uiso   1.00
Zn349  Zn    0.50000   0.55104   0.25000   0.00000  Uiso   1.00
Zn350  Zn    0.50000   0.44896   0.25000   0.00000  Uiso   1.00
Br351  Br    0.92122   0.48330   0.37620   0.00000  Uiso   1.00
Br352  Br    0.70837   0.60134   0.25758   0.00000  Uiso   1.00
Br353  Br    0.74545   0.51666   0.12377   0.00000  Uiso   1.00
Br354  Br    0.71024   0.45812   0.44289   0.00000  Uiso   1.00
Br355  Br    0.95652   0.54170   0.05709   0.00000  Uiso   1.00
Br356  Br    0.71744   0.44453   0.05039   0.00000  Uiso   1.00
Br357  Br    0.94929   0.55537   0.44961   0.00000  Uiso   1.00
Br358  Br    0.71513   0.40875   0.29314   0.00000  Uiso   1.00
Br359  Br    0.95154   0.59126   0.20688   0.00000  Uiso   1.00
Br360  Br    0.95829   0.39866   0.24244   0.00000  Uiso   1.00
C361   C     0.75352   0.50054   0.25404   0.00000  Uiso   1.00
C362   C     0.70899   0.50163   0.25803   0.00000  Uiso   1.00
C363   C     0.85416   0.35653   0.28312   0.00000  Uiso   1.00
C364   C     0.81251   0.64347   0.21688   0.00000  Uiso   1.00
C365   C     0.81236   0.35758   0.21695   0.00000  Uiso   1.00
C366   C     0.85431   0.64242   0.28305   0.00000  Uiso   1.00
C367   C     0.83313   0.50003   0.16374   0.00000  Uiso   1.00
C368   C     0.83353   0.49997   0.33626   0.00000  Uiso   1.00
C369   C     0.87126   0.50058   0.40760   0.00000  Uiso   1.00
C370   C     0.79543   0.49939   0.09239   0.00000  Uiso   1.00
C371   C     0.83339   0.50000   0.38393   0.00000  Uiso   1.00
C372   C     0.91315   0.49946   0.24596   0.00000  Uiso   1.00
C373   C     0.83329   0.49999   0.11607   0.00000  Uiso   1.00
C374   C     0.79528   0.49967   0.40519   0.00000  Uiso   1.00
C375   C     0.87141   0.50031   0.09482   0.00000  Uiso   1.00
C376   C     0.79523   0.49375   0.45188   0.00000  Uiso   1.00
C377   C     0.87147   0.50619   0.04813   0.00000  Uiso   1.00
C378   C     0.83323   0.50017   0.47653   0.00000  Uiso   1.00
C379   C     0.83348   0.49977   0.02348   0.00000  Uiso   1.00
C380   C     0.87094   0.50734   0.45407   0.00000  Uiso   1.00
C381   C     0.79577   0.49260   0.04593   0.00000  Uiso   1.00
C382   C     0.75933   0.48026   0.47448   0.00000  Uiso   1.00
C383   C     0.76030   0.47810   0.02149   0.00000  Uiso   1.00
C384   C     0.90739   0.51964   0.02552   0.00000  Uiso   1.00
C385   C     0.90641   0.52181   0.47851   0.00000  Uiso   1.00
C386   C     0.68865   0.46070   0.26363   0.00000  Uiso   1.00
C387   C     0.97802   0.53931   0.23638   0.00000  Uiso   1.00
C388   C     0.98040   0.45822   0.25149   0.00000  Uiso   1.00
C389   C     0.68627   0.54178   0.24852   0.00000  Uiso   1.00
C390   C     0.95767   0.49837   0.24197   0.00000  Uiso   1.00
H391   H     0.75474   0.48147   0.35524   0.00000  Uiso   1.00
H392   H     0.81233   0.39121   0.15781   0.00000  Uiso   1.00
H393   H     0.89407   0.59337   0.30753   0.00000  Uiso   1.00
H394   H     0.85433   0.60879   0.34219   0.00000  Uiso   1.00
H395   H     0.75836   0.53769   0.36291   0.00000  Uiso   1.00
H396   H     0.91191   0.51860   0.14477   0.00000  Uiso   1.00
H397   H     0.90834   0.46236   0.13715   0.00000  Uiso   1.00
H398   H     0.89167   0.40509   0.30831   0.00000  Uiso   1.00
H399   H     0.85281   0.38889   0.34257   0.00000  Uiso   1.00
H400   H     0.77500   0.59490   0.19169   0.00000  Uiso   1.00
H401   H     0.81385   0.61111   0.15743   0.00000  Uiso   1.00
H402   H     0.77260   0.40663   0.19247   0.00000  Uiso   1.00
N403   N     0.83333   0.61907   0.25000   0.00000  Uiso   1.00
N404   N     0.83333   0.38093   0.25000   0.00000  Uiso   1.00
N405   N     0.75726   0.50673   0.37939   0.00000  Uiso   1.00
N406   N     0.90942   0.49331   0.12064   0.00000  Uiso   1.00
N407   N     0.87505   0.37809   0.31991   0.00000  Uiso   1.00
N408   N     0.79161   0.62191   0.18009   0.00000  Uiso   1.00
N409   N     0.79069   0.38012   0.18054   0.00000  Uiso   1.00
N410   N     0.87598   0.61988   0.31946   0.00000  Uiso   1.00
O411   O     0.77226   0.53821   0.24999   0.00000  Uiso   1.00
O412   O     0.89441   0.46179   0.25001   0.00000  Uiso   1.00
O413   O     0.89441   0.53821   0.25001   0.00000  Uiso   1.00
O414   O     0.77226   0.46179   0.24999   0.00000  Uiso   1.00
O415   O     0.83333   0.53823   0.18392   0.00000  Uiso   1.00
O416   O     0.83334   0.46177   0.31608   0.00000  Uiso   1.00
O417   O     0.83334   0.53823   0.31607   0.00000  Uiso   1.00
O418   O     0.83333   0.46177   0.18393   0.00000  Uiso   1.00
Zn419  Zn    0.83333   0.55104   0.25000   0.00000  Uiso   1.00
Zn420  Zn    0.83333   0.44896   0.25000   0.00000  Uiso   1.00
Br421  Br    0.25455   0.81663   0.37620   0.00000  Uiso   1.00
Br422  Br    0.04171   0.93468   0.25758   0.00000  Uiso   1.00
Br423  Br    0.07879   0.84999   0.12377   0.00000  Uiso   1.00
Br424  Br    0.04357   0.79145   0.44289   0.00000  Uiso   1.00
Br425  Br    0.28985   0.87503   0.05709   0.00000  Uiso   1.00
Br426  Br    0.05077   0.77786   0.05039   0.00000  Uiso   1.00
Br427  Br    0.28262   0.88870   0.44961   0.00000  Uiso   1.00
Br428  Br    0.04846   0.74208   0.29314   0.00000  Uiso   1.00
Br429  Br    0.28487   0.92459   0.20688   0.00000  Uiso   1.00
Br430  Br    0.29163   0.73199   0.24244   0.00000  Uiso   1.00
C431   C     0.08685   0.83388   0.25404   0.00000  Uiso   1.00
C432   C     0.04233   0.83496   0.25803   0.00000  Uiso   1.00
C433   C     0.18749   0.68986   0.28312   0.00000  Uiso   1.00
C434   C     0.14584   0.97680   0.21688   0.00000  Uiso   1.00
C435   C     0.14569   0.69091   0.21695   0.00000  Uiso   1.00
C436   C     0.18764   0.97576   0.28305   0.00000  Uiso   1.00
C437   C     0.16647   0.83336   0.16374   0.00000  Uiso   1.00
C438   C     0.16687   0.83330   0.33626   0.00000  Uiso   1.00
C439   C     0.20459   0.83391   0.40760   0.00000  Uiso   1.00
C440   C     0.12877   0.83272   0.09239   0.00000  Uiso   1.00
C441   C     0.16672   0.83334   0.38393   0.00000  Uiso   1.00
C442   C     0.24648   0.83279   0.24596   0.00000  Uiso   1.00
C443   C     0.16663   0.83332   0.11607   0.00000  Uiso   1.00
C444   C     0.12862   0.83301   0.40519   0.00000  Uiso   1.00
C445   C     0.20474   0.83365   0.09482   0.00000  Uiso   1.00
C446   C     0.12857   0.82709   0.45188   0.00000  Uiso   1.00
C447   C     0.20480   0.83952   0.04813   0.00000  Uiso   1.00
C448   C     0.16656   0.83350   0.47653   0.00000  Uiso   1.00
C449   C     0.16681   0.83310   0.02348   0.00000  Uiso   1.00
C450   C     0.20427   0.84067   0.45407   0.00000  Uiso   1.00
C451   C     0.12910   0.82593   0.04593   0.00000  Uiso   1.00
C452   C     0.09266   0.81359   0.47448   0.00000  Uiso   1.00
C453   C     0.09363   0.81144   0.02149   0.00000  Uiso   1.00
C454   C     0.24072   0.85298   0.02552   0.00000  Uiso   1.00
C455   C     0.23975   0.85514   0.47851   0.00000  Uiso   1.00
C456   C     0.02198   0.79403   0.26363   0.00000  Uiso   1.00
C457   C     0.31135   0.87264   0.23638   0.00000  Uiso   1.00
C458   C     0.31373   0.79156   0.25149   0.00000  Uiso   1.00
C459   C     0.01961   0.87511   0.24852   0.00000  Uiso   1.00
C460   C     0.29101   0.83171   0.24197   0.00000  Uiso   1.00
H461   H     0.08808   0.81480   0.35524   0.00000  Uiso   1.00
H462   H     0.14567   0.72454   0.15781   0.00000  Uiso   1.00
H463   H     0.22740   0.92670   0.30753   0.00000  Uiso   1.00
H464   H     0.18767   0.94212   0.34219   0.00000  Uiso   1.00
H465   H     0.09169   0.87103   0.36291   0.00000  Uiso   1.00
H466   H     0.24524   0.85193   0.14477   0.00000  Uiso   1.00
H467   H     0.24167   0.79569   0.13715   0.00000  Uiso   1.00
H468   H     0.22501   0.73843   0.30831   0.00000  Uiso   1.00
H469   H     0.18615   0.72222   0.34257   0.00000  Uiso   1.00
H470   H     0.10833   0.92824   0.19169   0.00000  Uiso   1.00
H471   H     0.14718   0.94445   0.15743   0.00000  Uiso   1.00
H472   H     0.10593   0.73997   0.19247   0.00000  Uiso   1.00
N473   N     0.16667   0.95240   0.25000   0.00000  Uiso   1.00
N474   N     0.16667   0.71427   0.25000   0.00000  Uiso   1.00
N475   N     0.09059   0.84007   0.37939   0.00000  Uiso   1.00
N476   N     0.24276   0.82664   0.12064   0.00000  Uiso   1.00
N477   N     0.20839   0.71142   0.31991   0.00000  Uiso   1.00
N478   N     0.12495   0.95525   0.18009   0.00000  Uiso   1.00
N479   N     0.12402   0.71346   0.18054   0.00000  Uiso   1.00
N480   N     0.20931   0.95321   0.31946   0.00000  Uiso   1.00
O481   O     0.10559   0.87154   0.24999   0.00000  Uiso   1.00
O482   O     0.22774   0.79513   0.25001   0.00000  Uiso   1.00
O483   O     0.22774   0.87154   0.25001   0.00000  Uiso   1.00
O484   O     0.10559   0.79513   0.24999   0.00000  Uiso   1.00
O485   O     0.16666   0.87156   0.18392   0.00000  Uiso   1.00
O486   O     0.16667   0.79511   0.31608   0.00000  Uiso   1.00
O487   O     0.16667   0.87156   0.31607   0.00000  Uiso   1.00
O488   O     0.16666   0.79511   0.18393   0.00000  Uiso   1.00
Zn489  Zn    0.16667   0.88437   0.25000   0.00000  Uiso   1.00
Zn490  Zn    0.16667   0.78229   0.25000   0.00000  Uiso   1.00
Br491  Br    0.58789   0.81663   0.37620   0.00000  Uiso   1.00
Br492  Br    0.37504   0.93468   0.25758   0.00000  Uiso   1.00
Br493  Br    0.41212   0.84999   0.12377   0.00000  Uiso   1.00
Br494  Br    0.37691   0.79145   0.44289   0.00000  Uiso   1.00
Br495  Br    0.62319   0.87503   0.05709   0.00000  Uiso   1.00
Br496  Br    0.38410   0.77786   0.05039   0.00000  Uiso   1.00
Br497  Br    0.61596   0.88870   0.44961   0.00000  Uiso   1.00
Br498  Br    0.38180   0.74208   0.29314   0.00000  Uiso   1.00
Br499  Br    0.61821   0.92459   0.20688   0.00000  Uiso   1.00
Br500  Br    0.62496   0.73199   0.24244   0.00000  Uiso   1.00
C501   C     0.42018   0.83388   0.25404   0.00000  Uiso   1.00
C502   C     0.37566   0.83496   0.25803   0.00000  Uiso   1.00
C503   C     0.52083   0.68986   0.28312   0.00000  Uiso   1.00
C504   C     0.47917   0.97680   0.21688   0.00000  Uiso   1.00
C505   C     0.47902   0.69091   0.21695   0.00000  Uiso   1.00
C506   C     0.52098   0.97576   0.28305   0.00000  Uiso   1.00
C507   C     0.49980   0.83336   0.16374   0.00000  Uiso   1.00
C508   C     0.50020   0.83330   0.33626   0.00000  Uiso   1.00
C509   C     0.53792   0.83391   0.40760   0.00000  Uiso   1.00
C510   C     0.46210   0.83272   0.09239   0.00000  Uiso   1.00
C511   C     0.50005   0.83334   0.38393   0.00000  Uiso   1.00
C512   C     0.57982   0.83279   0.24596   0.00000  Uiso   1.00
C513   C     0.49996   0.83332   0.11607   0.00000  Uiso   1.00
C514   C     0.46195   0.83301   0.40519   0.00000  Uiso   1.00
C515   C     0.53807   0.83365   0.09482   0.00000  Uiso   1.00
C516   C     0.46190   0.82709   0.45188   0.00000  Uiso   1.00
C517   C     0.53814   0.83952   0.04813   0.00000  Uiso   1.00
C518   C     0.49989   0.83350   0.47653   0.00000  Uiso   1.00
C519   C     0.50015   0.83310   0.02348   0.00000  Uiso   1.00
C520   C     0.53760   0.84067   0.45407   0.00000  Uiso   1.00
C521   C     0.46243   0.82593   0.04593   0.00000  Uiso   1.00
C522   C     0.42599   0.81359   0.47448   0.00000  Uiso   1.00
C523   C     0.42697   0.81144   0.02149   0.00000  Uiso   1.00
C524   C     0.57406   0.85298   0.02552   0.00000  Uiso   1.00
C525   C     0.57308   0.85514   0.47851   0.00000  Uiso   1.00
C526   C     0.35531   0.79403   0.26363   0.00000  Uiso   1.00
C527   C     0.64469   0.87264   0.23638   0.00000  Uiso   1.00
C528   C     0.64706   0.79156   0.25149   0.00000  Uiso   1.00
C529   C     0.35294   0.87511   0.24852   0.00000  Uiso   1.00
C530   C     0.62434   0.83171   0.24197   0.00000  Uiso   1.00
H531   H     0.42141   0.81480   0.35524   0.00000  Uiso   1.00
H532   H     0.47900   0.72454   0.15781   0.00000  Uiso   1.00
H533   H     0.56073   0.92670   0.30753   0.00000  Uiso   1.00
H534   H     0.52100   0.94212   0.34219   0.00000  Uiso   1.00
H535   H     0.42503   0.87103   0.36291   0.00000  Uiso   1.00
H536   H     0.57857   0.85193   0.14477   0.00000  Uiso   1.00
H537   H     0.57501   0.79569   0.13715   0.00000  Uiso   1.00
H538   H     0.55834   0.73843   0.30831   0.00000  Uiso   1.00
H539   H     0.51948   0.72222   0.34257   0.00000  Uiso   1.00
H540   H     0.44166   0.92824   0.19169   0.00000  Uiso   1.00
H541   H     0.48052   0.94445   0.15743   0.00000  Uiso   1.00
H542   H     0.43927   0.73997   0.19247   0.00000  Uiso   1.00
N543   N     0.50000   0.95240   0.25000   0.00000  Uiso   1.00
N544   N     0.50000   0.71427   0.25000   0.00000  Uiso   1.00
N545   N     0.42392   0.84007   0.37939   0.00000  Uiso   1.00
N546   N     0.57609   0.82664   0.12064   0.00000  Uiso   1.00
N547   N     0.54172   0.71142   0.31991   0.00000  Uiso   1.00
N548   N     0.45828   0.95525   0.18009   0.00000  Uiso   1.00
N549   N     0.45735   0.71346   0.18054   0.00000  Uiso   1.00
N550   N     0.54265   0.95321   0.31946   0.00000  Uiso   1.00
O551   O     0.43892   0.87154   0.24999   0.00000  Uiso   1.00
O552   O     0.56108   0.79513   0.25001   0.00000  Uiso   1.00
O553   O     0.56108   0.87154   0.25001   0.00000  Uiso   1.00
O554   O     0.43892   0.79513   0.24999   0.00000  Uiso   1.00
O555   O     0.49999   0.87156   0.18392   0.00000  Uiso   1.00
O556   O     0.50001   0.79511   0.31608   0.00000  Uiso   1.00
O557   O     0.50001   0.87156   0.31607   0.00000  Uiso   1.00
O558   O     0.49999   0.79511   0.18393   0.00000  Uiso   1.00
Zn559  Zn    0.50000   0.88437   0.25000   0.00000  Uiso   1.00
Zn560  Zn    0.50000   0.78229   0.25000   0.00000  Uiso   1.00
Br561  Br    0.92122   0.81663   0.37620   0.00000  Uiso   1.00
Br562  Br    0.70837   0.93468   0.25758   0.00000  Uiso   1.00
Br563  Br    0.74545   0.84999   0.12377   0.00000  Uiso   1.00
Br564  Br    0.71024   0.79145   0.44289   0.00000  Uiso   1.00
Br565  Br    0.95652   0.87503   0.05709   0.00000  Uiso   1.00
Br566  Br    0.71744   0.77786   0.05039   0.00000  Uiso   1.00
Br567  Br    0.94929   0.88870   0.44961   0.00000  Uiso   1.00
Br568  Br    0.71513   0.74208   0.29314   0.00000  Uiso   1.00
Br569  Br    0.95154   0.92459   0.20688   0.00000  Uiso   1.00
Br570  Br    0.95829   0.73199   0.24244   0.00000  Uiso   1.00
C571   C     0.75352   0.83388   0.25404   0.00000  Uiso   1.00
C572   C     0.70899   0.83496   0.25803   0.00000  Uiso   1.00
C573   C     0.85416   0.68986   0.28312   0.00000  Uiso   1.00
C574   C     0.81251   0.97680   0.21688   0.00000  Uiso   1.00
C575   C     0.81236   0.69091   0.21695   0.00000  Uiso   1.00
C576   C     0.85431   0.97576   0.28305   0.00000  Uiso   1.00
C577   C     0.83313   0.83336   0.16374   0.00000  Uiso   1.00
C578   C     0.83353   0.83330   0.33626   0.00000  Uiso   1.00
C579   C     0.87126   0.83391   0.40760   0.00000  Uiso   1.00
C580   C     0.79543   0.83272   0.09239   0.00000  Uiso   1.00
C581   C     0.83339   0.83334   0.38393   0.00000  Uiso   1.00
C582   C     0.91315   0.83279   0.24596   0.00000  Uiso   1.00
C583   C     0.83329   0.83332   0.11607   0.00000  Uiso   1.00
C584   C     0.79528   0.83301   0.40519   0.00000  Uiso   1.00
C585   C     0.87141   0.83365   0.09482   0.00000  Uiso   1.00
C586   C     0.79523   0.82709   0.45188   0.00000  Uiso   1.00
C587   C     0.87147   0.83952   0.04813   0.00000  Uiso   1.00
C588   C     0.83323   0.83350   0.47653   0.00000  Uiso   1.00
C589   C     0.83348   0.83310   0.02348   0.00000  Uiso   1.00
C590   C     0.87094   0.84067   0.45407   0.00000  Uiso   1.00
C591   C     0.79577   0.82593   0.04593   0.00000  Uiso   1.00
C592   C     0.75933   0.81359   0.47448   0.00000  Uiso   1.00
C593   C     0.76030   0.81144   0.02149   0.00000  Uiso   1.00
C594   C     0.90739   0.85298   0.02552   0.00000  Uiso   1.00
C595   C     0.90641   0.85514   0.47851   0.00000  Uiso   1.00
C596   C     0.68865   0.79403   0.26363   0.00000  Uiso   1.00
C597   C     0.97802   0.87264   0.23638   0.00000  Uiso   1.00
C598   C     0.98040   0.79156   0.25149   0.00000  Uiso   1.00
C599   C     0.68627   0.87511   0.24852   0.00000  Uiso   1.00
C600   C     0.95767   0.83171   0.24197   0.00000  Uiso   1.00
H601   H     0.75474   0.81480   0.35524   0.00000  Uiso   1.00
H602   H     0.81233   0.72454   0.15781   0.00000  Uiso   1.00
H603   H     0.89407   0.92670   0.30753   0.00000  Uiso   1.00
H604   H     0.85433   0.94212   0.34219   0.00000  Uiso   1.00
H605   H     0.75836   0.87103   0.36291   0.00000  Uiso   1.00
H606   H     0.91191   0.85193   0.14477   0.00000  Uiso   1.00
H607   H     0.90834   0.79569   0.13715   0.00000  Uiso   1.00
H608   H     0.89167   0.73843   0.30831   0.00000  Uiso   1.00
H609   H     0.85281   0.72222   0.34257   0.00000  Uiso   1.00
H610   H     0.77500   0.92824   0.19169   0.00000  Uiso   1.00
H611   H     0.81385   0.94445   0.15743   0.00000  Uiso   1.00
H612   H     0.77260   0.73997   0.19247   0.00000  Uiso   1.00
N613   N     0.83333   0.95240   0.25000   0.00000  Uiso   1.00
N614   N     0.83333   0.71427   0.25000   0.00000  Uiso   1.00
N615   N     0.75726   0.84007   0.37939   0.00000  Uiso   1.00
N616   N     0.90942   0.82664   0.12064   0.00000  Uiso   1.00
N617   N     0.87505   0.71142   0.31991   0.00000  Uiso   1.00
N618   N     0.79161   0.95525   0.18009   0.00000  Uiso   1.00
N619   N     0.79069   0.71346   0.18054   0.00000  Uiso   1.00
N620   N     0.87598   0.95321   0.31946   0.00000  Uiso   1.00
O621   O     0.77226   0.87154   0.24999   0.00000  Uiso   1.00
O622   O     0.89441   0.79513   0.25001   0.00000  Uiso   1.00
O623   O     0.89441   0.87154   0.25001   0.00000  Uiso   1.00
O624   O     0.77226   0.79513   0.24999   0.00000  Uiso   1.00
O625   O     0.83333   0.87156   0.18392   0.00000  Uiso   1.00
O626   O     0.83334   0.79511   0.31608   0.00000  Uiso   1.00
O627   O     0.83334   0.87156   0.31607   0.00000  Uiso   1.00
O628   O     0.83333   0.79511   0.18393   0.00000  Uiso   1.00
Zn629  Zn    0.83333   0.88437   0.25000   0.00000  Uiso   1.00
Zn630  Zn    0.83333   0.78229   0.25000   0.00000  Uiso   1.00
Br631  Br    0.25455   0.14997   0.87620   0.00000  Uiso   1.00
Br632  Br    0.04171   0.26801   0.75758   0.00000  Uiso   1.00
Br633  Br    0.07879   0.18332   0.62377   0.00000  Uiso   1.00
Br634  Br    0.04357   0.12478   0.94289   0.00000  Uiso   1.00
Br635  Br    0.28985   0.20836   0.55709   0.00000  Uiso   1.00
Br636  Br    0.05077   0.11120   0.55039   0.00000  Uiso   1.00
Br637  Br    0.28262   0.22203   0.94961   0.00000  Uiso   1.00
Br638  Br    0.04846   0.07541   0.79314   0.00000  Uiso   1.00
Br639  Br    0.28487   0.25793   0.70688   0.00000  Uiso   1.00
Br640  Br    0.29163   0.06532   0.74244   0.00000  Uiso   1.00
C641   C     0.08685   0.16721   0.75404   0.00000  Uiso   1.00
C642   C     0.04233   0.16829   0.75803   0.00000  Uiso   1.00
C643   C     0.18749   0.02320   0.78312   0.00000  Uiso   1.00
C644   C     0.14584   0.31014   0.71688   0.00000  Uiso   1.00
C645   C     0.14569   0.02424   0.71695   0.00000  Uiso   1.00
C646   C     0.18764   0.30909   0.78305   0.00000  Uiso   1.00
C647   C     0.16647   0.16670   0.66374   0.00000  Uiso   1.00
C648   C     0.16687   0.16664   0.83626   0.00000  Uiso   1.00
C649   C     0.20459   0.16724   0.90760   0.00000  Uiso   1.00
C650   C     0.12877   0.16605   0.59239   0.00000  Uiso   1.00
C651   C     0.16672   0.16667   0.88393   0.00000  Uiso   1.00
C652   C     0.24648   0.16612   0.74596   0.00000  Uiso   1.00
C653   C     0.16663   0.16666   0.61607   0.00000  Uiso   1.00
C654   C     0.12862   0.16634   0.90519   0.00000  Uiso   1.00
C655   C     0.20474   0.16698   0.59482   0.00000  Uiso   1.00
C656   C     0.12857   0.16042   0.95188   0.00000  Uiso   1.00
C657   C     0.20480   0.17286   0.54813   0.00000  Uiso   1.00
C658   C     0.16656   0.16684   0.97653   0.00000  Uiso   1.00
C659   C     0.16681   0.16643   0.52348   0.00000  Uiso   1.00
C660   C     0.20427   0.17401   0.95407   0.00000  Uiso   1.00
C661   C     0.12910   0.15926   0.54593   0.00000  Uiso   1.00
C662   C     0.09266   0.14693   0.97448   0.00000  Uiso   1.00
C663   C     0.09363   0.14477   0.52149   0.00000  Uiso   1.00
C664   C     0.24072   0.18631   0.52552   0.00000  Uiso   1.00
C665   C     0.23975   0.18847   0.97851   0.00000  Uiso   1.00
C666   C     0.02198   0.12736   0.76363   0.00000  Uiso   1.00
C667   C     0.31135   0.20597   0.73638   0.00000  Uiso   1.00
C668   C     0.31373   0.12489   0.75149   0.00000  Uiso   1.00
C669   C     0.01961   0.20844   0.74852   0.00000  Uiso   1.00
C670   C     0.29101   0.16504   0.74197   0.00000  Uiso   1.00
H671   H     0.08808   0.14813   0.85524   0.00000  Uiso   1.00
H672   H     0.14567   0.05788   0.65781   0.00000  Uiso   1.00
H673   H     0.22740   0.26003   0.80753   0.00000  Uiso   1.00
H674   H     0.18767   0.27546   0.84219   0.00000  Uiso   1.00
H675   H     0.09169   0.20436   0.86291   0.00000  Uiso   1.00
H676   H     0.24524   0.18526   0.64477   0.00000  Uiso   1.00
H677   H     0.24167   0.12903   0.63715   0.00000  Uiso   1.00
H678   H     0.22501   0.07176   0.80831   0.00000  Uiso   1.00
H679   H     0.18615   0.05556   0.84257   0.00000  Uiso   1.00
H680   H     0.10833   0.26157   0.69169   0.00000  Uiso   1.00
H681   H     0.14718   0.27778   0.65743   0.00000  Uiso   1.00
H682   H     0.10593   0.07330   0.69247   0.00000  Uiso   1.00
N683   N     0.16667   0.28573   0.75000   0.00000  Uiso   1.00
N684   N     0.16667   0.04760   0.75000   0.00000  Uiso   1.00
N685   N     0.09059   0.17340   0.87939   0.00000  Uiso   1.00
N686   N     0.24276   0.15998   0.62064   0.00000  Uiso   1.00
N687   N     0.20839   0.04475   0.81991   0.00000  Uiso   1.00
N688   N     0.12495   0.28858   0.68009   0.00000  Uiso   1.00
N689   N     0.12402   0.04679   0.68054   0.00000  Uiso   1.00
N690   N     0.20931   0.28654   0.81946   0.00000  Uiso   1.00
O691   O     0.10559   0.20487   0.74999   0.00000  Uiso   1.00
O692   O     0.22774   0.12846   0.75001   0.00000  Uiso   1.00
O693   O     0.22774   0.20487   0.75001   0.00000  Uiso   1.00
O694   O     0.10559   0.12846   0.74999   0.00000  Uiso   1.00
O695   O     0.16666   0.20489   0.68392   0.00000  Uiso   1.00
O696   O     0.16667   0.12844   0.81608   0.00000  Uiso   1.00
O697   O     0.16667   0.20489   0.81607   0.00000  Uiso   1.00
O698   O     0.16666   0.12844   0.68393   0.00000  Uiso   1.00
Zn699  Zn    0.16667   0.21771   0.75000   0.00000  Uiso   1.00
Zn700  Zn    0.16667   0.11563   0.75000   0.00000  Uiso   1.00
Br701  Br    0.58789   0.14997   0.87620   0.00000  Uiso   1.00
Br702  Br    0.37504   0.26801   0.75758   0.00000  Uiso   1.00
Br703  Br    0.41212   0.18332   0.62377   0.00000  Uiso   1.00
Br704  Br    0.37691   0.12478   0.94289   0.00000  Uiso   1.00
Br705  Br    0.62319   0.20836   0.55709   0.00000  Uiso   1.00
Br706  Br    0.38410   0.11120   0.55039   0.00000  Uiso   1.00
Br707  Br    0.61596   0.22203   0.94961   0.00000  Uiso   1.00
Br708  Br    0.38180   0.07541   0.79314   0.00000  Uiso   1.00
Br709  Br    0.61821   0.25793   0.70688   0.00000  Uiso   1.00
Br710  Br    0.62496   0.06532   0.74244   0.00000  Uiso   1.00
C711   C     0.42018   0.16721   0.75404   0.00000  Uiso   1.00
C712   C     0.37566   0.16829   0.75803   0.00000  Uiso   1.00
C713   C     0.52083   0.02320   0.78312   0.00000  Uiso   1.00
C714   C     0.47917   0.31014   0.71688   0.00000  Uiso   1.00
C715   C     0.47902   0.02424   0.71695   0.00000  Uiso   1.00
C716   C     0.52098   0.30909   0.78305   0.00000  Uiso   1.00
C717   C     0.49980   0.16670   0.66374   0.00000  Uiso   1.00
C718   C     0.50020   0.16664   0.83626   0.00000  Uiso   1.00
C719   C     0.53792   0.16724   0.90760   0.00000  Uiso   1.00
C720   C     0.46210   0.16605   0.59239   0.00000  Uiso   1.00
C721   C     0.50005   0.16667   0.88393   0.00000  Uiso   1.00
C722   C     0.57982   0.16612   0.74596   0.00000  Uiso   1.00
C723   C     0.49996   0.16666   0.61607   0.00000  Uiso   1.00
C724   C     0.46195   0.16634   0.90519   0.00000  Uiso   1.00
C725   C     0.53807   0.16698   0.59482   0.00000  Uiso   1.00
C726   C     0.46190   0.16042   0.95188   0.00000  Uiso   1.00
C727   C     0.53814   0.17286   0.54813   0.00000  Uiso   1.00
C728   C     0.49989   0.16684   0.97653   0.00000  Uiso   1.00
C729   C     0.50015   0.16643   0.52348   0.00000  Uiso   1.00
C730   C     0.53760   0.17401   0.95407   0.00000  Uiso   1.00
C731   C     0.46243   0.15926   0.54593   0.00000  Uiso   1.00
C732   C     0.42599   0.14693   0.97448   0.00000  Uiso   1.00
C733   C     0.42697   0.14477   0.52149   0.00000  Uiso   1.00
C734   C     0.57406   0.18631   0.52552   0.00000  Uiso   1.00
C735   C     0.57308   0.18847   0.97851   0.00000  Uiso   1.00
C736   C     0.35531   0.12736   0.76363   0.00000  Uiso   1.00
C737   C     0.64469   0.20597   0.73638   0.00000  Uiso   1.00
C738   C     0.64706   0.12489   0.75149   0.00000  Uiso   1.00
C739   C     0.35294   0.20844   0.74852   0.00000  Uiso   1.00
C740   C     0.62434   0.16504   0.74197   0.00000  Uiso   1.00
H741   H     0.42141   0.14813   0.85524   0.00000  Uiso   1.00
H742   H     0.47900   0.05788   0.65781   0.00000  Uiso   1.00
H743   H     0.56073   0.26003   0.80753   0.00000  Uiso   1.00
H744   H     0.52100   0.27546   0.84219   0.00000  Uiso   1.00
H745   H     0.42503   0.20436   0.86291   0.00000  Uiso   1.00
H746   H     0.57857   0.18526   0.64477   0.00000  Uiso   1.00
H747   H     0.57501   0.12903   0.63715   0.00000  Uiso   1.00
H748   H     0.55834   0.07176   0.80831   0.00000  Uiso   1.00
H749   H     0.51948   0.05556   0.84257   0.00000  Uiso   1.00
H750   H     0.44166   0.26157   0.69169   0.00000  Uiso   1.00
H751   H     0.48052   0.27778   0.65743   0.00000  Uiso   1.00
H752   H     0.43927   0.07330   0.69247   0.00000  Uiso   1.00
N753   N     0.50000   0.28573   0.75000   0.00000  Uiso   1.00
N754   N     0.50000   0.04760   0.75000   0.00000  Uiso   1.00
N755   N     0.42392   0.17340   0.87939   0.00000  Uiso   1.00
N756   N     0.57609   0.15998   0.62064   0.00000  Uiso   1.00
N757   N     0.54172   0.04475   0.81991   0.00000  Uiso   1.00
N758   N     0.45828   0.28858   0.68009   0.00000  Uiso   1.00
N759   N     0.45735   0.04679   0.68054   0.00000  Uiso   1.00
N760   N     0.54265   0.28654   0.81946   0.00000  Uiso   1.00
O761   O     0.43892   0.20487   0.74999   0.00000  Uiso   1.00
O762   O     0.56108   0.12846   0.75001   0.00000  Uiso   1.00
O763   O     0.56108   0.20487   0.75001   0.00000  Uiso   1.00
O764   O     0.43892   0.12846   0.74999   0.00000  Uiso   1.00
O765   O     0.49999   0.20489   0.68392   0.00000  Uiso   1.00
O766   O     0.50001   0.12844   0.81608   0.00000  Uiso   1.00
O767   O     0.50001   0.20489   0.81607   0.00000  Uiso   1.00
O768   O     0.49999   0.12844   0.68393   0.00000  Uiso   1.00
Zn769  Zn    0.50000   0.21771   0.75000   0.00000  Uiso   1.00
Zn770  Zn    0.50000   0.11563   0.75000   0.00000  Uiso   1.00
Br771  Br    0.92122   0.14997   0.87620   0.00000  Uiso   1.00
Br772  Br    0.70837   0.26801   0.75758   0.00000  Uiso   1.00
Br773  Br    0.74545   0.18332   0.62377   0.00000  Uiso   1.00
Br774  Br    0.71024   0.12478   0.94289   0.00000  Uiso   1.00
Br775  Br    0.95652   0.20836   0.55709   0.00000  Uiso   1.00
Br776  Br    0.71744   0.11120   0.55039   0.00000  Uiso   1.00
Br777  Br    0.94929   0.22203   0.94961   0.00000  Uiso   1.00
Br778  Br    0.71513   0.07541   0.79314   0.00000  Uiso   1.00
Br779  Br    0.95154   0.25793   0.70688   0.00000  Uiso   1.00
Br780  Br    0.95829   0.06532   0.74244   0.00000  Uiso   1.00
C781   C     0.75352   0.16721   0.75404   0.00000  Uiso   1.00
C782   C     0.70899   0.16829   0.75803   0.00000  Uiso   1.00
C783   C     0.85416   0.02320   0.78312   0.00000  Uiso   1.00
C784   C     0.81251   0.31014   0.71688   0.00000  Uiso   1.00
C785   C     0.81236   0.02424   0.71695   0.00000  Uiso   1.00
C786   C     0.85431   0.30909   0.78305   0.00000  Uiso   1.00
C787   C     0.83313   0.16670   0.66374   0.00000  Uiso   1.00
C788   C     0.83353   0.16664   0.83626   0.00000  Uiso   1.00
C789   C     0.87126   0.16724   0.90760   0.00000  Uiso   1.00
C790   C     0.79543   0.16605   0.59239   0.00000  Uiso   1.00
C791   C     0.83339   0.16667   0.88393   0.00000  Uiso   1.00
C792   C     0.91315   0.16612   0.74596   0.00000  Uiso   1.00
C793   C     0.83329   0.16666   0.61607   0.00000  Uiso   1.00
C794   C     0.79528   0.16634   0.90519   0.00000  Uiso   1.00
C795   C     0.87141   0.16698   0.59482   0.00000  Uiso   1.00
C796   C     0.79523   0.16042   0.95188   0.00000  Uiso   1.00
C797   C     0.87147   0.17286   0.54813   0.00000  Uiso   1.00
C798   C     0.83323   0.16684   0.97653   0.00000  Uiso   1.00
C799   C     0.83348   0.16643   0.52348   0.00000  Uiso   1.00
C800   C     0.87094   0.17401   0.95407   0.00000  Uiso   1.00
C801   C     0.79577   0.15926   0.54593   0.00000  Uiso   1.00
C802   C     0.75933   0.14693   0.97448   0.00000  Uiso   1.00
C803   C     0.76030   0.14477   0.52149   0.00000  Uiso   1.00
C804   C     0.90739   0.18631   0.52552   0.00000  Uiso   1.00
C805   C     0.90641   0.18847   0.97851   0.00000  Uiso   1.00
C806   C     0.68865   0.12736   0.76363   0.00000  Uiso   1.00
C807   C     0.97802   0.20597   0.73638   0.00000  Uiso   1.00
C808   C     0.98040   0.12489   0.75149   0.00000  Uiso   1.00
C809   C     0.68627   0.20844   0.74852   0.00000  Uiso   1.00
C810   C     0.95767   0.16504   0.74197   0.00000  Uiso   1.00
H811   H     0.75474   0.14813   0.85524   0.00000  Uiso   1.00
H812   H     0.81233   0.05788   0.65781   0.00000  Uiso   1.00
H813   H     0.89407   0.26003   0.80753   0.00000  Uiso   1.00
H814   H     0.85433   0.27546   0.84219   0.00000  Uiso   1.00
H815   H     0.75836   0.20436   0.86291   0.00000  Uiso   1.00
H816   H     0.91191   0.18526   0.64477   0.00000  Uiso   1.00
H817   H     0.90834   0.12903   0.63715   0.00000  Uiso   1.00
H818   H     0.89167   0.07176   0.80831   0.00000  Uiso   1.00
H819   H     0.85281   0.05556   0.84257   0.00000  Uiso   1.00
H820   H     0.77500   0.26157   0.69169   0.00000  Uiso   1.00
H821   H     0.81385   0.27778   0.65743   0.00000  Uiso   1.00
H822   H     0.77260   0.07330   0.69247   0.00000  Uiso   1.00
N823   N     0.83333   0.28573   0.75000   0.00000  Uiso   1.00
N824   N     0.83333   0.04760   0.75000   0.00000  Uiso   1.00
N825   N     0.75726   0.17340   0.87939   0.00000  Uiso   1.00
N826   N     0.90942   0.15998   0.62064   0.00000  Uiso   1.00
N827   N     0.87505   0.04475   0.81991   0.00000  Uiso   1.00
N828   N     0.79161   0.28858   0.68009   0.00000  Uiso   1.00
N829   N     0.79069   0.04679   0.68054   0.00000  Uiso   1.00
N830   N     0.87598   0.28654   0.81946   0.00000  Uiso   1.00
O831   O     0.77226   0.20487   0.74999   0.00000  Uiso   1.00
O832   O     0.89441   0.12846   0.75001   0.00000  Uiso   1.00
O833   O     0.89441   0.20487   0.75001   0.00000  Uiso   1.00
O834   O     0.77226   0.12846   0.74999   0.00000  Uiso   1.00
O835   O     0.83333   0.20489   0.68392   0.00000  Uiso   1.00
O836   O     0.83334   0.12844   0.81608   0.00000  Uiso   1.00
O837   O     0.83334   0.20489   0.81607   0.00000  Uiso   1.00
O838   O     0.83333   0.12844   0.68393   0.00000  Uiso   1.00
Zn839  Zn    0.83333   0.21771   0.75000   0.00000  Uiso   1.00
Zn840  Zn    0.83333   0.11563   0.75000   0.00000  Uiso   1.00
Br841  Br    0.25455   0.48330   0.87620   0.00000  Uiso   1.00
Br842  Br    0.04171   0.60134   0.75758   0.00000  Uiso   1.00
Br843  Br    0.07879   0.51666   0.62377   0.00000  Uiso   1.00
Br844  Br    0.04357   0.45812   0.94289   0.00000  Uiso   1.00
Br845  Br    0.28985   0.54170   0.55709   0.00000  Uiso   1.00
Br846  Br    0.05077   0.44453   0.55039   0.00000  Uiso   1.00
Br847  Br    0.28262   0.55537   0.94961   0.00000  Uiso   1.00
Br848  Br    0.04846   0.40875   0.79314   0.00000  Uiso   1.00
Br849  Br    0.28487   0.59126   0.70688   0.00000  Uiso   1.00
Br850  Br    0.29163   0.39866   0.74244   0.00000  Uiso   1.00
C851   C     0.08685   0.50054   0.75404   0.00000  Uiso   1.00
C852   C     0.04233   0.50163   0.75803   0.00000  Uiso   1.00
C853   C     0.18749   0.35653   0.78312   0.00000  Uiso   1.00
C854   C     0.14584   0.64347   0.71688   0.00000  Uiso   1.00
C855   C     0.14569   0.35758   0.71695   0.00000  Uiso   1.00
C856   C     0.18764   0.64242   0.78305   0.00000  Uiso   1.00
C857   C     0.16647   0.50003   0.66374   0.00000  Uiso   1.00
C858   C     0.16687   0.49997   0.83626   0.00000  Uiso   1.00
C859   C     0.20459   0.50058   0.90760   0.00000  Uiso   1.00
C860   C     0.12877   0.49939   0.59239   0.00000  Uiso   1.00
C861   C     0.16672   0.50000   0.88393   0.00000  Uiso   1.00
C862   C     0.24648   0.49946   0.74596   0.00000  Uiso   1.00
C863   C     0.16663   0.49999   0.61607   0.00000  Uiso   1.00
C864   C     0.12862   0.49967   0.90519   0.00000  Uiso   1.00
C865   C     0.20474   0.50031   0.59482   0.00000  Uiso   1.00
C866   C     0.12857   0.49375   0.95188   0.00000  Uiso   1.00
C867   C     0.20480   0.50619   0.54813   0.00000  Uiso   1.00
C868   C     0.16656   0.50017   0.97653   0.00000  Uiso   1.00
C869   C     0.16681   0.49977   0.52348   0.00000  Uiso   1.00
C870   C     0.20427   0.50734   0.95407   0.00000  Uiso   1.00
C871   C     0.12910   0.49260   0.54593   0.00000  Uiso   1.00
C872   C     0.09266   0.48026   0.97448   0.00000  Uiso   1.00
C873   C     0.09363   0.47810   0.52149   0.00000  Uiso   1.00
C874   C     0.24072   0.51964   0.52552   0.00000  Uiso   1.00
C875   C     0.23975   0.52181   0.97851   0.00000  Uiso   1.00
C876   C     0.02198   0.46070   0.76363   0.00000  Uiso   1.00
C877   C     0.31135   0.53931   0.73638   0.00000  Uiso   1.00
C878   C     0.31373   0.45822   0.75149   0.00000  Uiso   1.00
C879   C     0.01961   0.54178   0.74852   0.00000  Uiso   1.00
C880   C     0.29101   0.49837   0.74197   0.00000  Uiso   1.00
H881   H     0.08808   0.48147   0.85524   0.00000  Uiso   1.00
H882   H     0.14567   0.39121   0.65781   0.00000  Uiso   1.00
H883   H     0.22740   0.59337   0.80753   0.00000  Uiso   1.00
H884   H     0.18767   0.60879   0.84219   0.00000  Uiso   1.00
H885   H     0.09169   0.53769   0.86291   0.00000  Uiso   1.00
H886   H     0.24524   0.51860   0.64477   0.00000  Uiso   1.00
H887   H     0.24167   0.46236   0.63715   0.00000  Uiso   1.00
H888   H     0.22501   0.40509   0.80831   0.00000  Uiso   1.00
H889   H     0.18615   0.38889   0.84257   0.00000  Uiso   1.00
H890   H     0.10833   0.59490   0.69169   0.00000  Uiso   1.00
H891   H     0.14718   0.61111   0.65743   0.00000  Uiso   1.00
H892   H     0.10593   0.40663   0.69247   0.00000  Uiso   1.00
N893   N     0.16667   0.61907   0.75000   0.00000  Uiso   1.00
N894   N     0.16667   0.38093   0.75000   0.00000  Uiso   1.00
N895   N     0.09059   0.50673   0.87939   0.00000  Uiso   1.00
N896   N     0.24276   0.49331   0.62064   0.00000  Uiso   1.00
N897   N     0.20839   0.37809   0.81991   0.00000  Uiso   1.00
N898   N     0.12495   0.62191   0.68009   0.00000  Uiso   1.00
N899   N     0.12402   0.38012   0.68054   0.00000  Uiso   1.00
N900   N     0.20931   0.61988   0.81946   0.00000  Uiso   1.00
O901   O     0.10559   0.53821   0.74999   0.00000  Uiso   1.00
O902   O     0.22774   0.46179   0.75001   0.00000  Uiso   1.00
O903   O     0.22774   0.53821   0.75001   0.00000  Uiso   1.00
O904   O     0.10559   0.46179   0.74999   0.00000  Uiso   1.00
O905   O     0.16666   0.53823   0.68392   0.00000  Uiso   1.00
O906   O     0.16667   0.46177   0.81608   0.00000  Uiso   1.00
O907   O     0.16667   0.53823   0.81607   0.00000  Uiso   1.00
O908   O     0.16666   0.46177   0.68393   0.00000  Uiso   1.00
Zn909  Zn    0.16667   0.55104   0.75000   0.00000  Uiso   1.00
Zn910  Zn    0.16667   0.44896   0.75000   0.00000  Uiso   1.00
Br911  Br    0.58789   0.48330   0.87620   0.00000  Uiso   1.00
Br912  Br    0.37504   0.60134   0.75758   0.00000  Uiso   1.00
Br913  Br    0.41212   0.51666   0.62377   0.00000  Uiso   1.00
Br914  Br    0.37691   0.45812   0.94289   0.00000  Uiso   1.00
Br915  Br    0.62319   0.54170   0.55709   0.00000  Uiso   1.00
Br916  Br    0.38410   0.44453   0.55039   0.00000  Uiso   1.00
Br917  Br    0.61596   0.55537   0.94961   0.00000  Uiso   1.00
Br918  Br    0.38180   0.40875   0.79314   0.00000  Uiso   1.00
Br919  Br    0.61821   0.59126   0.70688   0.00000  Uiso   1.00
Br920  Br    0.62496   0.39866   0.74244   0.00000  Uiso   1.00
C921   C     0.42018   0.50054   0.75404   0.00000  Uiso   1.00
C922   C     0.37566   0.50163   0.75803   0.00000  Uiso   1.00
C923   C     0.52083   0.35653   0.78312   0.00000  Uiso   1.00
C924   C     0.47917   0.64347   0.71688   0.00000  Uiso   1.00
C925   C     0.47902   0.35758   0.71695   0.00000  Uiso   1.00
C926   C     0.52098   0.64242   0.78305   0.00000  Uiso   1.00
C927   C     0.49980   0.50003   0.66374   0.00000  Uiso   1.00
C928   C     0.50020   0.49997   0.83626   0.00000  Uiso   1.00
C929   C     0.53792   0.50058   0.90760   0.00000  Uiso   1.00
C930   C     0.46210   0.49939   0.59239   0.00000  Uiso   1.00
C931   C     0.50005   0.50000   0.88393   0.00000  Uiso   1.00
C932   C     0.57982   0.49946   0.74596   0.00000  Uiso   1.00
C933   C     0.49996   0.49999   0.61607   0.00000  Uiso   1.00
C934   C     0.46195   0.49967   0.90519   0.00000  Uiso   1.00
C935   C     0.53807   0.50031   0.59482   0.00000  Uiso   1.00
C936   C     0.46190   0.49375   0.95188   0.00000  Uiso   1.00
C937   C     0.53814   0.50619   0.54813   0.00000  Uiso   1.00
C938   C     0.49989   0.50017   0.97653   0.00000  Uiso   1.00
C939   C     0.50015   0.49977   0.52348   0.00000  Uiso   1.00
C940   C     0.53760   0.50734   0.95407   0.00000  Uiso   1.00
C941   C     0.46243   0.49260   0.54593   0.00000  Uiso   1.00
C942   C     0.42599   0.48026   0.97448   0.00000  Uiso   1.00
C943   C     0.42697   0.47810   0.52149   0.00000  Uiso   1.00
C944   C     0.57406   0.51964   0.52552   0.00000  Uiso   1.00
C945   C     0.57308   0.52181   0.97851   0.00000  Uiso   1.00
C946   C     0.35531   0.46070   0.76363   0.00000  Uiso   1.00
C947   C     0.64469   0.53931   0.73638   0.00000  Uiso   1.00
C948   C     0.64706   0.45822   0.75149   0.00000  Uiso   1.00
C949   C     0.35294   0.54178   0.74852   0.00000  Uiso   1.00
C950   C     0.62434   0.49837   0.74197   0.00000  Uiso   1.00
H951   H     0.42141   0.48147   0.85524   0.00000  Uiso   1.00
H952   H     0.47900   0.39121   0.65781   0.00000  Uiso   1.00
H953   H     0.56073   0.59337   0.80753   0.00000  Uiso   1.00
H954   H     0.52100   0.60879   0.84219   0.00000  Uiso   1.00
H955   H     0.42503   0.53769   0.86291   0.00000  Uiso   1.00
H956   H     0.57857   0.51860   0.64477   0.00000  Uiso   1.00
H957   H     0.57501   0.46236   0.63715   0.00000  Uiso   1.00
H958   H     0.55834   0.40509   0.80831   0.00000  Uiso   1.00
H959   H     0.51948   0.38889   0.84257   0.00000  Uiso   1.00
H960   H     0.44166   0.59490   0.69169   0.00000  Uiso   1.00
H961   H     0.48052   0.61111   0.65743   0.00000  Uiso   1.00
H962   H     0.43927   0.40663   0.69247   0.00000  Uiso   1.00
N963   N     0.50000   0.61907   0.75000   0.00000  Uiso   1.00
N964   N     0.50000   0.38093   0.75000   0.00000  Uiso   1.00
N965   N     0.42392   0.50673   0.87939   0.00000  Uiso   1.00
N966   N     0.57609   0.49331   0.62064   0.00000  Uiso   1.00
N967   N     0.54172   0.37809   0.81991   0.00000  Uiso   1.00
N968   N     0.45828   0.62191   0.68009   0.00000  Uiso   1.00
N969   N     0.45735   0.38012   0.68054   0.00000  Uiso   1.00
N970   N     0.54265   0.61988   0.81946   0.00000  Uiso   1.00
O971   O     0.43892   0.53821   0.74999   0.00000  Uiso   1.00
O972   O     0.56108   0.46179   0.75001   0.00000  Uiso   1.00
O973   O     0.56108   0.53821   0.75001   0.00000  Uiso   1.00
O974   O     0.43892   0.46179   0.74999   0.00000  Uiso   1.00
O975   O     0.49999   0.53823   0.68392   0.00000  Uiso   1.00
O976   O     0.50001   0.46177   0.81608   0.00000  Uiso   1.00
O977   O     0.50001   0.53823   0.81607   0.00000  Uiso   1.00
O978   O     0.49999   0.46177   0.68393   0.00000  Uiso   1.00
Zn979  Zn    0.50000   0.55104   0.75000   0.00000  Uiso   1.00
Zn980  Zn    0.50000   0.44896   0.75000   0.00000  Uiso   1.00
Br981  Br    0.92122   0.48330   0.87620   0.00000  Uiso   1.00
Br982  Br    0.70837   0.60134   0.75758   0.00000  Uiso   1.00
Br983  Br    0.74545   0.51666   0.62377   0.00000  Uiso   1.00
Br984  Br    0.71024   0.45812   0.94289   0.00000  Uiso   1.00
Br985  Br    0.95652   0.54170   0.55709   0.00000  Uiso   1.00
Br986  Br    0.71744   0.44453   0.55039   0.00000  Uiso   1.00
Br987  Br    0.94929   0.55537   0.94961   0.00000  Uiso   1.00
Br988  Br    0.71513   0.40875   0.79314   0.00000  Uiso   1.00
Br989  Br    0.95154   0.59126   0.70688   0.00000  Uiso   1.00
Br990  Br    0.95829   0.39866   0.74244   0.00000  Uiso   1.00
C991   C     0.75352   0.50054   0.75404   0.00000  Uiso   1.00
C992   C     0.70899   0.50163   0.75803   0.00000  Uiso   1.00
C993   C     0.85416   0.35653   0.78312   0.00000  Uiso   1.00
C994   C     0.81251   0.64347   0.71688   0.00000  Uiso   1.00
C995   C     0.81236   0.35758   0.71695   0.00000  Uiso   1.00
C996   C     0.85431   0.64242   0.78305   0.00000  Uiso   1.00
C997   C     0.83313   0.50003   0.66374   0.00000  Uiso   1.00
C998   C     0.83353   0.49997   0.83626   0.00000  Uiso   1.00
C999   C     0.87126   0.50058   0.90760   0.00000  Uiso   1.00
C1000  C     0.79543   0.49939   0.59239   0.00000  Uiso   1.00
C1001  C     0.83339   0.50000   0.88393   0.00000  Uiso   1.00
C1002  C     0.91315   0.49946   0.74596   0.00000  Uiso   1.00
C1003  C     0.83329   0.49999   0.61607   0.00000  Uiso   1.00
C1004  C     0.79528   0.49967   0.90519   0.00000  Uiso   1.00
C1005  C     0.87141   0.50031   0.59482   0.00000  Uiso   1.00
C1006  C     0.79523   0.49375   0.95188   0.00000  Uiso   1.00
C1007  C     0.87147   0.50619   0.54813   0.00000  Uiso   1.00
C1008  C     0.83323   0.50017   0.97653   0.00000  Uiso   1.00
C1009  C     0.83348   0.49977   0.52348   0.00000  Uiso   1.00
C1010  C     0.87094   0.50734   0.95407   0.00000  Uiso   1.00
C1011  C     0.79577   0.49260   0.54593   0.00000  Uiso   1.00
C1012  C     0.75933   0.48026   0.97448   0.00000  Uiso   1.00
C1013  C     0.76030   0.47810   0.52149   0.00000  Uiso   1.00
C1014  C     0.90739   0.51964   0.52552   0.00000  Uiso   1.00
C1015  C     0.90641   0.52181   0.97851   0.00000  Uiso   1.00
C1016  C     0.68865   0.46070   0.76363   0.00000  Uiso   1.00
C1017  C     0.97802   0.53931   0.73638   0.00000  Uiso   1.00
C1018  C     0.98040   0.45822   0.75149   0.00000  Uiso   1.00
C1019  C     0.68627   0.54178   0.74852   0.00000  Uiso   1.00
C1020  C     0.95767   0.49837   0.74197   0.00000  Uiso   1.00
H1021  H     0.75474   0.48147   0.85524   0.00000  Uiso   1.00
H1022  H     0.81233   0.39121   0.65781   0.00000  Uiso   1.00
H1023  H     0.89407   0.59337   0.80753   0.00000  Uiso   1.00
H1024  H     0.85433   0.60879   0.84219   0.00000  Uiso   1.00
H1025  H     0.75836   0.53769   0.86291   0.00000  Uiso   1.00
H1026  H     0.91191   0.51860   0.64477   0.00000  Uiso   1.00
H1027  H     0.90834   0.46236   0.63715   0.00000  Uiso   1.00
H1028  H     0.89167   0.40509   0.80831   0.00000  Uiso   1.00
H1029  H     0.85281   0.38889   0.84257   0.00000  Uiso   1.00
H1030  H     0.77500   0.59490   0.69169   0.00000  Uiso   1.00
H1031  H     0.81385   0.61111   0.65743   0.00000  Uiso   1.00
H1032  H     0.77260   0.40663   0.69247   0.00000  Uiso   1.00
N1033  N     0.83333   0.61907   0.75000   0.00000  Uiso   1.00
N1034  N     0.83333   0.38093   0.75000   0.00000  Uiso   1.00
N1035  N     0.75726   0.50673   0.87939   0.00000  Uiso   1.00
N1036  N     0.90942   0.49331   0.62064   0.00000  Uiso   1.00
N1037  N     0.87505   0.37809   0.81991   0.00000  Uiso   1.00
N1038  N     0.79161   0.62191   0.68009   0.00000  Uiso   1.00
N1039  N     0.79069   0.38012   0.68054   0.00000  Uiso   1.00
N1040  N     0.87598   0.61988   0.81946   0.00000  Uiso   1.00
O1041  O     0.77226   0.53821   0.74999   0.00000  Uiso   1.00
O1042  O     0.89441   0.46179   0.75001   0.00000  Uiso   1.00
O1043  O     0.89441   0.53821   0.75001   0.00000  Uiso   1.00
O1044  O     0.77226   0.46179   0.74999   0.00000  Uiso   1.00
O1045  O     0.83333   0.53823   0.68392   0.00000  Uiso   1.00
O1046  O     0.83334   0.46177   0.81608   0.00000  Uiso   1.00
O1047  O     0.83334   0.53823   0.81607   0.00000  Uiso   1.00
O1048  O     0.83333   0.46177   0.68393   0.00000  Uiso   1.00
Zn1049 Zn    0.83333   0.55104   0.75000   0.00000  Uiso   1.00
Zn1050 Zn    0.83333   0.44896   0.75000   0.00000  Uiso   1.00
Br1051 Br    0.25455   0.81663   0.87620   0.00000  Uiso   1.00
Br1052 Br    0.04171   0.93468   0.75758   0.00000  Uiso   1.00
Br1053 Br    0.07879   0.84999   0.62377   0.00000  Uiso   1.00
Br1054 Br    0.04357   0.79145   0.94289   0.00000  Uiso   1.00
Br1055 Br    0.28985   0.87503   0.55709   0.00000  Uiso   1.00
Br1056 Br    0.05077   0.77786   0.55039   0.00000  Uiso   1.00
Br1057 Br    0.28262   0.88870   0.94961   0.00000  Uiso   1.00
Br1058 Br    0.04846   0.74208   0.79314   0.00000  Uiso   1.00
Br1059 Br    0.28487   0.92459   0.70688   0.00000  Uiso   1.00
Br1060 Br    0.29163   0.73199   0.74244   0.00000  Uiso   1.00
C1061  C     0.08685   0.83388   0.75404   0.00000  Uiso   1.00
C1062  C     0.04233   0.83496   0.75803   0.00000  Uiso   1.00
C1063  C     0.18749   0.68986   0.78312   0.00000  Uiso   1.00
C1064  C     0.14584   0.97680   0.71688   0.00000  Uiso   1.00
C1065  C     0.14569   0.69091   0.71695   0.00000  Uiso   1.00
C1066  C     0.18764   0.97576   0.78305   0.00000  Uiso   1.00
C1067  C     0.16647   0.83336   0.66374   0.00000  Uiso   1.00
C1068  C     0.16687   0.83330   0.83626   0.00000  Uiso   1.00
C1069  C     0.20459   0.83391   0.90760   0.00000  Uiso   1.00
C1070  C     0.12877   0.83272   0.59239   0.00000  Uiso   1.00
C1071  C     0.16672   0.83334   0.88393   0.00000  Uiso   1.00
C1072  C     0.24648   0.83279   0.74596   0.00000  Uiso   1.00
C1073  C     0.16663   0.83332   0.61607   0.00000  Uiso   1.00
C1074  C     0.12862   0.83301   0.90519   0.00000  Uiso   1.00
C1075  C     0.20474   0.83365   0.59482   0.00000  Uiso   1.00
C1076  C     0.12857   0.82709   0.95188   0.00000  Uiso   1.00
C1077  C     0.20480   0.83952   0.54813   0.00000  Uiso   1.00
C1078  C     0.16656   0.83350   0.97653   0.00000  Uiso   1.00
C1079  C     0.16681   0.83310   0.52348   0.00000  Uiso   1.00
C1080  C     0.20427   0.84067   0.95407   0.00000  Uiso   1.00
C1081  C     0.12910   0.82593   0.54593   0.00000  Uiso   1.00
C1082  C     0.09266   0.81359   0.97448   0.00000  Uiso   1.00
C1083  C     0.09363   0.81144   0.52149   0.00000  Uiso   1.00
C1084  C     0.24072   0.85298   0.52552   0.00000  Uiso   1.00
C1085  C     0.23975   0.85514   0.97851   0.00000  Uiso   1.00
C1086  C     0.02198   0.79403   0.76363   0.00000  Uiso   1.00
C1087  C     0.31135   0.87264   0.73638   0.00000  Uiso   1.00
C1088  C     0.31373   0.79156   0.75149   0.00000  Uiso   1.00
C1089  C     0.01961   0.87511   0.74852   0.00000  Uiso   1.00
C1090  C     0.29101   0.83171   0.74197   0.00000  Uiso   1.00
H1091  H     0.08808   0.81480   0.85524   0.00000  Uiso   1.00
H1092  H     0.14567   0.72454   0.65781   0.00000  Uiso   1.00
H1093  H     0.22740   0.92670   0.80753   0.00000  Uiso   1.00
H1094  H     0.18767   0.94212   0.84219   0.00000  Uiso   1.00
H1095  H     0.09169   0.87103   0.86291   0.00000  Uiso   1.00
H1096  H     0.24524   0.85193   0.64477   0.00000  Uiso   1.00
H1097  H     0.24167   0.79569   0.63715   0.00000  Uiso   1.00
H1098  H     0.22501   0.73843   0.80831   0.00000  Uiso   1.00
H1099  H     0.18615   0.72222   0.84257   0.00000  Uiso   1.00
H1100  H     0.10833   0.92824   0.69169   0.00000  Uiso   1.00
H1101  H     0.14718   0.94445   0.65743   0.00000  Uiso   1.00
H1102  H     0.10593   0.73997   0.69247   0.00000  Uiso   1.00
N1103  N     0.16667   0.95240   0.75000   0.00000  Uiso   1.00
N1104  N     0.16667   0.71427   0.75000   0.00000  Uiso   1.00
N1105  N     0.09059   0.84007   0.87939   0.00000  Uiso   1.00
N1106  N     0.24276   0.82664   0.62064   0.00000  Uiso   1.00
N1107  N     0.20839   0.71142   0.81991   0.00000  Uiso   1.00
N1108  N     0.12495   0.95525   0.68009   0.00000  Uiso   1.00
N1109  N     0.12402   0.71346   0.68054   0.00000  Uiso   1.00
N1110  N     0.20931   0.95321   0.81946   0.00000  Uiso   1.00
O1111  O     0.10559   0.87154   0.74999   0.00000  Uiso   1.00
O1112  O     0.22774   0.79513   0.75001   0.00000  Uiso   1.00
O1113  O     0.22774   0.87154   0.75001   0.00000  Uiso   1.00
O1114  O     0.10559   0.79513   0.74999   0.00000  Uiso   1.00
O1115  O     0.16666   0.87156   0.68392   0.00000  Uiso   1.00
O1116  O     0.16667   0.79511   0.81608   0.00000  Uiso   1.00
O1117  O     0.16667   0.87156   0.81607   0.00000  Uiso   1.00
O1118  O     0.16666   0.79511   0.68393   0.00000  Uiso   1.00
Zn1119 Zn    0.16667   0.88437   0.75000   0.00000  Uiso   1.00
Zn1120 Zn    0.16667   0.78229   0.75000   0.00000  Uiso   1.00
Br1121 Br    0.58789   0.81663   0.87620   0.00000  Uiso   1.00
Br1122 Br    0.37504   0.93468   0.75758   0.00000  Uiso   1.00
Br1123 Br    0.41212   0.84999   0.62377   0.00000  Uiso   1.00
Br1124 Br    0.37691   0.79145   0.94289   0.00000  Uiso   1.00
Br1125 Br    0.62319   0.87503   0.55709   0.00000  Uiso   1.00
Br1126 Br    0.38410   0.77786   0.55039   0.00000  Uiso   1.00
Br1127 Br    0.61596   0.88870   0.94961   0.00000  Uiso   1.00
Br1128 Br    0.38180   0.74208   0.79314   0.00000  Uiso   1.00
Br1129 Br    0.61821   0.92459   0.70688   0.00000  Uiso   1.00
Br1130 Br    0.62496   0.73199   0.74244   0.00000  Uiso   1.00
C1131  C     0.42018   0.83388   0.75404   0.00000  Uiso   1.00
C1132  C     0.37566   0.83496   0.75803   0.00000  Uiso   1.00
C1133  C     0.52083   0.68986   0.78312   0.00000  Uiso   1.00
C1134  C     0.47917   0.97680   0.71688   0.00000  Uiso   1.00
C1135  C     0.47902   0.69091   0.71695   0.00000  Uiso   1.00
C1136  C     0.52098   0.97576   0.78305   0.00000  Uiso   1.00
C1137  C     0.49980   0.83336   0.66374   0.00000  Uiso   1.00
C1138  C     0.50020   0.83330   0.83626   0.00000  Uiso   1.00
C1139  C     0.53792   0.83391   0.90760   0.00000  Uiso   1.00
C1140  C     0.46210   0.83272   0.59239   0.00000  Uiso   1.00
C1141  C     0.50005   0.83334   0.88393   0.00000  Uiso   1.00
C1142  C     0.57982   0.83279   0.74596   0.00000  Uiso   1.00
C1143  C     0.49996   0.83332   0.61607   0.00000  Uiso   1.00
C1144  C     0.46195   0.83301   0.90519   0.00000  Uiso   1.00
C1145  C     0.53807   0.83365   0.59482   0.00000  Uiso   1.00
C1146  C     0.46190   0.82709   0.95188   0.00000  Uiso   1.00
C1147  C     0.53814   0.83952   0.54813   0.00000  Uiso   1.00
C1148  C     0.49989   0.83350   0.97653   0.00000  Uiso   1.00
C1149  C     0.50015   0.83310   0.52348   0.00000  Uiso   1.00
C1150  C     0.53760   0.84067   0.95407   0.00000  Uiso   1.00
C1151  C     0.46243   0.82593   0.54593   0.00000  Uiso   1.00
C1152  C     0.42599   0.81359   0.97448   0.00000  Uiso   1.00
C1153  C     0.42697   0.81144   0.52149   0.00000  Uiso   1.00
C1154  C     0.57406   0.85298   0.52552   0.00000  Uiso   1.00
C1155  C     0.57308   0.85514   0.97851   0.00000  Uiso   1.00
C1156  C     0.35531   0.79403   0.76363   0.00000  Uiso   1.00
C1157  C     0.64469   0.87264   0.73638   0.00000  Uiso   1.00
C1158  C     0.64706   0.79156   0.75149   0.00000  Uiso   1.00
C1159  C     0.35294   0.87511   0.74852   0.00000  Uiso   1.00
C1160  C     0.62434   0.83171   0.74197   0.00000  Uiso   1.00
H1161  H     0.42141   0.81480   0.85524   0.00000  Uiso   1.00
H1162  H     0.47900   0.72454   0.65781   0.00000  Uiso   1.00
H1163  H     0.56073   0.92670   0.80753   0.00000  Uiso   1.00
H1164  H     0.52100   0.94212   0.84219   0.00000  Uiso   1.00
H1165  H     0.42503   0.87103   0.86291   0.00000  Uiso   1.00
H1166  H     0.57857   0.85193   0.64477   0.00000  Uiso   1.00
H1167  H     0.57501   0.79569   0.63715   0.00000  Uiso   1.00
H1168  H     0.55834   0.73843   0.80831   0.00000  Uiso   1.00
H1169  H     0.51948   0.72222   0.84257   0.00000  Uiso   1.00
H1170  H     0.44166   0.92824   0.69169   0.00000  Uiso   1.00
H1171  H     0.48052   0.94445   0.65743   0.00000  Uiso   1.00
H1172  H     0.43927   0.73997   0.69247   0.00000  Uiso   1.00
N1173  N     0.50000   0.95240   0.75000   0.00000  Uiso   1.00
N1174  N     0.50000   0.71427   0.75000   0.00000  Uiso   1.00
N1175  N     0.42392   0.84007   0.87939   0.00000  Uiso   1.00
N1176  N     0.57609   0.82664   0.62064   0.00000  Uiso   1.00
N1177  N     0.54172   0.71142   0.81991   0.00000  Uiso   1.00
N1178  N     0.45828   0.95525   0.68009   0.00000  Uiso   1.00
N1179  N     0.45735   0.71346   0.68054   0.00000  Uiso   1.00
N1180  N     0.54265   0.95321   0.81946   0.00000  Uiso   1.00
O1181  O     0.43892   0.87154   0.74999   0.00000  Uiso   1.00
O1182  O     0.56108   0.79513   0.75001   0.00000  Uiso   1.00
O1183  O     0.56108   0.87154   0.75001   0.00000  Uiso   1.00
O1184  O     0.43892   0.79513   0.74999   0.00000  Uiso   1.00
O1185  O     0.49999   0.87156   0.68392   0.00000  Uiso   1.00
O1186  O     0.50001   0.79511   0.81608   0.00000  Uiso   1.00
O1187  O     0.50001   0.87156   0.81607   0.00000  Uiso   1.00
O1188  O     0.49999   0.79511   0.68393   0.00000  Uiso   1.00
Zn1189 Zn    0.50000   0.88437   0.75000   0.00000  Uiso   1.00
Zn1190 Zn    0.50000   0.78229   0.75000   0.00000  Uiso   1.00
Br1191 Br    0.92122   0.81663   0.87620   0.00000  Uiso   1.00
Br1192 Br    0.70837   0.93468   0.75758   0.00000  Uiso   1.00
Br1193 Br    0.74545   0.84999   0.62377   0.00000  Uiso   1.00
Br1194 Br    0.71024   0.79145   0.94289   0.00000  Uiso   1.00
Br1195 Br    0.95652   0.87503   0.55709   0.00000  Uiso   1.00
Br1196 Br    0.71744   0.77786   0.55039   0.00000  Uiso   1.00
Br1197 Br    0.94929   0.88870   0.94961   0.00000  Uiso   1.00
Br1198 Br    0.71513   0.74208   0.79314   0.00000  Uiso   1.00
Br1199 Br    0.95154   0.92459   0.70688   0.00000  Uiso   1.00
Br1200 Br    0.95829   0.73199   0.74244   0.00000  Uiso   1.00
C1201  C     0.75352   0.83388   0.75404   0.00000  Uiso   1.00
C1202  C     0.70899   0.83496   0.75803   0.00000  Uiso   1.00
C1203  C     0.85416   0.68986   0.78312   0.00000  Uiso   1.00
C1204  C     0.81251   0.97680   0.71688   0.00000  Uiso   1.00
C1205  C     0.81236   0.69091   0.71695   0.00000  Uiso   1.00
C1206  C     0.85431   0.97576   0.78305   0.00000  Uiso   1.00
C1207  C     0.83313   0.83336   0.66374   0.00000  Uiso   1.00
C1208  C     0.83353   0.83330   0.83626   0.00000  Uiso   1.00
C1209  C     0.87126   0.83391   0.90760   0.00000  Uiso   1.00
C1210  C     0.79543   0.83272   0.59239   0.00000  Uiso   1.00
C1211  C     0.83339   0.83334   0.88393   0.00000  Uiso   1.00
C1212  C     0.91315   0.83279   0.74596   0.00000  Uiso   1.00
C1213  C     0.83329   0.83332   0.61607   0.00000  Uiso   1.00
C1214  C     0.79528   0.83301   0.90519   0.00000  Uiso   1.00
C1215  C     0.87141   0.83365   0.59482   0.00000  Uiso   1.00
C1216  C     0.79523   0.82709   0.95188   0.00000  Uiso   1.00
C1217  C     0.87147   0.83952   0.54813   0.00000  Uiso   1.00
C1218  C     0.83323   0.83350   0.97653   0.00000  Uiso   1.00
C1219  C     0.83348   0.83310   0.52348   0.00000  Uiso   1.00
C1220  C     0.87094   0.84067   0.95407   0.00000  Uiso   1.00
C1221  C     0.79577   0.82593   0.54593   0.00000  Uiso   1.00
C1222  C     0.75933   0.81359   0.97448   0.00000  Uiso   1.00
C1223  C     0.76030   0.81144   0.52149   0.00000  Uiso   1.00
C1224  C     0.90739   0.85298   0.52552   0.00000  Uiso   1.00
C1225  C     0.90641   0.85514   0.97851   0.00000  Uiso   1.00
C1226  C     0.68865   0.79403   0.76363   0.00000  Uiso   1.00
C1227  C     0.97802   0.87264   0.73638   0.00000  Uiso   1.00
C1228  C     0.98040   0.79156   0.75149   0.00000  Uiso   1.00
C1229  C     0.68627   0.87511   0.74852   0.00000  Uiso   1.00
C1230  C     0.95767   0.83171   0.74197   0.00000  Uiso   1.00
H1231  H     0.75474   0.81480   0.85524   0.00000  Uiso   1.00
H1232  H     0.81233   0.72454   0.65781   0.00000  Uiso   1.00
H1233  H     0.89407   0.92670   0.80753   0.00000  Uiso   1.00
H1234  H     0.85433   0.94212   0.84219   0.00000  Uiso   1.00
H1235  H     0.75836   0.87103   0.86291   0.00000  Uiso   1.00
H1236  H     0.91191   0.85193   0.64477   0.00000  Uiso   1.00
H1237  H     0.90834   0.79569   0.63715   0.00000  Uiso   1.00
H1238  H     0.89167   0.73843   0.80831   0.00000  Uiso   1.00
H1239  H     0.85281   0.72222   0.84257   0.00000  Uiso   1.00
H1240  H     0.77500   0.92824   0.69169   0.00000  Uiso   1.00
H1241  H     0.81385   0.94445   0.65743   0.00000  Uiso   1.00
H1242  H     0.77260   0.73997   0.69247   0.00000  Uiso   1.00
N1243  N     0.83333   0.95240   0.75000   0.00000  Uiso   1.00
N1244  N     0.83333   0.71427   0.75000   0.00000  Uiso   1.00
N1245  N     0.75726   0.84007   0.87939   0.00000  Uiso   1.00
N1246  N     0.90942   0.82664   0.62064   0.00000  Uiso   1.00
N1247  N     0.87505   0.71142   0.81991   0.00000  Uiso   1.00
N1248  N     0.79161   0.95525   0.68009   0.00000  Uiso   1.00
N1249  N     0.79069   0.71346   0.68054   0.00000  Uiso   1.00
N1250  N     0.87598   0.95321   0.81946   0.00000  Uiso   1.00
O1251  O     0.77226   0.87154   0.74999   0.00000  Uiso   1.00
O1252  O     0.89441   0.79513   0.75001   0.00000  Uiso   1.00
O1253  O     0.89441   0.87154   0.75001   0.00000  Uiso   1.00
O1254  O     0.77226   0.79513   0.74999   0.00000  Uiso   1.00
O1255  O     0.83333   0.87156   0.68392   0.00000  Uiso   1.00
O1256  O     0.83334   0.79511   0.81608   0.00000  Uiso   1.00
O1257  O     0.83334   0.87156   0.81607   0.00000  Uiso   1.00
O1258  O     0.83333   0.79511   0.68393   0.00000  Uiso   1.00
Zn1259 Zn    0.83333   0.88437   0.75000   0.00000  Uiso   1.00
Zn1260 Zn    0.83333   0.78229   0.75000   0.00000  Uiso   1.00
loop_
_geom_bond_atom_site_label_1
_geom_bond_atom_site_label_2
_geom_bond_distance
_geom_bond_site_symmetry_2
_ccdc_geom_bond_type
Br1    C19     1.943   .     S
Br2    C39     1.943   .     S
Br3    C20     1.943   .     S
Br4    C32     1.944   .     S
Br5    C34     1.944   .     S
Br6    C33     1.941   .     S
Br7    C35     1.941   .     S
Br8    C36     1.946   .     S
Br9    C37     1.946   .     S
Br10   C38     1.943   .     S
C11    C12     1.440   .     S
C11    O61     1.293   .     A
C11    O64     1.299   .     A
C12    C39     1.412   .     A
C12    C36     1.409   .     A
C13    N54     1.374   .     A
C13    N57     1.430   .     S
C13    C436    1.414   1_545 S
C14    N58     1.430   .     S
C14    N53     1.374   .     A
C14    C225    1.414   .     S
C15    N59     1.430   .     S
C15    N54     1.376   .     A
C15    C434    1.414   1_545 S
C16    N60     1.430   .     S
C16    N53     1.376   .     A
C16    C223    1.414   .     S
C17    O65     1.289   .     A
C17    C23     1.419   .     S
C17    O68     1.287   .     A
C18    C21     1.419   .     S
C18    O67     1.287   .     A
C18    O66     1.289   .     A
C19    C21     1.390   .     A
C19    C30     1.398   .     A
C20    C23     1.390   .     A
C20    C31     1.398   .     A
C21    C24     1.396   .     A
C22    O62     1.293   .     A
C22    C40     1.440   .     S
C22    O63     1.299   .     A
C23    C25     1.396   .     A
C24    N55     1.437   .     S
C24    C26     1.400   .     A
C25    N56     1.437   .     S
C25    C27     1.400   .     A
C26    C32     1.419   .     A
C26    C28     1.424   .     A
C27    C34     1.419   .     A
C27    C29     1.424   .     A
C28    C30     1.422   .     A
C28    C659    1.397   .     S
C29    C31     1.422   .     A
C29    C658    1.397   1_554 S
C30    C35     1.412   .     A
C31    C33     1.412   .     A
C32    C663    1.400   .     S
C33    C662    1.400   1_554 S
C34    C665    1.400   1_554 S
C35    C664    1.400   .     S
C36    C178    1.379   1_455 S
C37    C40     1.409   .     A
C37    C109    1.379   .     S
C38    C40     1.412   .     A
C38    C106    1.379   .     S
C39    C177    1.379   1_455 S
H41    N55     1.045   .     S
H42    N59     1.043   .     S
H43    N60     1.040   .     S
H44    N60     1.043   .     S
H45    N55     1.046   .     S
H46    N56     1.045   .     S
H47    N56     1.046   .     S
H48    N57     1.040   .     S
H49    N57     1.044   .     S
H50    N58     1.040   .     S
H51    N58     1.044   .     S
H52    N59     1.040   .     S
N53    Zn69    2.027   .     S
N54    Zn70    2.027   .     S
O61    Zn69    2.010   .     S
O62    Zn70    2.010   .     S
O63    Zn69    1.994   .     S
O64    Zn70    1.994   .     S
O65    Zn69    2.004   .     S
O66    Zn70    2.004   .     S
O67    Zn69    2.003   .     S
O68    Zn70    2.003   .     S
Br71   C89     1.943   .     S
Br72   C109    1.943   .     S
Br73   C90     1.943   .     S
Br74   C102    1.944   .     S
Br75   C104    1.944   .     S
Br76   C103    1.941   .     S
Br77   C105    1.941   .     S
Br78   C106    1.946   .     S
Br79   C107    1.946   .     S
Br80   C108    1.943   .     S
C81    C82     1.440   .     S
C81    O131    1.293   .     A
C81    O134    1.299   .     A
C82    C109    1.412   .     A
C82    C106    1.409   .     A
C83    N124    1.374   .     A
C83    N127    1.430   .     S
C83    C506    1.414   1_545 S
C84    N128    1.430   .     S
C84    N123    1.374   .     A
C84    C295    1.414   .     S
C85    N129    1.430   .     S
C85    N124    1.376   .     A
C85    C504    1.414   1_545 S
C86    N130    1.430   .     S
C86    N123    1.376   .     A
C86    C293    1.414   .     S
C87    O135    1.289   .     A
C87    C93     1.419   .     S
C87    O138    1.287   .     A
C88    C91     1.419   .     S
C88    O137    1.287   .     A
C88    O136    1.289   .     A
C89    C91     1.390   .     A
C89    C100    1.398   .     A
C90    C93     1.390   .     A
C90    C101    1.398   .     A
C91    C94     1.396   .     A
C92    O132    1.293   .     A
C92    C110    1.440   .     S
C92    O133    1.299   .     A
C93    C95     1.396   .     A
C94    N125    1.437   .     S
C94    C96     1.400   .     A
C95    N126    1.437   .     S
C95    C97     1.400   .     A
C96    C102    1.419   .     A
C96    C98     1.424   .     A
C97    C104    1.419   .     A
C97    C99     1.424   .     A
C98    C100    1.422   .     A
C98    C729    1.397   .     S
C99    C101    1.422   .     A
C99    C728    1.397   1_554 S
C100   C105    1.412   .     A
C101   C103    1.412   .     A
C102   C733    1.400   .     S
C103   C732    1.400   1_554 S
C104   C735    1.400   1_554 S
C105   C734    1.400   .     S
C107   C110    1.409   .     A
C107   C179    1.379   .     S
C108   C110    1.412   .     A
C108   C176    1.379   .     S
H111   N125    1.045   .     S
H112   N129    1.043   .     S
H113   N130    1.040   .     S
H114   N130    1.043   .     S
H115   N125    1.046   .     S
H116   N126    1.045   .     S
H117   N126    1.046   .     S
H118   N127    1.040   .     S
H119   N127    1.044   .     S
H120   N128    1.040   .     S
H121   N128    1.044   .     S
H122   N129    1.040   .     S
N123   Zn139   2.027   .     S
N124   Zn140   2.027   .     S
O131   Zn139   2.010   .     S
O132   Zn140   2.010   .     S
O133   Zn139   1.994   .     S
O134   Zn140   1.994   .     S
O135   Zn139   2.004   .     S
O136   Zn140   2.004   .     S
O137   Zn139   2.003   .     S
O138   Zn140   2.003   .     S
Br141  C159    1.943   .     S
Br142  C179    1.943   .     S
Br143  C160    1.943   .     S
Br144  C172    1.944   .     S
Br145  C174    1.944   .     S
Br146  C173    1.941   .     S
Br147  C175    1.941   .     S
Br148  C176    1.946   .     S
Br149  C177    1.946   .     S
Br150  C178    1.943   .     S
C151   C152    1.440   .     S
C151   O201    1.293   .     A
C151   O204    1.299   .     A
C152   C179    1.412   .     A
C152   C176    1.409   .     A
C153   N194    1.374   .     A
C153   N197    1.430   .     S
C153   C576    1.414   1_545 S
C154   N198    1.430   .     S
C154   N193    1.374   .     A
C154   C365    1.414   .     S
C155   N199    1.430   .     S
C155   N194    1.376   .     A
C155   C574    1.414   1_545 S
C156   N200    1.430   .     S
C156   N193    1.376   .     A
C156   C363    1.414   .     S
C157   O205    1.289   .     A
C157   C163    1.419   .     S
C157   O208    1.287   .     A
C158   C161    1.419   .     S
C158   O207    1.287   .     A
C158   O206    1.289   .     A
C159   C161    1.390   .     A
C159   C170    1.398   .     A
C160   C163    1.390   .     A
C160   C171    1.398   .     A
C161   C164    1.396   .     A
C162   O202    1.293   .     A
C162   C180    1.440   .     S
C162   O203    1.299   .     A
C163   C165    1.396   .     A
C164   N195    1.437   .     S
C164   C166    1.400   .     A
C165   N196    1.437   .     S
C165   C167    1.400   .     A
C166   C172    1.419   .     A
C166   C168    1.424   .     A
C167   C174    1.419   .     A
C167   C169    1.424   .     A
C168   C170    1.422   .     A
C168   C799    1.397   .     S
C169   C171    1.422   .     A
C169   C798    1.397   1_554 S
C170   C175    1.412   .     A
C171   C173    1.412   .     A
C172   C803    1.400   .     S
C173   C802    1.400   1_554 S
C174   C805    1.400   1_554 S
C175   C804    1.400   .     S
C177   C180    1.409   .     A
C177   C39     1.379   1_655 S
C178   C180    1.412   .     A
C178   C36     1.379   1_655 S
H181   N195    1.045   .     S
H182   N199    1.043   .     S
H183   N200    1.040   .     S
H184   N200    1.043   .     S
H185   N195    1.046   .     S
H186   N196    1.045   .     S
H187   N196    1.046   .     S
H188   N197    1.040   .     S
H189   N197    1.044   .     S
H190   N198    1.040   .     S
H191   N198    1.044   .     S
H192   N199    1.040   .     S
N193   Zn209   2.027   .     S
N194   Zn210   2.027   .     S
O201   Zn209   2.010   .     S
O202   Zn210   2.010   .     S
O203   Zn209   1.994   .     S
O204   Zn210   1.994   .     S
O205   Zn209   2.004   .     S
O206   Zn210   2.004   .     S
O207   Zn209   2.003   .     S
O208   Zn210   2.003   .     S
Br211  C229    1.943   .     S
Br212  C249    1.943   .     S
Br213  C230    1.943   .     S
Br214  C242    1.944   .     S
Br215  C244    1.944   .     S
Br216  C243    1.941   .     S
Br217  C245    1.941   .     S
Br218  C246    1.946   .     S
Br219  C247    1.946   .     S
Br220  C248    1.943   .     S
C221   C222    1.440   .     S
C221   O271    1.293   .     A
C221   O274    1.299   .     A
C222   C249    1.412   .     A
C222   C246    1.409   .     A
C223   N264    1.374   .     A
C223   N267    1.430   .     S
C224   N268    1.430   .     S
C224   N263    1.374   .     A
C224   C435    1.414   .     S
C225   N269    1.430   .     S
C225   N264    1.376   .     A
C226   N270    1.430   .     S
C226   N263    1.376   .     A
C226   C433    1.414   .     S
C227   O275    1.289   .     A
C227   C233    1.419   .     S
C227   O278    1.287   .     A
C228   C231    1.419   .     S
C228   O277    1.287   .     A
C228   O276    1.289   .     A
C229   C231    1.390   .     A
C229   C240    1.398   .     A
C230   C233    1.390   .     A
C230   C241    1.398   .     A
C231   C234    1.396   .     A
C232   O272    1.293   .     A
C232   C250    1.440   .     S
C232   O273    1.299   .     A
C233   C235    1.396   .     A
C234   N265    1.437   .     S
C234   C236    1.400   .     A
C235   N266    1.437   .     S
C235   C237    1.400   .     A
C236   C242    1.419   .     A
C236   C238    1.424   .     A
C237   C244    1.419   .     A
C237   C239    1.424   .     A
C238   C240    1.422   .     A
C238   C869    1.397   .     S
C239   C241    1.422   .     A
C239   C868    1.397   1_554 S
C240   C245    1.412   .     A
C241   C243    1.412   .     A
C242   C873    1.400   .     S
C243   C872    1.400   1_554 S
C244   C875    1.400   1_554 S
C245   C874    1.400   .     S
C246   C388    1.379   1_455 S
C247   C250    1.409   .     A
C247   C319    1.379   .     S
C248   C250    1.412   .     A
C248   C316    1.379   .     S
C249   C387    1.379   1_455 S
H251   N265    1.045   .     S
H252   N269    1.043   .     S
H253   N270    1.040   .     S
H254   N270    1.043   .     S
H255   N265    1.046   .     S
H256   N266    1.045   .     S
H257   N266    1.046   .     S
H258   N267    1.040   .     S
H259   N267    1.044   .     S
H260   N268    1.040   .     S
H261   N268    1.044   .     S
H262   N269    1.040   .     S
N263   Zn279   2.027   .     S
N264   Zn280   2.027   .     S
O271   Zn279   2.010   .     S
O272   Zn280   2.010   .     S
O273   Zn279   1.994   .     S
O274   Zn280   1.994   .     S
O275   Zn279   2.004   .     S
O276   Zn280   2.004   .     S
O277   Zn279   2.003   .     S
O278   Zn280   2.003   .     S
Br281  C299    1.943   .     S
Br282  C319    1.943   .     S
Br283  C300    1.943   .     S
Br284  C312    1.944   .     S
Br285  C314    1.944   .     S
Br286  C313    1.941   .     S
Br287  C315    1.941   .     S
Br288  C316    1.946   .     S
Br289  C317    1.946   .     S
Br290  C318    1.943   .     S
C291   C292    1.440   .     S
C291   O341    1.293   .     A
C291   O344    1.299   .     A
C292   C319    1.412   .     A
C292   C316    1.409   .     A
C293   N334    1.374   .     A
C293   N337    1.430   .     S
C294   N338    1.430   .     S
C294   N333    1.374   .     A
C294   C505    1.414   .     S
C295   N339    1.430   .     S
C295   N334    1.376   .     A
C296   N340    1.430   .     S
C296   N333    1.376   .     A
C296   C503    1.414   .     S
C297   O345    1.289   .     A
C297   C303    1.419   .     S
C297   O348    1.287   .     A
C298   C301    1.419   .     S
C298   O347    1.287   .     A
C298   O346    1.289   .     A
C299   C301    1.390   .     A
C299   C310    1.398   .     A
C300   C303    1.390   .     A
C300   C311    1.398   .     A
C301   C304    1.396   .     A
C302   O342    1.293   .     A
C302   C320    1.440   .     S
C302   O343    1.299   .     A
C303   C305    1.396   .     A
C304   N335    1.437   .     S
C304   C306    1.400   .     A
C305   N336    1.437   .     S
C305   C307    1.400   .     A
C306   C312    1.419   .     A
C306   C308    1.424   .     A
C307   C314    1.419   .     A
C307   C309    1.424   .     A
C308   C310    1.422   .     A
C308   C939    1.397   .     S
C309   C311    1.422   .     A
C309   C938    1.397   1_554 S
C310   C315    1.412   .     A
C311   C313    1.412   .     A
C312   C943    1.400   .     S
C313   C942    1.400   1_554 S
C314   C945    1.400   1_554 S
C315   C944    1.400   .     S
C317   C320    1.409   .     A
C317   C389    1.379   .     S
C318   C320    1.412   .     A
C318   C386    1.379   .     S
H321   N335    1.045   .     S
H322   N339    1.043   .     S
H323   N340    1.040   .     S
H324   N340    1.043   .     S
H325   N335    1.046   .     S
H326   N336    1.045   .     S
H327   N336    1.046   .     S
H328   N337    1.040   .     S
H329   N337    1.044   .     S
H330   N338    1.040   .     S
H331   N338    1.044   .     S
H332   N339    1.040   .     S
N333   Zn349   2.027   .     S
N334   Zn350   2.027   .     S
O341   Zn349   2.010   .     S
O342   Zn350   2.010   .     S
O343   Zn349   1.994   .     S
O344   Zn350   1.994   .     S
O345   Zn349   2.004   .     S
O346   Zn350   2.004   .     S
O347   Zn349   2.003   .     S
O348   Zn350   2.003   .     S
Br351  C369    1.943   .     S
Br352  C389    1.943   .     S
Br353  C370    1.943   .     S
Br354  C382    1.944   .     S
Br355  C384    1.944   .     S
Br356  C383    1.941   .     S
Br357  C385    1.941   .     S
Br358  C386    1.946   .     S
Br359  C387    1.946   .     S
Br360  C388    1.943   .     S
C361   C362    1.440   .     S
C361   O411    1.293   .     A
C361   O414    1.299   .     A
C362   C389    1.412   .     A
C362   C386    1.409   .     A
C363   N404    1.374   .     A
C363   N407    1.430   .     S
C364   N408    1.430   .     S
C364   N403    1.374   .     A
C364   C575    1.414   .     S
C365   N409    1.430   .     S
C365   N404    1.376   .     A
C366   N410    1.430   .     S
C366   N403    1.376   .     A
C366   C573    1.414   .     S
C367   O415    1.289   .     A
C367   C373    1.419   .     S
C367   O418    1.287   .     A
C368   C371    1.419   .     S
C368   O417    1.287   .     A
C368   O416    1.289   .     A
C369   C371    1.390   .     A
C369   C380    1.398   .     A
C370   C373    1.390   .     A
C370   C381    1.398   .     A
C371   C374    1.396   .     A
C372   O412    1.293   .     A
C372   C390    1.440   .     S
C372   O413    1.299   .     A
C373   C375    1.396   .     A
C374   N405    1.437   .     S
C374   C376    1.400   .     A
C375   N406    1.437   .     S
C375   C377    1.400   .     A
C376   C382    1.419   .     A
C376   C378    1.424   .     A
C377   C384    1.419   .     A
C377   C379    1.424   .     A
C378   C380    1.422   .     A
C378   C1009   1.397   .     S
C379   C381    1.422   .     A
C379   C1008   1.397   1_554 S
C380   C385    1.412   .     A
C381   C383    1.412   .     A
C382   C1013   1.400   .     S
C383   C1012   1.400   1_554 S
C384   C1015   1.400   1_554 S
C385   C1014   1.400   .     S
C387   C390    1.409   .     A
C387   C249    1.379   1_655 S
C388   C390    1.412   .     A
C388   C246    1.379   1_655 S
H391   N405    1.045   .     S
H392   N409    1.043   .     S
H393   N410    1.040   .     S
H394   N410    1.043   .     S
H395   N405    1.046   .     S
H396   N406    1.045   .     S
H397   N406    1.046   .     S
H398   N407    1.040   .     S
H399   N407    1.044   .     S
H400   N408    1.040   .     S
H401   N408    1.044   .     S
H402   N409    1.040   .     S
N403   Zn419   2.027   .     S
N404   Zn420   2.027   .     S
O411   Zn419   2.010   .     S
O412   Zn420   2.010   .     S
O413   Zn419   1.994   .     S
O414   Zn420   1.994   .     S
O415   Zn419   2.004   .     S
O416   Zn420   2.004   .     S
O417   Zn419   2.003   .     S
O418   Zn420   2.003   .     S
Br421  C439    1.943   .     S
Br422  C459    1.943   .     S
Br423  C440    1.943   .     S
Br424  C452    1.944   .     S
Br425  C454    1.944   .     S
Br426  C453    1.941   .     S
Br427  C455    1.941   .     S
Br428  C456    1.946   .     S
Br429  C457    1.946   .     S
Br430  C458    1.943   .     S
C431   C432    1.440   .     S
C431   O481    1.293   .     A
C431   O484    1.299   .     A
C432   C459    1.412   .     A
C432   C456    1.409   .     A
C433   N474    1.374   .     A
C433   N477    1.430   .     S
C434   N478    1.430   .     S
C434   N473    1.374   .     A
C434   C15     1.414   1_565 S
C435   N479    1.430   .     S
C435   N474    1.376   .     A
C436   N480    1.430   .     S
C436   N473    1.376   .     A
C436   C13     1.414   1_565 S
C437   O485    1.289   .     A
C437   C443    1.419   .     S
C437   O488    1.287   .     A
C438   C441    1.419   .     S
C438   O487    1.287   .     A
C438   O486    1.289   .     A
C439   C441    1.390   .     A
C439   C450    1.398   .     A
C440   C443    1.390   .     A
C440   C451    1.398   .     A
C441   C444    1.396   .     A
C442   O482    1.293   .     A
C442   C460    1.440   .     S
C442   O483    1.299   .     A
C443   C445    1.396   .     A
C444   N475    1.437   .     S
C444   C446    1.400   .     A
C445   N476    1.437   .     S
C445   C447    1.400   .     A
C446   C452    1.419   .     A
C446   C448    1.424   .     A
C447   C454    1.419   .     A
C447   C449    1.424   .     A
C448   C450    1.422   .     A
C448   C1079   1.397   .     S
C449   C451    1.422   .     A
C449   C1078   1.397   1_554 S
C450   C455    1.412   .     A
C451   C453    1.412   .     A
C452   C1083   1.400   .     S
C453   C1082   1.400   1_554 S
C454   C1085   1.400   1_554 S
C455   C1084   1.400   .     S
C456   C598    1.379   1_455 S
C457   C460    1.409   .     A
C457   C529    1.379   .     S
C458   C460    1.412   .     A
C458   C526    1.379   .     S
C459   C597    1.379   1_455 S
H461   N475    1.045   .     S
H462   N479    1.043   .     S
H463   N480    1.040   .     S
H464   N480    1.043   .     S
H465   N475    1.046   .     S
H466   N476    1.045   .     S
H467   N476    1.046   .     S
H468   N477    1.040   .     S
H469   N477    1.044   .     S
H470   N478    1.040   .     S
H471   N478    1.044   .     S
H472   N479    1.040   .     S
N473   Zn489   2.027   .     S
N474   Zn490   2.027   .     S
O481   Zn489   2.010   .     S
O482   Zn490   2.010   .     S
O483   Zn489   1.994   .     S
O484   Zn490   1.994   .     S
O485   Zn489   2.004   .     S
O486   Zn490   2.004   .     S
O487   Zn489   2.003   .     S
O488   Zn490   2.003   .     S
Br491  C509    1.943   .     S
Br492  C529    1.943   .     S
Br493  C510    1.943   .     S
Br494  C522    1.944   .     S
Br495  C524    1.944   .     S
Br496  C523    1.941   .     S
Br497  C525    1.941   .     S
Br498  C526    1.946   .     S
Br499  C527    1.946   .     S
Br500  C528    1.943   .     S
C501   C502    1.440   .     S
C501   O551    1.293   .     A
C501   O554    1.299   .     A
C502   C529    1.412   .     A
C502   C526    1.409   .     A
C503   N544    1.374   .     A
C503   N547    1.430   .     S
C504   N548    1.430   .     S
C504   N543    1.374   .     A
C504   C85     1.414   1_565 S
C505   N549    1.430   .     S
C505   N544    1.376   .     A
C506   N550    1.430   .     S
C506   N543    1.376   .     A
C506   C83     1.414   1_565 S
C507   O555    1.289   .     A
C507   C513    1.419   .     S
C507   O558    1.287   .     A
C508   C511    1.419   .     S
C508   O557    1.287   .     A
C508   O556    1.289   .     A
C509   C511    1.390   .     A
C509   C520    1.398   .     A
C510   C513    1.390   .     A
C510   C521    1.398   .     A
C511   C514    1.396   .     A
C512   O552    1.293   .     A
C512   C530    1.440   .     S
C512   O553    1.299   .     A
C513   C515    1.396   .     A
C514   N545    1.437   .     S
C514   C516    1.400   .     A
C515   N546    1.437   .     S
C515   C517    1.400   .     A
C516   C522    1.419   .     A
C516   C518    1.424   .     A
C517   C524    1.419   .     A
C517   C519    1.424   .     A
C518   C520    1.422   .     A
C518   C1149   1.397   .     S
C519   C521    1.422   .     A
C519   C1148   1.397   1_554 S
C520   C525    1.412   .     A
C521   C523    1.412   .     A
C522   C1153   1.400   .     S
C523   C1152   1.400   1_554 S
C524   C1155   1.400   1_554 S
C525   C1154   1.400   .     S
C527   C530    1.409   .     A
C527   C599    1.379   .     S
C528   C530    1.412   .     A
C528   C596    1.379   .     S
H531   N545    1.045   .     S
H532   N549    1.043   .     S
H533   N550    1.040   .     S
H534   N550    1.043   .     S
H535   N545    1.046   .     S
H536   N546    1.045   .     S
H537   N546    1.046   .     S
H538   N547    1.040   .     S
H539   N547    1.044   .     S
H540   N548    1.040   .     S
H541   N548    1.044   .     S
H542   N549    1.040   .     S
N543   Zn559   2.027   .     S
N544   Zn560   2.027   .     S
O551   Zn559   2.010   .     S
O552   Zn560   2.010   .     S
O553   Zn559   1.994   .     S
O554   Zn560   1.994   .     S
O555   Zn559   2.004   .     S
O556   Zn560   2.004   .     S
O557   Zn559   2.003   .     S
O558   Zn560   2.003   .     S
Br561  C579    1.943   .     S
Br562  C599    1.943   .     S
Br563  C580    1.943   .     S
Br564  C592    1.944   .     S
Br565  C594    1.944   .     S
Br566  C593    1.941   .     S
Br567  C595    1.941   .     S
Br568  C596    1.946   .     S
Br569  C597    1.946   .     S
Br570  C598    1.943   .     S
C571   C572    1.440   .     S
C571   O621    1.293   .     A
C571   O624    1.299   .     A
C572   C599    1.412   .     A
C572   C596    1.409   .     A
C573   N614    1.374   .     A
C573   N617    1.430   .     S
C574   N618    1.430   .     S
C574   N613    1.374   .     A
C574   C155    1.414   1_565 S
C575   N619    1.430   .     S
C575   N614    1.376   .     A
C576   N620    1.430   .     S
C576   N613    1.376   .     A
C576   C153    1.414   1_565 S
C577   O625    1.289   .     A
C577   C583    1.419   .     S
C577   O628    1.287   .     A
C578   C581    1.419   .     S
C578   O627    1.287   .     A
C578   O626    1.289   .     A
C579   C581    1.390   .     A
C579   C590    1.398   .     A
C580   C583    1.390   .     A
C580   C591    1.398   .     A
C581   C584    1.396   .     A
C582   O622    1.293   .     A
C582   C600    1.440   .     S
C582   O623    1.299   .     A
C583   C585    1.396   .     A
C584   N615    1.437   .     S
C584   C586    1.400   .     A
C585   N616    1.437   .     S
C585   C587    1.400   .     A
C586   C592    1.419   .     A
C586   C588    1.424   .     A
C587   C594    1.419   .     A
C587   C589    1.424   .     A
C588   C590    1.422   .     A
C588   C1219   1.397   .     S
C589   C591    1.422   .     A
C589   C1218   1.397   1_554 S
C590   C595    1.412   .     A
C591   C593    1.412   .     A
C592   C1223   1.400   .     S
C593   C1222   1.400   1_554 S
C594   C1225   1.400   1_554 S
C595   C1224   1.400   .     S
C597   C600    1.409   .     A
C597   C459    1.379   1_655 S
C598   C600    1.412   .     A
C598   C456    1.379   1_655 S
H601   N615    1.045   .     S
H602   N619    1.043   .     S
H603   N620    1.040   .     S
H604   N620    1.043   .     S
H605   N615    1.046   .     S
H606   N616    1.045   .     S
H607   N616    1.046   .     S
H608   N617    1.040   .     S
H609   N617    1.044   .     S
H610   N618    1.040   .     S
H611   N618    1.044   .     S
H612   N619    1.040   .     S
N613   Zn629   2.027   .     S
N614   Zn630   2.027   .     S
O621   Zn629   2.010   .     S
O622   Zn630   2.010   .     S
O623   Zn629   1.994   .     S
O624   Zn630   1.994   .     S
O625   Zn629   2.004   .     S
O626   Zn630   2.004   .     S
O627   Zn629   2.003   .     S
O628   Zn630   2.003   .     S
Br631  C649    1.943   .     S
Br632  C669    1.943   .     S
Br633  C650    1.943   .     S
Br634  C662    1.944   .     S
Br635  C664    1.944   .     S
Br636  C663    1.941   .     S
Br637  C665    1.941   .     S
Br638  C666    1.946   .     S
Br639  C667    1.946   .     S
Br640  C668    1.943   .     S
C641   C642    1.440   .     S
C641   O691    1.293   .     A
C641   O694    1.299   .     A
C642   C669    1.412   .     A
C642   C666    1.409   .     A
C643   N684    1.374   .     A
C643   N687    1.430   .     S
C643   C1066   1.414   1_545 S
C644   N688    1.430   .     S
C644   N683    1.374   .     A
C644   C855    1.414   .     S
C645   N689    1.430   .     S
C645   N684    1.376   .     A
C645   C1064   1.414   1_545 S
C646   N690    1.430   .     S
C646   N683    1.376   .     A
C646   C853    1.414   .     S
C647   O695    1.289   .     A
C647   C653    1.419   .     S
C647   O698    1.287   .     A
C648   C651    1.419   .     S
C648   O697    1.287   .     A
C648   O696    1.289   .     A
C649   C651    1.390   .     A
C649   C660    1.398   .     A
C650   C653    1.390   .     A
C650   C661    1.398   .     A
C651   C654    1.396   .     A
C652   O692    1.293   .     A
C652   C670    1.440   .     S
C652   O693    1.299   .     A
C653   C655    1.396   .     A
C654   N685    1.437   .     S
C654   C656    1.400   .     A
C655   N686    1.437   .     S
C655   C657    1.400   .     A
C656   C662    1.419   .     A
C656   C658    1.424   .     A
C657   C664    1.419   .     A
C657   C659    1.424   .     A
C658   C660    1.422   .     A
C658   C29     1.397   1_556 S
C659   C661    1.422   .     A
C660   C665    1.412   .     A
C661   C663    1.412   .     A
C662   C33     1.400   1_556 S
C665   C34     1.400   1_556 S
C666   C808    1.379   1_455 S
C667   C670    1.409   .     A
C667   C739    1.379   .     S
C668   C670    1.412   .     A
C668   C736    1.379   .     S
C669   C807    1.379   1_455 S
H671   N685    1.045   .     S
H672   N689    1.043   .     S
H673   N690    1.040   .     S
H674   N690    1.043   .     S
H675   N685    1.046   .     S
H676   N686    1.045   .     S
H677   N686    1.046   .     S
H678   N687    1.040   .     S
H679   N687    1.044   .     S
H680   N688    1.040   .     S
H681   N688    1.044   .     S
H682   N689    1.040   .     S
N683   Zn699   2.027   .     S
N684   Zn700   2.027   .     S
O691   Zn699   2.010   .     S
O692   Zn700   2.010   .     S
O693   Zn699   1.994   .     S
O694   Zn700   1.994   .     S
O695   Zn699   2.004   .     S
O696   Zn700   2.004   .     S
O697   Zn699   2.003   .     S
O698   Zn700   2.003   .     S
Br701  C719    1.943   .     S
Br702  C739    1.943   .     S
Br703  C720    1.943   .     S
Br704  C732    1.944   .     S
Br705  C734    1.944   .     S
Br706  C733    1.941   .     S
Br707  C735    1.941   .     S
Br708  C736    1.946   .     S
Br709  C737    1.946   .     S
Br710  C738    1.943   .     S
C711   C712    1.440   .     S
C711   O761    1.293   .     A
C711   O764    1.299   .     A
C712   C739    1.412   .     A
C712   C736    1.409   .     A
C713   N754    1.374   .     A
C713   N757    1.430   .     S
C713   C1136   1.414   1_545 S
C714   N758    1.430   .     S
C714   N753    1.374   .     A
C714   C925    1.414   .     S
C715   N759    1.430   .     S
C715   N754    1.376   .     A
C715   C1134   1.414   1_545 S
C716   N760    1.430   .     S
C716   N753    1.376   .     A
C716   C923    1.414   .     S
C717   O765    1.289   .     A
C717   C723    1.419   .     S
C717   O768    1.287   .     A
C718   C721    1.419   .     S
C718   O767    1.287   .     A
C718   O766    1.289   .     A
C719   C721    1.390   .     A
C719   C730    1.398   .     A
C720   C723    1.390   .     A
C720   C731    1.398   .     A
C721   C724    1.396   .     A
C722   O762    1.293   .     A
C722   C740    1.440   .     S
C722   O763    1.299   .     A
C723   C725    1.396   .     A
C724   N755    1.437   .     S
C724   C726    1.400   .     A
C725   N756    1.437   .     S
C725   C727    1.400   .     A
C726   C732    1.419   .     A
C726   C728    1.424   .     A
C727   C734    1.419   .     A
C727   C729    1.424   .     A
C728   C730    1.422   .     A
C728   C99     1.397   1_556 S
C729   C731    1.422   .     A
C730   C735    1.412   .     A
C731   C733    1.412   .     A
C732   C103    1.400   1_556 S
C735   C104    1.400   1_556 S
C737   C740    1.409   .     A
C737   C809    1.379   .     S
C738   C740    1.412   .     A
C738   C806    1.379   .     S
H741   N755    1.045   .     S
H742   N759    1.043   .     S
H743   N760    1.040   .     S
H744   N760    1.043   .     S
H745   N755    1.046   .     S
H746   N756    1.045   .     S
H747   N756    1.046   .     S
H748   N757    1.040   .     S
H749   N757    1.044   .     S
H750   N758    1.040   .     S
H751   N758    1.044   .     S
H752   N759    1.040   .     S
N753   Zn769   2.027   .     S
N754   Zn770   2.027   .     S
O761   Zn769   2.010   .     S
O762   Zn770   2.010   .     S
O763   Zn769   1.994   .     S
O764   Zn770   1.994   .     S
O765   Zn769   2.004   .     S
O766   Zn770   2.004   .     S
O767   Zn769   2.003   .     S
O768   Zn770   2.003   .     S
Br771  C789    1.943   .     S
Br772  C809    1.943   .     S
Br773  C790    1.943   .     S
Br774  C802    1.944   .     S
Br775  C804    1.944   .     S
Br776  C803    1.941   .     S
Br777  C805    1.941   .     S
Br778  C806    1.946   .     S
Br779  C807    1.946   .     S
Br780  C808    1.943   .     S
C781   C782    1.440   .     S
C781   O831    1.293   .     A
C781   O834    1.299   .     A
C782   C809    1.412   .     A
C782   C806    1.409   .     A
C783   N824    1.374   .     A
C783   N827    1.430   .     S
C783   C1206   1.414   1_545 S
C784   N828    1.430   .     S
C784   N823    1.374   .     A
C784   C995    1.414   .     S
C785   N829    1.430   .     S
C785   N824    1.376   .     A
C785   C1204   1.414   1_545 S
C786   N830    1.430   .     S
C786   N823    1.376   .     A
C786   C993    1.414   .     S
C787   O835    1.289   .     A
C787   C793    1.419   .     S
C787   O838    1.287   .     A
C788   C791    1.419   .     S
C788   O837    1.287   .     A
C788   O836    1.289   .     A
C789   C791    1.390   .     A
C789   C800    1.398   .     A
C790   C793    1.390   .     A
C790   C801    1.398   .     A
C791   C794    1.396   .     A
C792   O832    1.293   .     A
C792   C810    1.440   .     S
C792   O833    1.299   .     A
C793   C795    1.396   .     A
C794   N825    1.437   .     S
C794   C796    1.400   .     A
C795   N826    1.437   .     S
C795   C797    1.400   .     A
C796   C802    1.419   .     A
C796   C798    1.424   .     A
C797   C804    1.419   .     A
C797   C799    1.424   .     A
C798   C800    1.422   .     A
C798   C169    1.397   1_556 S
C799   C801    1.422   .     A
C800   C805    1.412   .     A
C801   C803    1.412   .     A
C802   C173    1.400   1_556 S
C805   C174    1.400   1_556 S
C807   C810    1.409   .     A
C807   C669    1.379   1_655 S
C808   C810    1.412   .     A
C808   C666    1.379   1_655 S
H811   N825    1.045   .     S
H812   N829    1.043   .     S
H813   N830    1.040   .     S
H814   N830    1.043   .     S
H815   N825    1.046   .     S
H816   N826    1.045   .     S
H817   N826    1.046   .     S
H818   N827    1.040   .     S
H819   N827    1.044   .     S
H820   N828    1.040   .     S
H821   N828    1.044   .     S
H822   N829    1.040   .     S
N823   Zn839   2.027   .     S
N824   Zn840   2.027   .     S
O831   Zn839   2.010   .     S
O832   Zn840   2.010   .     S
O833   Zn839   1.994   .     S
O834   Zn840   1.994   .     S
O835   Zn839   2.004   .     S
O836   Zn840   2.004   .     S
O837   Zn839   2.003   .     S
O838   Zn840   2.003   .     S
Br841  C859    1.943   .     S
Br842  C879    1.943   .     S
Br843  C860    1.943   .     S
Br844  C872    1.944   .     S
Br845  C874    1.944   .     S
Br846  C873    1.941   .     S
Br847  C875    1.941   .     S
Br848  C876    1.946   .     S
Br849  C877    1.946   .     S
Br850  C878    1.943   .     S
C851   C852    1.440   .     S
C851   O901    1.293   .     A
C851   O904    1.299   .     A
C852   C879    1.412   .     A
C852   C876    1.409   .     A
C853   N894    1.374   .     A
C853   N897    1.430   .     S
C854   N898    1.430   .     S
C854   N893    1.374   .     A
C854   C1065   1.414   .     S
C855   N899    1.430   .     S
C855   N894    1.376   .     A
C856   N900    1.430   .     S
C856   N893    1.376   .     A
C856   C1063   1.414   .     S
C857   O905    1.289   .     A
C857   C863    1.419   .     S
C857   O908    1.287   .     A
C858   C861    1.419   .     S
C858   O907    1.287   .     A
C858   O906    1.289   .     A
C859   C861    1.390   .     A
C859   C870    1.398   .     A
C860   C863    1.390   .     A
C860   C871    1.398   .     A
C861   C864    1.396   .     A
C862   O902    1.293   .     A
C862   C880    1.440   .     S
C862   O903    1.299   .     A
C863   C865    1.396   .     A
C864   N895    1.437   .     S
C864   C866    1.400   .     A
C865   N896    1.437   .     S
C865   C867    1.400   .     A
C866   C872    1.419   .     A
C866   C868    1.424   .     A
C867   C874    1.419   .     A
C867   C869    1.424   .     A
C868   C870    1.422   .     A
C868   C239    1.397   1_556 S
C869   C871    1.422   .     A
C870   C875    1.412   .     A
C871   C873    1.412   .     A
C872   C243    1.400   1_556 S
C875   C244    1.400   1_556 S
C876   C1018   1.379   1_455 S
C877   C880    1.409   .     A
C877   C949    1.379   .     S
C878   C880    1.412   .     A
C878   C946    1.379   .     S
C879   C1017   1.379   1_455 S
H881   N895    1.045   .     S
H882   N899    1.043   .     S
H883   N900    1.040   .     S
H884   N900    1.043   .     S
H885   N895    1.046   .     S
H886   N896    1.045   .     S
H887   N896    1.046   .     S
H888   N897    1.040   .     S
H889   N897    1.044   .     S
H890   N898    1.040   .     S
H891   N898    1.044   .     S
H892   N899    1.040   .     S
N893   Zn909   2.027   .     S
N894   Zn910   2.027   .     S
O901   Zn909   2.010   .     S
O902   Zn910   2.010   .     S
O903   Zn909   1.994   .     S
O904   Zn910   1.994   .     S
O905   Zn909   2.004   .     S
O906   Zn910   2.004   .     S
O907   Zn909   2.003   .     S
O908   Zn910   2.003   .     S
Br911  C929    1.943   .     S
Br912  C949    1.943   .     S
Br913  C930    1.943   .     S
Br914  C942    1.944   .     S
Br915  C944    1.944   .     S
Br916  C943    1.941   .     S
Br917  C945    1.941   .     S
Br918  C946    1.946   .     S
Br919  C947    1.946   .     S
Br920  C948    1.943   .     S
C921   C922    1.440   .     S
C921   O971    1.293   .     A
C921   O974    1.299   .     A
C922   C949    1.412   .     A
C922   C946    1.409   .     A
C923   N964    1.374   .     A
C923   N967    1.430   .     S
C924   N968    1.430   .     S
C924   N963    1.374   .     A
C924   C1135   1.414   .     S
C925   N969    1.430   .     S
C925   N964    1.376   .     A
C926   N970    1.430   .     S
C926   N963    1.376   .     A
C926   C1133   1.414   .     S
C927   O975    1.289   .     A
C927   C933    1.419   .     S
C927   O978    1.287   .     A
C928   C931    1.419   .     S
C928   O977    1.287   .     A
C928   O976    1.289   .     A
C929   C931    1.390   .     A
C929   C940    1.398   .     A
C930   C933    1.390   .     A
C930   C941    1.398   .     A
C931   C934    1.396   .     A
C932   O972    1.293   .     A
C932   C950    1.440   .     S
C932   O973    1.299   .     A
C933   C935    1.396   .     A
C934   N965    1.437   .     S
C934   C936    1.400   .     A
C935   N966    1.437   .     S
C935   C937    1.400   .     A
C936   C942    1.419   .     A
C936   C938    1.424   .     A
C937   C944    1.419   .     A
C937   C939    1.424   .     A
C938   C940    1.422   .     A
C938   C309    1.397   1_556 S
C939   C941    1.422   .     A
C940   C945    1.412   .     A
C941   C943    1.412   .     A
C942   C313    1.400   1_556 S
C945   C314    1.400   1_556 S
C947   C950    1.409   .     A
C947   C1019   1.379   .     S
C948   C950    1.412   .     A
C948   C1016   1.379   .     S
H951   N965    1.045   .     S
H952   N969    1.043   .     S
H953   N970    1.040   .     S
H954   N970    1.043   .     S
H955   N965    1.046   .     S
H956   N966    1.045   .     S
H957   N966    1.046   .     S
H958   N967    1.040   .     S
H959   N967    1.044   .     S
H960   N968    1.040   .     S
H961   N968    1.044   .     S
H962   N969    1.040   .     S
N963   Zn979   2.027   .     S
N964   Zn980   2.027   .     S
O971   Zn979   2.010   .     S
O972   Zn980   2.010   .     S
O973   Zn979   1.994   .     S
O974   Zn980   1.994   .     S
O975   Zn979   2.004   .     S
O976   Zn980   2.004   .     S
O977   Zn979   2.003   .     S
O978   Zn980   2.003   .     S
Br981  C999    1.943   .     S
Br982  C1019   1.943   .     S
Br983  C1000   1.943   .     S
Br984  C1012   1.944   .     S
Br985  C1014   1.944   .     S
Br986  C1013   1.941   .     S
Br987  C1015   1.941   .     S
Br988  C1016   1.946   .     S
Br989  C1017   1.946   .     S
Br990  C1018   1.943   .     S
C991   C992    1.440   .     S
C991   O1041   1.293   .     A
C991   O1044   1.299   .     A
C992   C1019   1.412   .     A
C992   C1016   1.409   .     A
C993   N1034   1.374   .     A
C993   N1037   1.430   .     S
C994   N1038   1.430   .     S
C994   N1033   1.374   .     A
C994   C1205   1.414   .     S
C995   N1039   1.430   .     S
C995   N1034   1.376   .     A
C996   N1040   1.430   .     S
C996   N1033   1.376   .     A
C996   C1203   1.414   .     S
C997   O1045   1.289   .     A
C997   C1003   1.419   .     S
C997   O1048   1.287   .     A
C998   C1001   1.419   .     S
C998   O1047   1.287   .     A
C998   O1046   1.289   .     A
C999   C1001   1.390   .     A
C999   C1010   1.398   .     A
C1000  C1003   1.390   .     A
C1000  C1011   1.398   .     A
C1001  C1004   1.396   .     A
C1002  O1042   1.293   .     A
C1002  C1020   1.440   .     S
C1002  O1043   1.299   .     A
C1003  C1005   1.396   .     A
C1004  N1035   1.437   .     S
C1004  C1006   1.400   .     A
C1005  N1036   1.437   .     S
C1005  C1007   1.400   .     A
C1006  C1012   1.419   .     A
C1006  C1008   1.424   .     A
C1007  C1014   1.419   .     A
C1007  C1009   1.424   .     A
C1008  C1010   1.422   .     A
C1008  C379    1.397   1_556 S
C1009  C1011   1.422   .     A
C1010  C1015   1.412   .     A
C1011  C1013   1.412   .     A
C1012  C383    1.400   1_556 S
C1015  C384    1.400   1_556 S
C1017  C1020   1.409   .     A
C1017  C879    1.379   1_655 S
C1018  C1020   1.412   .     A
C1018  C876    1.379   1_655 S
H1021  N1035   1.045   .     S
H1022  N1039   1.043   .     S
H1023  N1040   1.040   .     S
H1024  N1040   1.043   .     S
H1025  N1035   1.046   .     S
H1026  N1036   1.045   .     S
H1027  N1036   1.046   .     S
H1028  N1037   1.040   .     S
H1029  N1037   1.044   .     S
H1030  N1038   1.040   .     S
H1031  N1038   1.044   .     S
H1032  N1039   1.040   .     S
N1033  Zn1049  2.027   .     S
N1034  Zn1050  2.027   .     S
O1041  Zn1049  2.010   .     S
O1042  Zn1050  2.010   .     S
O1043  Zn1049  1.994   .     S
O1044  Zn1050  1.994   .     S
O1045  Zn1049  2.004   .     S
O1046  Zn1050  2.004   .     S
O1047  Zn1049  2.003   .     S
O1048  Zn1050  2.003   .     S
Br1051 C1069   1.943   .     S
Br1052 C1089   1.943   .     S
Br1053 C1070   1.943   .     S
Br1054 C1082   1.944   .     S
Br1055 C1084   1.944   .     S
Br1056 C1083   1.941   .     S
Br1057 C1085   1.941   .     S
Br1058 C1086   1.946   .     S
Br1059 C1087   1.946   .     S
Br1060 C1088   1.943   .     S
C1061  C1062   1.440   .     S
C1061  O1111   1.293   .     A
C1061  O1114   1.299   .     A
C1062  C1089   1.412   .     A
C1062  C1086   1.409   .     A
C1063  N1104   1.374   .     A
C1063  N1107   1.430   .     S
C1064  N1108   1.430   .     S
C1064  N1103   1.374   .     A
C1064  C645    1.414   1_565 S
C1065  N1109   1.430   .     S
C1065  N1104   1.376   .     A
C1066  N1110   1.430   .     S
C1066  N1103   1.376   .     A
C1066  C643    1.414   1_565 S
C1067  O1115   1.289   .     A
C1067  C1073   1.419   .     S
C1067  O1118   1.287   .     A
C1068  C1071   1.419   .     S
C1068  O1117   1.287   .     A
C1068  O1116   1.289   .     A
C1069  C1071   1.390   .     A
C1069  C1080   1.398   .     A
C1070  C1073   1.390   .     A
C1070  C1081   1.398   .     A
C1071  C1074   1.396   .     A
C1072  O1112   1.293   .     A
C1072  C1090   1.440   .     S
C1072  O1113   1.299   .     A
C1073  C1075   1.396   .     A
C1074  N1105   1.437   .     S
C1074  C1076   1.400   .     A
C1075  N1106   1.437   .     S
C1075  C1077   1.400   .     A
C1076  C1082   1.419   .     A
C1076  C1078   1.424   .     A
C1077  C1084   1.419   .     A
C1077  C1079   1.424   .     A
C1078  C1080   1.422   .     A
C1078  C449    1.397   1_556 S
C1079  C1081   1.422   .     A
C1080  C1085   1.412   .     A
C1081  C1083   1.412   .     A
C1082  C453    1.400   1_556 S
C1085  C454    1.400   1_556 S
C1086  C1228   1.379   1_455 S
C1087  C1090   1.409   .     A
C1087  C1159   1.379   .     S
C1088  C1090   1.412   .     A
C1088  C1156   1.379   .     S
C1089  C1227   1.379   1_455 S
H1091  N1105   1.045   .     S
H1092  N1109   1.043   .     S
H1093  N1110   1.040   .     S
H1094  N1110   1.043   .     S
H1095  N1105   1.046   .     S
H1096  N1106   1.045   .     S
H1097  N1106   1.046   .     S
H1098  N1107   1.040   .     S
H1099  N1107   1.044   .     S
H1100  N1108   1.040   .     S
H1101  N1108   1.044   .     S
H1102  N1109   1.040   .     S
N1103  Zn1119  2.027   .     S
N1104  Zn1120  2.027   .     S
O1111  Zn1119  2.010   .     S
O1112  Zn1120  2.010   .     S
O1113  Zn1119  1.994   .     S
O1114  Zn1120  1.994   .     S
O1115  Zn1119  2.004   .     S
O1116  Zn1120  2.004   .     S
O1117  Zn1119  2.003   .     S
O1118  Zn1120  2.003   .     S
Br1121 C1139   1.943   .     S
Br1122 C1159   1.943   .     S
Br1123 C1140   1.943   .     S
Br1124 C1152   1.944   .     S
Br1125 C1154   1.944   .     S
Br1126 C1153   1.941   .     S
Br1127 C1155   1.941   .     S
Br1128 C1156   1.946   .     S
Br1129 C1157   1.946   .     S
Br1130 C1158   1.943   .     S
C1131  C1132   1.440   .     S
C1131  O1181   1.293   .     A
C1131  O1184   1.299   .     A
C1132  C1159   1.412   .     A
C1132  C1156   1.409   .     A
C1133  N1174   1.374   .     A
C1133  N1177   1.430   .     S
C1134  N1178   1.430   .     S
C1134  N1173   1.374   .     A
C1134  C715    1.414   1_565 S
C1135  N1179   1.430   .     S
C1135  N1174   1.376   .     A
C1136  N1180   1.430   .     S
C1136  N1173   1.376   .     A
C1136  C713    1.414   1_565 S
C1137  O1185   1.289   .     A
C1137  C1143   1.419   .     S
C1137  O1188   1.287   .     A
C1138  C1141   1.419   .     S
C1138  O1187   1.287   .     A
C1138  O1186   1.289   .     A
C1139  C1141   1.390   .     A
C1139  C1150   1.398   .     A
C1140  C1143   1.390   .     A
C1140  C1151   1.398   .     A
C1141  C1144   1.396   .     A
C1142  O1182   1.293   .     A
C1142  C1160   1.440   .     S
C1142  O1183   1.299   .     A
C1143  C1145   1.396   .     A
C1144  N1175   1.437   .     S
C1144  C1146   1.400   .     A
C1145  N1176   1.437   .     S
C1145  C1147   1.400   .     A
C1146  C1152   1.419   .     A
C1146  C1148   1.424   .     A
C1147  C1154   1.419   .     A
C1147  C1149   1.424   .     A
C1148  C1150   1.422   .     A
C1148  C519    1.397   1_556 S
C1149  C1151   1.422   .     A
C1150  C1155   1.412   .     A
C1151  C1153   1.412   .     A
C1152  C523    1.400   1_556 S
C1155  C524    1.400   1_556 S
C1157  C1160   1.409   .     A
C1157  C1229   1.379   .     S
C1158  C1160   1.412   .     A
C1158  C1226   1.379   .     S
H1161  N1175   1.045   .     S
H1162  N1179   1.043   .     S
H1163  N1180   1.040   .     S
H1164  N1180   1.043   .     S
H1165  N1175   1.046   .     S
H1166  N1176   1.045   .     S
H1167  N1176   1.046   .     S
H1168  N1177   1.040   .     S
H1169  N1177   1.044   .     S
H1170  N1178   1.040   .     S
H1171  N1178   1.044   .     S
H1172  N1179   1.040   .     S
N1173  Zn1189  2.027   .     S
N1174  Zn1190  2.027   .     S
O1181  Zn1189  2.010   .     S
O1182  Zn1190  2.010   .     S
O1183  Zn1189  1.994   .     S
O1184  Zn1190  1.994   .     S
O1185  Zn1189  2.004   .     S
O1186  Zn1190  2.004   .     S
O1187  Zn1189  2.003   .     S
O1188  Zn1190  2.003   .     S
Br1191 C1209   1.943   .     S
Br1192 C1229   1.943   .     S
Br1193 C1210   1.943   .     S
Br1194 C1222   1.944   .     S
Br1195 C1224   1.944   .     S
Br1196 C1223   1.941   .     S
Br1197 C1225   1.941   .     S
Br1198 C1226   1.946   .     S
Br1199 C1227   1.946   .     S
Br1200 C1228   1.943   .     S
C1201  C1202   1.440   .     S
C1201  O1251   1.293   .     A
C1201  O1254   1.299   .     A
C1202  C1229   1.412   .     A
C1202  C1226   1.409   .     A
C1203  N1244   1.374   .     A
C1203  N1247   1.430   .     S
C1204  N1248   1.430   .     S
C1204  N1243   1.374   .     A
C1204  C785    1.414   1_565 S
C1205  N1249   1.430   .     S
C1205  N1244   1.376   .     A
C1206  N1250   1.430   .     S
C1206  N1243   1.376   .     A
C1206  C783    1.414   1_565 S
C1207  O1255   1.289   .     A
C1207  C1213   1.419   .     S
C1207  O1258   1.287   .     A
C1208  C1211   1.419   .     S
C1208  O1257   1.287   .     A
C1208  O1256   1.289   .     A
C1209  C1211   1.390   .     A
C1209  C1220   1.398   .     A
C1210  C1213   1.390   .     A
C1210  C1221   1.398   .     A
C1211  C1214   1.396   .     A
C1212  O1252   1.293   .     A
C1212  C1230   1.440   .     S
C1212  O1253   1.299   .     A
C1213  C1215   1.396   .     A
C1214  N1245   1.437   .     S
C1214  C1216   1.400   .     A
C1215  N1246   1.437   .     S
C1215  C1217   1.400   .     A
C1216  C1222   1.419   .     A
C1216  C1218   1.424   .     A
C1217  C1224   1.419   .     A
C1217  C1219   1.424   .     A
C1218  C1220   1.422   .     A
C1218  C589    1.397   1_556 S
C1219  C1221   1.422   .     A
C1220  C1225   1.412   .     A
C1221  C1223   1.412   .     A
C1222  C593    1.400   1_556 S
C1225  C594    1.400   1_556 S
C1227  C1230   1.409   .     A
C1227  C1089   1.379   1_655 S
C1228  C1230   1.412   .     A
C1228  C1086   1.379   1_655 S
H1231  N1245   1.045   .     S
H1232  N1249   1.043   .     S
H1233  N1250   1.040   .     S
H1234  N1250   1.043   .     S
H1235  N1245   1.046   .     S
H1236  N1246   1.045   .     S
H1237  N1246   1.046   .     S
H1238  N1247   1.040   .     S
H1239  N1247   1.044   .     S
H1240  N1248   1.040   .     S
H1241  N1248   1.044   .     S
H1242  N1249   1.040   .     S
N1243  Zn1259  2.027   .     S
N1244  Zn1260  2.027   .     S
O1251  Zn1259  2.010   .     S
O1252  Zn1260  2.010   .     S
O1253  Zn1259  1.994   .     S
O1254  Zn1260  1.994   .     S
O1255  Zn1259  2.004   .     S
O1256  Zn1260  2.004   .     S
O1257  Zn1259  2.003   .     S
O1258  Zn1260  2.003   .     S
