data_str_m1_o10_o18_pcu_sym.132
_audit_creation_date              2020-01-03
_audit_creation_method            'Materials Studio'
_symmetry_space_group_name_H-M    'P1'
_symmetry_Int_Tables_number       1
_symmetry_cell_setting            triclinic
loop_
_symmetry_equiv_pos_as_xyz
  x,y,z
_cell_length_a                    32.6525
_cell_length_b                    32.5378
_cell_length_c                    35.6485
_cell_angle_alpha                 98.0536
_cell_angle_beta                  72.9948
_cell_angle_gamma                 98.6729
loop_
_atom_site_label
_atom_site_type_symbol
_atom_site_fract_x
_atom_site_fract_y
_atom_site_fract_z
_atom_site_U_iso_or_equiv
_atom_site_adp_type
_atom_site_occupancy
C1     C     0.05267   0.16007   0.25853   0.00000  Uiso   1.00
C2     C     0.18274   0.11859   0.46299   0.00000  Uiso   1.00
C3     C     0.21177   0.10598   0.48009   0.00000  Uiso   1.00
C4     C     0.28106   0.17352   0.24123   0.00000  Uiso   1.00
C5     C     0.21063   0.12061   0.01950   0.00000  Uiso   1.00
C6     C     0.17697   0.14443   0.04228   0.00000  Uiso   1.00
C7     C     0.24032   0.11011   0.03776   0.00000  Uiso   1.00
C8     C     0.23427   0.11953   0.07832   0.00000  Uiso   1.00
C9     C     0.16843   0.14812   0.08358   0.00000  Uiso   1.00
C10    C     0.32695   0.17594   0.23766   0.00000  Uiso   1.00
C11    C     0.00740   0.15741   0.26233   0.00000  Uiso   1.00
C12    C     0.09767   0.21491   0.42053   0.00000  Uiso   1.00
C13    C     0.18146   0.32224   0.23765   0.00000  Uiso   1.00
C14    C     0.15203   0.01207   0.26177   0.00000  Uiso   1.00
C15    C     0.15561   0.05619   0.25919   0.00000  Uiso   1.00
C16    C     0.17699   0.27770   0.24125   0.00000  Uiso   1.00
C17    C     0.18836   0.14521   0.14400   0.00000  Uiso   1.00
C18    C     0.14521   0.18753   0.35622   0.00000  Uiso   1.00
C19    C     0.13254   0.19313   0.39961   0.00000  Uiso   1.00
C20    C     0.19725   0.13702   0.10132   0.00000  Uiso   1.00
C21    C     0.08536   0.21952   0.46158   0.00000  Uiso   1.00
C22    C     0.15378   0.17448   0.42026   0.00000  Uiso   1.00
C23    C     0.13908   0.17461   0.46153   0.00000  Uiso   1.00
C24    C     0.10706   0.20088   0.48271   0.00000  Uiso   1.00
C25    C     0.15826   0.15199   0.48206   0.00000  Uiso   1.00
C26    C     0.15273   0.16300   0.02307   0.00000  Uiso   1.00
C27    C     0.12478   0.19359   0.04284   0.00000  Uiso   1.00
C28    C     0.09987   0.20965   0.02378   0.00000  Uiso   1.00
Cl29   Cl    0.06371   0.24479   0.05272   0.00000  Uiso   1.00
Cl30   Cl    0.22581   0.01096   0.20136   0.00000  Uiso   1.00
Cl31   Cl    0.27205   0.10655   0.10009   0.00000  Uiso   1.00
Cl32   Cl    0.24581   0.06829   0.45245   0.00000  Uiso   1.00
Cl33   Cl    0.17135   0.08625   0.42192   0.00000  Uiso   1.00
F34    F     0.27588   0.09177   0.01667   0.00000  Uiso   1.00
F35    F     0.02236   0.19727   0.20886   0.00000  Uiso   1.00
F36    F     0.31335   0.13608   0.29182   0.00000  Uiso   1.00
F37    F     0.05213   0.24218   0.47986   0.00000  Uiso   1.00
F38    F     0.12349   0.21128   0.07990   0.00000  Uiso   1.00
H39    H     0.12464   0.33191   0.28389   0.00000  Uiso   1.00
H40    H     0.13900   0.15857   0.10295   0.00000  Uiso   1.00
H41    H     0.08017   0.22906   0.40514   0.00000  Uiso   1.00
H42    H     0.18290   0.16108   0.40380   0.00000  Uiso   1.00
O43    O     0.16667   0.16667   0.25000   0.00000  Uiso   1.00
O44    O     0.15693   0.12393   0.16625   0.00000  Uiso   1.00
O45    O     0.12687   0.20646   0.33749   0.00000  Uiso   1.00
O46    O     0.21088   0.17493   0.15877   0.00000  Uiso   1.00
O47    O     0.17198   0.16135   0.33749   0.00000  Uiso   1.00
O48    O     0.17849   0.08101   0.27821   0.00000  Uiso   1.00
O49    O     0.14581   0.26136   0.26767   0.00000  Uiso   1.00
O50    O     0.07452   0.13251   0.23607   0.00000  Uiso   1.00
O51    O     0.26785   0.19179   0.21806   0.00000  Uiso   1.00
O52    O     0.06990   0.18960   0.27820   0.00000  Uiso   1.00
O53    O     0.25440   0.15277   0.26768   0.00000  Uiso   1.00
O54    O     0.13800   0.06903   0.23607   0.00000  Uiso   1.00
O55    O     0.20437   0.25527   0.21806   0.00000  Uiso   1.00
Zn56   Zn    0.19244   0.14090   0.28278   0.00000  Uiso   1.00
Zn57   Zn    0.13459   0.12378   0.22258   0.00000  Uiso   1.00
Zn58   Zn    0.21166   0.19664   0.21188   0.00000  Uiso   1.00
Zn59   Zn    0.12798   0.20535   0.28277   0.00000  Uiso   1.00
C60    C     0.38601   0.16007   0.25853   0.00000  Uiso   1.00
C61    C     0.51608   0.11859   0.46299   0.00000  Uiso   1.00
C62    C     0.54510   0.10598   0.48009   0.00000  Uiso   1.00
C63    C     0.61439   0.17352   0.24123   0.00000  Uiso   1.00
C64    C     0.54396   0.12061   0.01950   0.00000  Uiso   1.00
C65    C     0.51030   0.14443   0.04228   0.00000  Uiso   1.00
C66    C     0.57366   0.11011   0.03776   0.00000  Uiso   1.00
C67    C     0.56760   0.11953   0.07832   0.00000  Uiso   1.00
C68    C     0.50177   0.14812   0.08358   0.00000  Uiso   1.00
C69    C     0.66029   0.17594   0.23766   0.00000  Uiso   1.00
C70    C     0.34073   0.15741   0.26233   0.00000  Uiso   1.00
C71    C     0.43100   0.21491   0.42053   0.00000  Uiso   1.00
C72    C     0.51479   0.32224   0.23765   0.00000  Uiso   1.00
C73    C     0.48536   0.01207   0.26177   0.00000  Uiso   1.00
C74    C     0.48894   0.05619   0.25919   0.00000  Uiso   1.00
C75    C     0.51032   0.27770   0.24125   0.00000  Uiso   1.00
C76    C     0.52169   0.14521   0.14400   0.00000  Uiso   1.00
C77    C     0.47854   0.18753   0.35622   0.00000  Uiso   1.00
C78    C     0.46587   0.19313   0.39961   0.00000  Uiso   1.00
C79    C     0.53058   0.13702   0.10132   0.00000  Uiso   1.00
C80    C     0.41869   0.21952   0.46158   0.00000  Uiso   1.00
C81    C     0.48711   0.17448   0.42026   0.00000  Uiso   1.00
C82    C     0.47241   0.17461   0.46153   0.00000  Uiso   1.00
C83    C     0.44039   0.20088   0.48271   0.00000  Uiso   1.00
C84    C     0.49159   0.15199   0.48206   0.00000  Uiso   1.00
C85    C     0.48607   0.16300   0.02307   0.00000  Uiso   1.00
C86    C     0.45811   0.19359   0.04284   0.00000  Uiso   1.00
C87    C     0.43320   0.20965   0.02378   0.00000  Uiso   1.00
Cl88   Cl    0.39704   0.24479   0.05272   0.00000  Uiso   1.00
Cl89   Cl    0.55914   0.01096   0.20136   0.00000  Uiso   1.00
Cl90   Cl    0.60538   0.10655   0.10009   0.00000  Uiso   1.00
Cl91   Cl    0.57914   0.06829   0.45245   0.00000  Uiso   1.00
Cl92   Cl    0.50468   0.08625   0.42192   0.00000  Uiso   1.00
F93    F     0.60921   0.09177   0.01667   0.00000  Uiso   1.00
F94    F     0.35569   0.19727   0.20886   0.00000  Uiso   1.00
F95    F     0.64669   0.13608   0.29182   0.00000  Uiso   1.00
F96    F     0.38547   0.24218   0.47986   0.00000  Uiso   1.00
F97    F     0.45682   0.21128   0.07990   0.00000  Uiso   1.00
H98    H     0.45798   0.33191   0.28389   0.00000  Uiso   1.00
H99    H     0.47233   0.15857   0.10295   0.00000  Uiso   1.00
H100   H     0.41350   0.22906   0.40514   0.00000  Uiso   1.00
H101   H     0.51624   0.16108   0.40380   0.00000  Uiso   1.00
O102   O     0.50000   0.16667   0.25000   0.00000  Uiso   1.00
O103   O     0.49027   0.12393   0.16625   0.00000  Uiso   1.00
O104   O     0.46020   0.20646   0.33749   0.00000  Uiso   1.00
O105   O     0.54421   0.17493   0.15877   0.00000  Uiso   1.00
O106   O     0.50532   0.16135   0.33749   0.00000  Uiso   1.00
O107   O     0.51182   0.08101   0.27821   0.00000  Uiso   1.00
O108   O     0.47914   0.26136   0.26767   0.00000  Uiso   1.00
O109   O     0.40785   0.13251   0.23607   0.00000  Uiso   1.00
O110   O     0.60119   0.19179   0.21806   0.00000  Uiso   1.00
O111   O     0.40323   0.18960   0.27820   0.00000  Uiso   1.00
O112   O     0.58773   0.15277   0.26768   0.00000  Uiso   1.00
O113   O     0.47133   0.06903   0.23607   0.00000  Uiso   1.00
O114   O     0.53771   0.25527   0.21806   0.00000  Uiso   1.00
Zn115  Zn    0.52577   0.14090   0.28278   0.00000  Uiso   1.00
Zn116  Zn    0.46792   0.12378   0.22258   0.00000  Uiso   1.00
Zn117  Zn    0.54500   0.19664   0.21188   0.00000  Uiso   1.00
Zn118  Zn    0.46131   0.20535   0.28277   0.00000  Uiso   1.00
C119   C     0.71934   0.16007   0.25853   0.00000  Uiso   1.00
C120   C     0.84941   0.11859   0.46299   0.00000  Uiso   1.00
C121   C     0.87843   0.10598   0.48009   0.00000  Uiso   1.00
C122   C     0.94772   0.17352   0.24123   0.00000  Uiso   1.00
C123   C     0.87730   0.12061   0.01950   0.00000  Uiso   1.00
C124   C     0.84363   0.14443   0.04228   0.00000  Uiso   1.00
C125   C     0.90699   0.11011   0.03776   0.00000  Uiso   1.00
C126   C     0.90094   0.11953   0.07832   0.00000  Uiso   1.00
C127   C     0.83510   0.14812   0.08358   0.00000  Uiso   1.00
C128   C     0.99362   0.17594   0.23766   0.00000  Uiso   1.00
C129   C     0.67406   0.15741   0.26233   0.00000  Uiso   1.00
C130   C     0.76434   0.21491   0.42053   0.00000  Uiso   1.00
C131   C     0.84812   0.32224   0.23765   0.00000  Uiso   1.00
C132   C     0.81869   0.01207   0.26177   0.00000  Uiso   1.00
C133   C     0.82227   0.05619   0.25919   0.00000  Uiso   1.00
C134   C     0.84365   0.27770   0.24125   0.00000  Uiso   1.00
C135   C     0.85503   0.14521   0.14400   0.00000  Uiso   1.00
C136   C     0.81188   0.18753   0.35622   0.00000  Uiso   1.00
C137   C     0.79920   0.19313   0.39961   0.00000  Uiso   1.00
C138   C     0.86391   0.13702   0.10132   0.00000  Uiso   1.00
C139   C     0.75203   0.21952   0.46158   0.00000  Uiso   1.00
C140   C     0.82045   0.17448   0.42026   0.00000  Uiso   1.00
C141   C     0.80575   0.17461   0.46153   0.00000  Uiso   1.00
C142   C     0.77373   0.20088   0.48271   0.00000  Uiso   1.00
C143   C     0.82493   0.15199   0.48206   0.00000  Uiso   1.00
C144   C     0.81940   0.16300   0.02307   0.00000  Uiso   1.00
C145   C     0.79144   0.19359   0.04284   0.00000  Uiso   1.00
C146   C     0.76653   0.20965   0.02378   0.00000  Uiso   1.00
Cl147  Cl    0.73037   0.24479   0.05272   0.00000  Uiso   1.00
Cl148  Cl    0.89247   0.01096   0.20136   0.00000  Uiso   1.00
Cl149  Cl    0.93872   0.10655   0.10009   0.00000  Uiso   1.00
Cl150  Cl    0.91247   0.06829   0.45245   0.00000  Uiso   1.00
Cl151  Cl    0.83802   0.08625   0.42192   0.00000  Uiso   1.00
F152   F     0.94255   0.09177   0.01667   0.00000  Uiso   1.00
F153   F     0.68903   0.19727   0.20886   0.00000  Uiso   1.00
F154   F     0.98002   0.13608   0.29182   0.00000  Uiso   1.00
F155   F     0.71880   0.24218   0.47986   0.00000  Uiso   1.00
F156   F     0.79016   0.21128   0.07990   0.00000  Uiso   1.00
H157   H     0.79131   0.33191   0.28389   0.00000  Uiso   1.00
H158   H     0.80566   0.15857   0.10295   0.00000  Uiso   1.00
H159   H     0.74684   0.22906   0.40514   0.00000  Uiso   1.00
H160   H     0.84957   0.16108   0.40380   0.00000  Uiso   1.00
O161   O     0.83333   0.16667   0.25000   0.00000  Uiso   1.00
O162   O     0.82360   0.12393   0.16625   0.00000  Uiso   1.00
O163   O     0.79354   0.20646   0.33749   0.00000  Uiso   1.00
O164   O     0.87755   0.17493   0.15877   0.00000  Uiso   1.00
O165   O     0.83865   0.16135   0.33749   0.00000  Uiso   1.00
O166   O     0.84515   0.08101   0.27821   0.00000  Uiso   1.00
O167   O     0.81247   0.26136   0.26767   0.00000  Uiso   1.00
O168   O     0.74119   0.13251   0.23607   0.00000  Uiso   1.00
O169   O     0.93452   0.19179   0.21806   0.00000  Uiso   1.00
O170   O     0.73656   0.18960   0.27820   0.00000  Uiso   1.00
O171   O     0.92106   0.15277   0.26768   0.00000  Uiso   1.00
O172   O     0.80467   0.06903   0.23607   0.00000  Uiso   1.00
O173   O     0.87104   0.25527   0.21806   0.00000  Uiso   1.00
Zn174  Zn    0.85910   0.14090   0.28278   0.00000  Uiso   1.00
Zn175  Zn    0.80125   0.12378   0.22258   0.00000  Uiso   1.00
Zn176  Zn    0.87833   0.19664   0.21188   0.00000  Uiso   1.00
Zn177  Zn    0.79465   0.20535   0.28277   0.00000  Uiso   1.00
C178   C     0.05267   0.49340   0.25853   0.00000  Uiso   1.00
C179   C     0.18274   0.45193   0.46299   0.00000  Uiso   1.00
C180   C     0.21177   0.43932   0.48009   0.00000  Uiso   1.00
C181   C     0.28106   0.50685   0.24123   0.00000  Uiso   1.00
C182   C     0.21063   0.45394   0.01950   0.00000  Uiso   1.00
C183   C     0.17697   0.47776   0.04228   0.00000  Uiso   1.00
C184   C     0.24032   0.44344   0.03776   0.00000  Uiso   1.00
C185   C     0.23427   0.45286   0.07832   0.00000  Uiso   1.00
C186   C     0.16843   0.48146   0.08358   0.00000  Uiso   1.00
C187   C     0.32695   0.50927   0.23766   0.00000  Uiso   1.00
C188   C     0.00740   0.49074   0.26233   0.00000  Uiso   1.00
C189   C     0.09767   0.54824   0.42053   0.00000  Uiso   1.00
C190   C     0.18146   0.65557   0.23765   0.00000  Uiso   1.00
C191   C     0.15203   0.34541   0.26177   0.00000  Uiso   1.00
C192   C     0.15561   0.38952   0.25919   0.00000  Uiso   1.00
C193   C     0.17699   0.61104   0.24125   0.00000  Uiso   1.00
C194   C     0.18836   0.47855   0.14400   0.00000  Uiso   1.00
C195   C     0.14521   0.52086   0.35622   0.00000  Uiso   1.00
C196   C     0.13254   0.52646   0.39961   0.00000  Uiso   1.00
C197   C     0.19725   0.47035   0.10132   0.00000  Uiso   1.00
C198   C     0.08536   0.55285   0.46158   0.00000  Uiso   1.00
C199   C     0.15378   0.50782   0.42026   0.00000  Uiso   1.00
C200   C     0.13908   0.50795   0.46153   0.00000  Uiso   1.00
C201   C     0.10706   0.53422   0.48271   0.00000  Uiso   1.00
C202   C     0.15826   0.48532   0.48206   0.00000  Uiso   1.00
C203   C     0.15273   0.49633   0.02307   0.00000  Uiso   1.00
C204   C     0.12478   0.52693   0.04284   0.00000  Uiso   1.00
C205   C     0.09987   0.54298   0.02378   0.00000  Uiso   1.00
Cl206  Cl    0.06371   0.57812   0.05272   0.00000  Uiso   1.00
Cl207  Cl    0.22581   0.34430   0.20136   0.00000  Uiso   1.00
Cl208  Cl    0.27205   0.43988   0.10009   0.00000  Uiso   1.00
Cl209  Cl    0.24581   0.40162   0.45245   0.00000  Uiso   1.00
Cl210  Cl    0.17135   0.41958   0.42192   0.00000  Uiso   1.00
F211   F     0.27588   0.42510   0.01667   0.00000  Uiso   1.00
F212   F     0.02236   0.53060   0.20886   0.00000  Uiso   1.00
F213   F     0.31335   0.46941   0.29182   0.00000  Uiso   1.00
F214   F     0.05213   0.57552   0.47986   0.00000  Uiso   1.00
F215   F     0.12349   0.54461   0.07990   0.00000  Uiso   1.00
H216   H     0.12464   0.66524   0.28389   0.00000  Uiso   1.00
H217   H     0.13900   0.49190   0.10295   0.00000  Uiso   1.00
H218   H     0.08017   0.56239   0.40514   0.00000  Uiso   1.00
H219   H     0.18290   0.49442   0.40380   0.00000  Uiso   1.00
O220   O     0.16667   0.50000   0.25000   0.00000  Uiso   1.00
O221   O     0.15693   0.45726   0.16625   0.00000  Uiso   1.00
O222   O     0.12687   0.53979   0.33749   0.00000  Uiso   1.00
O223   O     0.21088   0.50826   0.15877   0.00000  Uiso   1.00
O224   O     0.17198   0.49468   0.33749   0.00000  Uiso   1.00
O225   O     0.17849   0.41434   0.27821   0.00000  Uiso   1.00
O226   O     0.14581   0.59469   0.26767   0.00000  Uiso   1.00
O227   O     0.07452   0.46584   0.23607   0.00000  Uiso   1.00
O228   O     0.26785   0.52512   0.21806   0.00000  Uiso   1.00
O229   O     0.06990   0.52293   0.27820   0.00000  Uiso   1.00
O230   O     0.25440   0.48610   0.26768   0.00000  Uiso   1.00
O231   O     0.13800   0.40236   0.23607   0.00000  Uiso   1.00
O232   O     0.20437   0.58860   0.21806   0.00000  Uiso   1.00
Zn233  Zn    0.19244   0.47423   0.28278   0.00000  Uiso   1.00
Zn234  Zn    0.13459   0.45711   0.22258   0.00000  Uiso   1.00
Zn235  Zn    0.21166   0.52997   0.21188   0.00000  Uiso   1.00
Zn236  Zn    0.12798   0.53868   0.28277   0.00000  Uiso   1.00
C237   C     0.38601   0.49340   0.25853   0.00000  Uiso   1.00
C238   C     0.51608   0.45193   0.46299   0.00000  Uiso   1.00
C239   C     0.54510   0.43932   0.48009   0.00000  Uiso   1.00
C240   C     0.61439   0.50685   0.24123   0.00000  Uiso   1.00
C241   C     0.54396   0.45394   0.01950   0.00000  Uiso   1.00
C242   C     0.51030   0.47776   0.04228   0.00000  Uiso   1.00
C243   C     0.57366   0.44344   0.03776   0.00000  Uiso   1.00
C244   C     0.56760   0.45286   0.07832   0.00000  Uiso   1.00
C245   C     0.50177   0.48146   0.08358   0.00000  Uiso   1.00
C246   C     0.66029   0.50927   0.23766   0.00000  Uiso   1.00
C247   C     0.34073   0.49074   0.26233   0.00000  Uiso   1.00
C248   C     0.43100   0.54824   0.42053   0.00000  Uiso   1.00
C249   C     0.51479   0.65557   0.23765   0.00000  Uiso   1.00
C250   C     0.48536   0.34541   0.26177   0.00000  Uiso   1.00
C251   C     0.48894   0.38952   0.25919   0.00000  Uiso   1.00
C252   C     0.51032   0.61104   0.24125   0.00000  Uiso   1.00
C253   C     0.52169   0.47855   0.14400   0.00000  Uiso   1.00
C254   C     0.47854   0.52086   0.35622   0.00000  Uiso   1.00
C255   C     0.46587   0.52646   0.39961   0.00000  Uiso   1.00
C256   C     0.53058   0.47035   0.10132   0.00000  Uiso   1.00
C257   C     0.41869   0.55285   0.46158   0.00000  Uiso   1.00
C258   C     0.48711   0.50782   0.42026   0.00000  Uiso   1.00
C259   C     0.47241   0.50795   0.46153   0.00000  Uiso   1.00
C260   C     0.44039   0.53422   0.48271   0.00000  Uiso   1.00
C261   C     0.49159   0.48532   0.48206   0.00000  Uiso   1.00
C262   C     0.48607   0.49633   0.02307   0.00000  Uiso   1.00
C263   C     0.45811   0.52693   0.04284   0.00000  Uiso   1.00
C264   C     0.43320   0.54298   0.02378   0.00000  Uiso   1.00
Cl265  Cl    0.39704   0.57812   0.05272   0.00000  Uiso   1.00
Cl266  Cl    0.55914   0.34430   0.20136   0.00000  Uiso   1.00
Cl267  Cl    0.60538   0.43988   0.10009   0.00000  Uiso   1.00
Cl268  Cl    0.57914   0.40162   0.45245   0.00000  Uiso   1.00
Cl269  Cl    0.50468   0.41958   0.42192   0.00000  Uiso   1.00
F270   F     0.60921   0.42510   0.01667   0.00000  Uiso   1.00
F271   F     0.35569   0.53060   0.20886   0.00000  Uiso   1.00
F272   F     0.64669   0.46941   0.29182   0.00000  Uiso   1.00
F273   F     0.38547   0.57552   0.47986   0.00000  Uiso   1.00
F274   F     0.45682   0.54461   0.07990   0.00000  Uiso   1.00
H275   H     0.45798   0.66524   0.28389   0.00000  Uiso   1.00
H276   H     0.47233   0.49190   0.10295   0.00000  Uiso   1.00
H277   H     0.41350   0.56239   0.40514   0.00000  Uiso   1.00
H278   H     0.51624   0.49442   0.40380   0.00000  Uiso   1.00
O279   O     0.50000   0.50000   0.25000   0.00000  Uiso   1.00
O280   O     0.49027   0.45726   0.16625   0.00000  Uiso   1.00
O281   O     0.46020   0.53979   0.33749   0.00000  Uiso   1.00
O282   O     0.54421   0.50826   0.15877   0.00000  Uiso   1.00
O283   O     0.50532   0.49468   0.33749   0.00000  Uiso   1.00
O284   O     0.51182   0.41434   0.27821   0.00000  Uiso   1.00
O285   O     0.47914   0.59469   0.26767   0.00000  Uiso   1.00
O286   O     0.40785   0.46584   0.23607   0.00000  Uiso   1.00
O287   O     0.60119   0.52512   0.21806   0.00000  Uiso   1.00
O288   O     0.40323   0.52293   0.27820   0.00000  Uiso   1.00
O289   O     0.58773   0.48610   0.26768   0.00000  Uiso   1.00
O290   O     0.47133   0.40236   0.23607   0.00000  Uiso   1.00
O291   O     0.53771   0.58860   0.21806   0.00000  Uiso   1.00
Zn292  Zn    0.52577   0.47423   0.28278   0.00000  Uiso   1.00
Zn293  Zn    0.46792   0.45711   0.22258   0.00000  Uiso   1.00
Zn294  Zn    0.54500   0.52997   0.21188   0.00000  Uiso   1.00
Zn295  Zn    0.46131   0.53868   0.28277   0.00000  Uiso   1.00
C296   C     0.71934   0.49340   0.25853   0.00000  Uiso   1.00
C297   C     0.84941   0.45193   0.46299   0.00000  Uiso   1.00
C298   C     0.87843   0.43932   0.48009   0.00000  Uiso   1.00
C299   C     0.94772   0.50685   0.24123   0.00000  Uiso   1.00
C300   C     0.87730   0.45394   0.01950   0.00000  Uiso   1.00
C301   C     0.84363   0.47776   0.04228   0.00000  Uiso   1.00
C302   C     0.90699   0.44344   0.03776   0.00000  Uiso   1.00
C303   C     0.90094   0.45286   0.07832   0.00000  Uiso   1.00
C304   C     0.83510   0.48146   0.08358   0.00000  Uiso   1.00
C305   C     0.99362   0.50927   0.23766   0.00000  Uiso   1.00
C306   C     0.67406   0.49074   0.26233   0.00000  Uiso   1.00
C307   C     0.76434   0.54824   0.42053   0.00000  Uiso   1.00
C308   C     0.84812   0.65557   0.23765   0.00000  Uiso   1.00
C309   C     0.81869   0.34541   0.26177   0.00000  Uiso   1.00
C310   C     0.82227   0.38952   0.25919   0.00000  Uiso   1.00
C311   C     0.84365   0.61104   0.24125   0.00000  Uiso   1.00
C312   C     0.85503   0.47855   0.14400   0.00000  Uiso   1.00
C313   C     0.81188   0.52086   0.35622   0.00000  Uiso   1.00
C314   C     0.79920   0.52646   0.39961   0.00000  Uiso   1.00
C315   C     0.86391   0.47035   0.10132   0.00000  Uiso   1.00
C316   C     0.75203   0.55285   0.46158   0.00000  Uiso   1.00
C317   C     0.82045   0.50782   0.42026   0.00000  Uiso   1.00
C318   C     0.80575   0.50795   0.46153   0.00000  Uiso   1.00
C319   C     0.77373   0.53422   0.48271   0.00000  Uiso   1.00
C320   C     0.82493   0.48532   0.48206   0.00000  Uiso   1.00
C321   C     0.81940   0.49633   0.02307   0.00000  Uiso   1.00
C322   C     0.79144   0.52693   0.04284   0.00000  Uiso   1.00
C323   C     0.76653   0.54298   0.02378   0.00000  Uiso   1.00
Cl324  Cl    0.73037   0.57812   0.05272   0.00000  Uiso   1.00
Cl325  Cl    0.89247   0.34430   0.20136   0.00000  Uiso   1.00
Cl326  Cl    0.93872   0.43988   0.10009   0.00000  Uiso   1.00
Cl327  Cl    0.91247   0.40162   0.45245   0.00000  Uiso   1.00
Cl328  Cl    0.83802   0.41958   0.42192   0.00000  Uiso   1.00
F329   F     0.94255   0.42510   0.01667   0.00000  Uiso   1.00
F330   F     0.68903   0.53060   0.20886   0.00000  Uiso   1.00
F331   F     0.98002   0.46941   0.29182   0.00000  Uiso   1.00
F332   F     0.71880   0.57552   0.47986   0.00000  Uiso   1.00
F333   F     0.79016   0.54461   0.07990   0.00000  Uiso   1.00
H334   H     0.79131   0.66524   0.28389   0.00000  Uiso   1.00
H335   H     0.80566   0.49190   0.10295   0.00000  Uiso   1.00
H336   H     0.74684   0.56239   0.40514   0.00000  Uiso   1.00
H337   H     0.84957   0.49442   0.40380   0.00000  Uiso   1.00
O338   O     0.83333   0.50000   0.25000   0.00000  Uiso   1.00
O339   O     0.82360   0.45726   0.16625   0.00000  Uiso   1.00
O340   O     0.79354   0.53979   0.33749   0.00000  Uiso   1.00
O341   O     0.87755   0.50826   0.15877   0.00000  Uiso   1.00
O342   O     0.83865   0.49468   0.33749   0.00000  Uiso   1.00
O343   O     0.84515   0.41434   0.27821   0.00000  Uiso   1.00
O344   O     0.81247   0.59469   0.26767   0.00000  Uiso   1.00
O345   O     0.74119   0.46584   0.23607   0.00000  Uiso   1.00
O346   O     0.93452   0.52512   0.21806   0.00000  Uiso   1.00
O347   O     0.73656   0.52293   0.27820   0.00000  Uiso   1.00
O348   O     0.92106   0.48610   0.26768   0.00000  Uiso   1.00
O349   O     0.80467   0.40236   0.23607   0.00000  Uiso   1.00
O350   O     0.87104   0.58860   0.21806   0.00000  Uiso   1.00
Zn351  Zn    0.85910   0.47423   0.28278   0.00000  Uiso   1.00
Zn352  Zn    0.80125   0.45711   0.22258   0.00000  Uiso   1.00
Zn353  Zn    0.87833   0.52997   0.21188   0.00000  Uiso   1.00
Zn354  Zn    0.79465   0.53868   0.28277   0.00000  Uiso   1.00
C355   C     0.05267   0.82673   0.25853   0.00000  Uiso   1.00
C356   C     0.18274   0.78526   0.46299   0.00000  Uiso   1.00
C357   C     0.21177   0.77265   0.48009   0.00000  Uiso   1.00
C358   C     0.28106   0.84018   0.24123   0.00000  Uiso   1.00
C359   C     0.21063   0.78727   0.01950   0.00000  Uiso   1.00
C360   C     0.17697   0.81109   0.04228   0.00000  Uiso   1.00
C361   C     0.24032   0.77677   0.03776   0.00000  Uiso   1.00
C362   C     0.23427   0.78619   0.07832   0.00000  Uiso   1.00
C363   C     0.16843   0.81479   0.08358   0.00000  Uiso   1.00
C364   C     0.32695   0.84261   0.23766   0.00000  Uiso   1.00
C365   C     0.00740   0.82408   0.26233   0.00000  Uiso   1.00
C366   C     0.09767   0.88157   0.42053   0.00000  Uiso   1.00
C367   C     0.18146   0.98891   0.23765   0.00000  Uiso   1.00
C368   C     0.15203   0.67874   0.26177   0.00000  Uiso   1.00
C369   C     0.15561   0.72285   0.25919   0.00000  Uiso   1.00
C370   C     0.17699   0.94437   0.24125   0.00000  Uiso   1.00
C371   C     0.18836   0.81188   0.14400   0.00000  Uiso   1.00
C372   C     0.14521   0.85419   0.35622   0.00000  Uiso   1.00
C373   C     0.13254   0.85980   0.39961   0.00000  Uiso   1.00
C374   C     0.19725   0.80369   0.10132   0.00000  Uiso   1.00
C375   C     0.08536   0.88619   0.46158   0.00000  Uiso   1.00
C376   C     0.15378   0.84115   0.42026   0.00000  Uiso   1.00
C377   C     0.13908   0.84128   0.46153   0.00000  Uiso   1.00
C378   C     0.10706   0.86755   0.48271   0.00000  Uiso   1.00
C379   C     0.15826   0.81866   0.48206   0.00000  Uiso   1.00
C380   C     0.15273   0.82967   0.02307   0.00000  Uiso   1.00
C381   C     0.12478   0.86026   0.04284   0.00000  Uiso   1.00
C382   C     0.09987   0.87631   0.02378   0.00000  Uiso   1.00
Cl383  Cl    0.06371   0.91145   0.05272   0.00000  Uiso   1.00
Cl384  Cl    0.22581   0.67763   0.20136   0.00000  Uiso   1.00
Cl385  Cl    0.27205   0.77321   0.10009   0.00000  Uiso   1.00
Cl386  Cl    0.24581   0.73495   0.45245   0.00000  Uiso   1.00
Cl387  Cl    0.17135   0.75291   0.42192   0.00000  Uiso   1.00
F388   F     0.27588   0.75843   0.01667   0.00000  Uiso   1.00
F389   F     0.02236   0.86393   0.20886   0.00000  Uiso   1.00
F390   F     0.31335   0.80275   0.29182   0.00000  Uiso   1.00
F391   F     0.05213   0.90885   0.47986   0.00000  Uiso   1.00
F392   F     0.12349   0.87795   0.07990   0.00000  Uiso   1.00
H393   H     0.12464   0.99857   0.28389   0.00000  Uiso   1.00
H394   H     0.13900   0.82524   0.10295   0.00000  Uiso   1.00
H395   H     0.08017   0.89572   0.40514   0.00000  Uiso   1.00
H396   H     0.18290   0.82775   0.40380   0.00000  Uiso   1.00
O397   O     0.16667   0.83333   0.25000   0.00000  Uiso   1.00
O398   O     0.15693   0.79060   0.16625   0.00000  Uiso   1.00
O399   O     0.12687   0.87313   0.33749   0.00000  Uiso   1.00
O400   O     0.21088   0.84159   0.15877   0.00000  Uiso   1.00
O401   O     0.17198   0.82802   0.33749   0.00000  Uiso   1.00
O402   O     0.17849   0.74768   0.27821   0.00000  Uiso   1.00
O403   O     0.14581   0.92803   0.26767   0.00000  Uiso   1.00
O404   O     0.07452   0.79917   0.23607   0.00000  Uiso   1.00
O405   O     0.26785   0.85845   0.21806   0.00000  Uiso   1.00
O406   O     0.06990   0.85627   0.27820   0.00000  Uiso   1.00
O407   O     0.25440   0.81944   0.26768   0.00000  Uiso   1.00
O408   O     0.13800   0.73570   0.23607   0.00000  Uiso   1.00
O409   O     0.20437   0.92193   0.21806   0.00000  Uiso   1.00
Zn410  Zn    0.19244   0.80756   0.28278   0.00000  Uiso   1.00
Zn411  Zn    0.13459   0.79044   0.22258   0.00000  Uiso   1.00
Zn412  Zn    0.21166   0.86331   0.21188   0.00000  Uiso   1.00
Zn413  Zn    0.12798   0.87202   0.28277   0.00000  Uiso   1.00
C414   C     0.38601   0.82673   0.25853   0.00000  Uiso   1.00
C415   C     0.51608   0.78526   0.46299   0.00000  Uiso   1.00
C416   C     0.54510   0.77265   0.48009   0.00000  Uiso   1.00
C417   C     0.61439   0.84018   0.24123   0.00000  Uiso   1.00
C418   C     0.54396   0.78727   0.01950   0.00000  Uiso   1.00
C419   C     0.51030   0.81109   0.04228   0.00000  Uiso   1.00
C420   C     0.57366   0.77677   0.03776   0.00000  Uiso   1.00
C421   C     0.56760   0.78619   0.07832   0.00000  Uiso   1.00
C422   C     0.50177   0.81479   0.08358   0.00000  Uiso   1.00
C423   C     0.66029   0.84261   0.23766   0.00000  Uiso   1.00
C424   C     0.34073   0.82408   0.26233   0.00000  Uiso   1.00
C425   C     0.43100   0.88157   0.42053   0.00000  Uiso   1.00
C426   C     0.51479   0.98891   0.23765   0.00000  Uiso   1.00
C427   C     0.48536   0.67874   0.26177   0.00000  Uiso   1.00
C428   C     0.48894   0.72285   0.25919   0.00000  Uiso   1.00
C429   C     0.51032   0.94437   0.24125   0.00000  Uiso   1.00
C430   C     0.52169   0.81188   0.14400   0.00000  Uiso   1.00
C431   C     0.47854   0.85419   0.35622   0.00000  Uiso   1.00
C432   C     0.46587   0.85980   0.39961   0.00000  Uiso   1.00
C433   C     0.53058   0.80369   0.10132   0.00000  Uiso   1.00
C434   C     0.41869   0.88619   0.46158   0.00000  Uiso   1.00
C435   C     0.48711   0.84115   0.42026   0.00000  Uiso   1.00
C436   C     0.47241   0.84128   0.46153   0.00000  Uiso   1.00
C437   C     0.44039   0.86755   0.48271   0.00000  Uiso   1.00
C438   C     0.49159   0.81866   0.48206   0.00000  Uiso   1.00
C439   C     0.48607   0.82967   0.02307   0.00000  Uiso   1.00
C440   C     0.45811   0.86026   0.04284   0.00000  Uiso   1.00
C441   C     0.43320   0.87631   0.02378   0.00000  Uiso   1.00
Cl442  Cl    0.39704   0.91145   0.05272   0.00000  Uiso   1.00
Cl443  Cl    0.55914   0.67763   0.20136   0.00000  Uiso   1.00
Cl444  Cl    0.60538   0.77321   0.10009   0.00000  Uiso   1.00
Cl445  Cl    0.57914   0.73495   0.45245   0.00000  Uiso   1.00
Cl446  Cl    0.50468   0.75291   0.42192   0.00000  Uiso   1.00
F447   F     0.60921   0.75843   0.01667   0.00000  Uiso   1.00
F448   F     0.35569   0.86393   0.20886   0.00000  Uiso   1.00
F449   F     0.64669   0.80275   0.29182   0.00000  Uiso   1.00
F450   F     0.38547   0.90885   0.47986   0.00000  Uiso   1.00
F451   F     0.45682   0.87795   0.07990   0.00000  Uiso   1.00
H452   H     0.45798   0.99857   0.28389   0.00000  Uiso   1.00
H453   H     0.47233   0.82524   0.10295   0.00000  Uiso   1.00
H454   H     0.41350   0.89572   0.40514   0.00000  Uiso   1.00
H455   H     0.51624   0.82775   0.40380   0.00000  Uiso   1.00
O456   O     0.50000   0.83333   0.25000   0.00000  Uiso   1.00
O457   O     0.49027   0.79060   0.16625   0.00000  Uiso   1.00
O458   O     0.46020   0.87313   0.33749   0.00000  Uiso   1.00
O459   O     0.54421   0.84159   0.15877   0.00000  Uiso   1.00
O460   O     0.50532   0.82802   0.33749   0.00000  Uiso   1.00
O461   O     0.51182   0.74768   0.27821   0.00000  Uiso   1.00
O462   O     0.47914   0.92803   0.26767   0.00000  Uiso   1.00
O463   O     0.40785   0.79917   0.23607   0.00000  Uiso   1.00
O464   O     0.60119   0.85845   0.21806   0.00000  Uiso   1.00
O465   O     0.40323   0.85627   0.27820   0.00000  Uiso   1.00
O466   O     0.58773   0.81944   0.26768   0.00000  Uiso   1.00
O467   O     0.47133   0.73570   0.23607   0.00000  Uiso   1.00
O468   O     0.53771   0.92193   0.21806   0.00000  Uiso   1.00
Zn469  Zn    0.52577   0.80756   0.28278   0.00000  Uiso   1.00
Zn470  Zn    0.46792   0.79044   0.22258   0.00000  Uiso   1.00
Zn471  Zn    0.54500   0.86331   0.21188   0.00000  Uiso   1.00
Zn472  Zn    0.46131   0.87202   0.28277   0.00000  Uiso   1.00
C473   C     0.71934   0.82673   0.25853   0.00000  Uiso   1.00
C474   C     0.84941   0.78526   0.46299   0.00000  Uiso   1.00
C475   C     0.87843   0.77265   0.48009   0.00000  Uiso   1.00
C476   C     0.94772   0.84018   0.24123   0.00000  Uiso   1.00
C477   C     0.87730   0.78727   0.01950   0.00000  Uiso   1.00
C478   C     0.84363   0.81109   0.04228   0.00000  Uiso   1.00
C479   C     0.90699   0.77677   0.03776   0.00000  Uiso   1.00
C480   C     0.90094   0.78619   0.07832   0.00000  Uiso   1.00
C481   C     0.83510   0.81479   0.08358   0.00000  Uiso   1.00
C482   C     0.99362   0.84261   0.23766   0.00000  Uiso   1.00
C483   C     0.67406   0.82408   0.26233   0.00000  Uiso   1.00
C484   C     0.76434   0.88157   0.42053   0.00000  Uiso   1.00
C485   C     0.84812   0.98891   0.23765   0.00000  Uiso   1.00
C486   C     0.81869   0.67874   0.26177   0.00000  Uiso   1.00
C487   C     0.82227   0.72285   0.25919   0.00000  Uiso   1.00
C488   C     0.84365   0.94437   0.24125   0.00000  Uiso   1.00
C489   C     0.85503   0.81188   0.14400   0.00000  Uiso   1.00
C490   C     0.81188   0.85419   0.35622   0.00000  Uiso   1.00
C491   C     0.79920   0.85980   0.39961   0.00000  Uiso   1.00
C492   C     0.86391   0.80369   0.10132   0.00000  Uiso   1.00
C493   C     0.75203   0.88619   0.46158   0.00000  Uiso   1.00
C494   C     0.82045   0.84115   0.42026   0.00000  Uiso   1.00
C495   C     0.80575   0.84128   0.46153   0.00000  Uiso   1.00
C496   C     0.77373   0.86755   0.48271   0.00000  Uiso   1.00
C497   C     0.82493   0.81866   0.48206   0.00000  Uiso   1.00
C498   C     0.81940   0.82967   0.02307   0.00000  Uiso   1.00
C499   C     0.79144   0.86026   0.04284   0.00000  Uiso   1.00
C500   C     0.76653   0.87631   0.02378   0.00000  Uiso   1.00
Cl501  Cl    0.73037   0.91145   0.05272   0.00000  Uiso   1.00
Cl502  Cl    0.89247   0.67763   0.20136   0.00000  Uiso   1.00
Cl503  Cl    0.93872   0.77321   0.10009   0.00000  Uiso   1.00
Cl504  Cl    0.91247   0.73495   0.45245   0.00000  Uiso   1.00
Cl505  Cl    0.83802   0.75291   0.42192   0.00000  Uiso   1.00
F506   F     0.94255   0.75843   0.01667   0.00000  Uiso   1.00
F507   F     0.68903   0.86393   0.20886   0.00000  Uiso   1.00
F508   F     0.98002   0.80275   0.29182   0.00000  Uiso   1.00
F509   F     0.71880   0.90885   0.47986   0.00000  Uiso   1.00
F510   F     0.79016   0.87795   0.07990   0.00000  Uiso   1.00
H511   H     0.79131   0.99857   0.28389   0.00000  Uiso   1.00
H512   H     0.80566   0.82524   0.10295   0.00000  Uiso   1.00
H513   H     0.74684   0.89572   0.40514   0.00000  Uiso   1.00
H514   H     0.84957   0.82775   0.40380   0.00000  Uiso   1.00
O515   O     0.83333   0.83333   0.25000   0.00000  Uiso   1.00
O516   O     0.82360   0.79060   0.16625   0.00000  Uiso   1.00
O517   O     0.79354   0.87313   0.33749   0.00000  Uiso   1.00
O518   O     0.87755   0.84159   0.15877   0.00000  Uiso   1.00
O519   O     0.83865   0.82802   0.33749   0.00000  Uiso   1.00
O520   O     0.84515   0.74768   0.27821   0.00000  Uiso   1.00
O521   O     0.81247   0.92803   0.26767   0.00000  Uiso   1.00
O522   O     0.74119   0.79917   0.23607   0.00000  Uiso   1.00
O523   O     0.93452   0.85845   0.21806   0.00000  Uiso   1.00
O524   O     0.73656   0.85627   0.27820   0.00000  Uiso   1.00
O525   O     0.92106   0.81944   0.26768   0.00000  Uiso   1.00
O526   O     0.80467   0.73570   0.23607   0.00000  Uiso   1.00
O527   O     0.87104   0.92193   0.21806   0.00000  Uiso   1.00
Zn528  Zn    0.85910   0.80756   0.28278   0.00000  Uiso   1.00
Zn529  Zn    0.80125   0.79044   0.22258   0.00000  Uiso   1.00
Zn530  Zn    0.87833   0.86331   0.21188   0.00000  Uiso   1.00
Zn531  Zn    0.79465   0.87202   0.28277   0.00000  Uiso   1.00
C532   C     0.05267   0.16007   0.75853   0.00000  Uiso   1.00
C533   C     0.18274   0.11859   0.96299   0.00000  Uiso   1.00
C534   C     0.21177   0.10598   0.98009   0.00000  Uiso   1.00
C535   C     0.28106   0.17352   0.74123   0.00000  Uiso   1.00
C536   C     0.21063   0.12061   0.51950   0.00000  Uiso   1.00
C537   C     0.17697   0.14443   0.54228   0.00000  Uiso   1.00
C538   C     0.24032   0.11011   0.53776   0.00000  Uiso   1.00
C539   C     0.23427   0.11953   0.57832   0.00000  Uiso   1.00
C540   C     0.16843   0.14812   0.58358   0.00000  Uiso   1.00
C541   C     0.32695   0.17594   0.73766   0.00000  Uiso   1.00
C542   C     0.00740   0.15741   0.76233   0.00000  Uiso   1.00
C543   C     0.09767   0.21491   0.92053   0.00000  Uiso   1.00
C544   C     0.18146   0.32224   0.73765   0.00000  Uiso   1.00
C545   C     0.15203   0.01207   0.76177   0.00000  Uiso   1.00
C546   C     0.15561   0.05619   0.75919   0.00000  Uiso   1.00
C547   C     0.17699   0.27770   0.74125   0.00000  Uiso   1.00
C548   C     0.18836   0.14521   0.64400   0.00000  Uiso   1.00
C549   C     0.14521   0.18753   0.85622   0.00000  Uiso   1.00
C550   C     0.13254   0.19313   0.89961   0.00000  Uiso   1.00
C551   C     0.19725   0.13702   0.60132   0.00000  Uiso   1.00
C552   C     0.08536   0.21952   0.96158   0.00000  Uiso   1.00
C553   C     0.15378   0.17448   0.92026   0.00000  Uiso   1.00
C554   C     0.13908   0.17461   0.96153   0.00000  Uiso   1.00
C555   C     0.10706   0.20088   0.98271   0.00000  Uiso   1.00
C556   C     0.15826   0.15199   0.98206   0.00000  Uiso   1.00
C557   C     0.15273   0.16300   0.52307   0.00000  Uiso   1.00
C558   C     0.12478   0.19359   0.54284   0.00000  Uiso   1.00
C559   C     0.09987   0.20965   0.52378   0.00000  Uiso   1.00
Cl560  Cl    0.06371   0.24479   0.55272   0.00000  Uiso   1.00
Cl561  Cl    0.22581   0.01096   0.70136   0.00000  Uiso   1.00
Cl562  Cl    0.27205   0.10655   0.60009   0.00000  Uiso   1.00
Cl563  Cl    0.24581   0.06829   0.95245   0.00000  Uiso   1.00
Cl564  Cl    0.17135   0.08625   0.92192   0.00000  Uiso   1.00
F565   F     0.27588   0.09177   0.51667   0.00000  Uiso   1.00
F566   F     0.02236   0.19727   0.70886   0.00000  Uiso   1.00
F567   F     0.31335   0.13608   0.79182   0.00000  Uiso   1.00
F568   F     0.05213   0.24218   0.97986   0.00000  Uiso   1.00
F569   F     0.12349   0.21128   0.57990   0.00000  Uiso   1.00
H570   H     0.12464   0.33191   0.78389   0.00000  Uiso   1.00
H571   H     0.13900   0.15857   0.60295   0.00000  Uiso   1.00
H572   H     0.08017   0.22906   0.90514   0.00000  Uiso   1.00
H573   H     0.18290   0.16108   0.90380   0.00000  Uiso   1.00
O574   O     0.16667   0.16667   0.75000   0.00000  Uiso   1.00
O575   O     0.15693   0.12393   0.66625   0.00000  Uiso   1.00
O576   O     0.12687   0.20646   0.83749   0.00000  Uiso   1.00
O577   O     0.21088   0.17493   0.65877   0.00000  Uiso   1.00
O578   O     0.17198   0.16135   0.83749   0.00000  Uiso   1.00
O579   O     0.17849   0.08101   0.77821   0.00000  Uiso   1.00
O580   O     0.14581   0.26136   0.76767   0.00000  Uiso   1.00
O581   O     0.07452   0.13251   0.73607   0.00000  Uiso   1.00
O582   O     0.26785   0.19179   0.71806   0.00000  Uiso   1.00
O583   O     0.06990   0.18960   0.77820   0.00000  Uiso   1.00
O584   O     0.25440   0.15277   0.76768   0.00000  Uiso   1.00
O585   O     0.13800   0.06903   0.73607   0.00000  Uiso   1.00
O586   O     0.20437   0.25527   0.71806   0.00000  Uiso   1.00
Zn587  Zn    0.19244   0.14090   0.78278   0.00000  Uiso   1.00
Zn588  Zn    0.13459   0.12378   0.72258   0.00000  Uiso   1.00
Zn589  Zn    0.21166   0.19664   0.71188   0.00000  Uiso   1.00
Zn590  Zn    0.12798   0.20535   0.78277   0.00000  Uiso   1.00
C591   C     0.38601   0.16007   0.75853   0.00000  Uiso   1.00
C592   C     0.51608   0.11859   0.96299   0.00000  Uiso   1.00
C593   C     0.54510   0.10598   0.98009   0.00000  Uiso   1.00
C594   C     0.61439   0.17352   0.74123   0.00000  Uiso   1.00
C595   C     0.54396   0.12061   0.51950   0.00000  Uiso   1.00
C596   C     0.51030   0.14443   0.54228   0.00000  Uiso   1.00
C597   C     0.57366   0.11011   0.53776   0.00000  Uiso   1.00
C598   C     0.56760   0.11953   0.57832   0.00000  Uiso   1.00
C599   C     0.50177   0.14812   0.58358   0.00000  Uiso   1.00
C600   C     0.66029   0.17594   0.73766   0.00000  Uiso   1.00
C601   C     0.34073   0.15741   0.76233   0.00000  Uiso   1.00
C602   C     0.43100   0.21491   0.92053   0.00000  Uiso   1.00
C603   C     0.51479   0.32224   0.73765   0.00000  Uiso   1.00
C604   C     0.48536   0.01207   0.76177   0.00000  Uiso   1.00
C605   C     0.48894   0.05619   0.75919   0.00000  Uiso   1.00
C606   C     0.51032   0.27770   0.74125   0.00000  Uiso   1.00
C607   C     0.52169   0.14521   0.64400   0.00000  Uiso   1.00
C608   C     0.47854   0.18753   0.85622   0.00000  Uiso   1.00
C609   C     0.46587   0.19313   0.89961   0.00000  Uiso   1.00
C610   C     0.53058   0.13702   0.60132   0.00000  Uiso   1.00
C611   C     0.41869   0.21952   0.96158   0.00000  Uiso   1.00
C612   C     0.48711   0.17448   0.92026   0.00000  Uiso   1.00
C613   C     0.47241   0.17461   0.96153   0.00000  Uiso   1.00
C614   C     0.44039   0.20088   0.98271   0.00000  Uiso   1.00
C615   C     0.49159   0.15199   0.98206   0.00000  Uiso   1.00
C616   C     0.48607   0.16300   0.52307   0.00000  Uiso   1.00
C617   C     0.45811   0.19359   0.54284   0.00000  Uiso   1.00
C618   C     0.43320   0.20965   0.52378   0.00000  Uiso   1.00
Cl619  Cl    0.39704   0.24479   0.55272   0.00000  Uiso   1.00
Cl620  Cl    0.55914   0.01096   0.70136   0.00000  Uiso   1.00
Cl621  Cl    0.60538   0.10655   0.60009   0.00000  Uiso   1.00
Cl622  Cl    0.57914   0.06829   0.95245   0.00000  Uiso   1.00
Cl623  Cl    0.50468   0.08625   0.92192   0.00000  Uiso   1.00
F624   F     0.60921   0.09177   0.51667   0.00000  Uiso   1.00
F625   F     0.35569   0.19727   0.70886   0.00000  Uiso   1.00
F626   F     0.64669   0.13608   0.79182   0.00000  Uiso   1.00
F627   F     0.38547   0.24218   0.97986   0.00000  Uiso   1.00
F628   F     0.45682   0.21128   0.57990   0.00000  Uiso   1.00
H629   H     0.45798   0.33191   0.78389   0.00000  Uiso   1.00
H630   H     0.47233   0.15857   0.60295   0.00000  Uiso   1.00
H631   H     0.41350   0.22906   0.90514   0.00000  Uiso   1.00
H632   H     0.51624   0.16108   0.90380   0.00000  Uiso   1.00
O633   O     0.50000   0.16667   0.75000   0.00000  Uiso   1.00
O634   O     0.49027   0.12393   0.66625   0.00000  Uiso   1.00
O635   O     0.46020   0.20646   0.83749   0.00000  Uiso   1.00
O636   O     0.54421   0.17493   0.65877   0.00000  Uiso   1.00
O637   O     0.50532   0.16135   0.83749   0.00000  Uiso   1.00
O638   O     0.51182   0.08101   0.77821   0.00000  Uiso   1.00
O639   O     0.47914   0.26136   0.76767   0.00000  Uiso   1.00
O640   O     0.40785   0.13251   0.73607   0.00000  Uiso   1.00
O641   O     0.60119   0.19179   0.71806   0.00000  Uiso   1.00
O642   O     0.40323   0.18960   0.77820   0.00000  Uiso   1.00
O643   O     0.58773   0.15277   0.76768   0.00000  Uiso   1.00
O644   O     0.47133   0.06903   0.73607   0.00000  Uiso   1.00
O645   O     0.53771   0.25527   0.71806   0.00000  Uiso   1.00
Zn646  Zn    0.52577   0.14090   0.78278   0.00000  Uiso   1.00
Zn647  Zn    0.46792   0.12378   0.72258   0.00000  Uiso   1.00
Zn648  Zn    0.54500   0.19664   0.71188   0.00000  Uiso   1.00
Zn649  Zn    0.46131   0.20535   0.78277   0.00000  Uiso   1.00
C650   C     0.71934   0.16007   0.75853   0.00000  Uiso   1.00
C651   C     0.84941   0.11859   0.96299   0.00000  Uiso   1.00
C652   C     0.87843   0.10598   0.98009   0.00000  Uiso   1.00
C653   C     0.94772   0.17352   0.74123   0.00000  Uiso   1.00
C654   C     0.87730   0.12061   0.51950   0.00000  Uiso   1.00
C655   C     0.84363   0.14443   0.54228   0.00000  Uiso   1.00
C656   C     0.90699   0.11011   0.53776   0.00000  Uiso   1.00
C657   C     0.90094   0.11953   0.57832   0.00000  Uiso   1.00
C658   C     0.83510   0.14812   0.58358   0.00000  Uiso   1.00
C659   C     0.99362   0.17594   0.73766   0.00000  Uiso   1.00
C660   C     0.67406   0.15741   0.76233   0.00000  Uiso   1.00
C661   C     0.76434   0.21491   0.92053   0.00000  Uiso   1.00
C662   C     0.84812   0.32224   0.73765   0.00000  Uiso   1.00
C663   C     0.81869   0.01207   0.76177   0.00000  Uiso   1.00
C664   C     0.82227   0.05619   0.75919   0.00000  Uiso   1.00
C665   C     0.84365   0.27770   0.74125   0.00000  Uiso   1.00
C666   C     0.85503   0.14521   0.64400   0.00000  Uiso   1.00
C667   C     0.81188   0.18753   0.85622   0.00000  Uiso   1.00
C668   C     0.79920   0.19313   0.89961   0.00000  Uiso   1.00
C669   C     0.86391   0.13702   0.60132   0.00000  Uiso   1.00
C670   C     0.75203   0.21952   0.96158   0.00000  Uiso   1.00
C671   C     0.82045   0.17448   0.92026   0.00000  Uiso   1.00
C672   C     0.80575   0.17461   0.96153   0.00000  Uiso   1.00
C673   C     0.77373   0.20088   0.98271   0.00000  Uiso   1.00
C674   C     0.82493   0.15199   0.98206   0.00000  Uiso   1.00
C675   C     0.81940   0.16300   0.52307   0.00000  Uiso   1.00
C676   C     0.79144   0.19359   0.54284   0.00000  Uiso   1.00
C677   C     0.76653   0.20965   0.52378   0.00000  Uiso   1.00
Cl678  Cl    0.73037   0.24479   0.55272   0.00000  Uiso   1.00
Cl679  Cl    0.89247   0.01096   0.70136   0.00000  Uiso   1.00
Cl680  Cl    0.93872   0.10655   0.60009   0.00000  Uiso   1.00
Cl681  Cl    0.91247   0.06829   0.95245   0.00000  Uiso   1.00
Cl682  Cl    0.83802   0.08625   0.92192   0.00000  Uiso   1.00
F683   F     0.94255   0.09177   0.51667   0.00000  Uiso   1.00
F684   F     0.68903   0.19727   0.70886   0.00000  Uiso   1.00
F685   F     0.98002   0.13608   0.79182   0.00000  Uiso   1.00
F686   F     0.71880   0.24218   0.97986   0.00000  Uiso   1.00
F687   F     0.79016   0.21128   0.57990   0.00000  Uiso   1.00
H688   H     0.79131   0.33191   0.78389   0.00000  Uiso   1.00
H689   H     0.80566   0.15857   0.60295   0.00000  Uiso   1.00
H690   H     0.74684   0.22906   0.90514   0.00000  Uiso   1.00
H691   H     0.84957   0.16108   0.90380   0.00000  Uiso   1.00
O692   O     0.83333   0.16667   0.75000   0.00000  Uiso   1.00
O693   O     0.82360   0.12393   0.66625   0.00000  Uiso   1.00
O694   O     0.79354   0.20646   0.83749   0.00000  Uiso   1.00
O695   O     0.87755   0.17493   0.65877   0.00000  Uiso   1.00
O696   O     0.83865   0.16135   0.83749   0.00000  Uiso   1.00
O697   O     0.84515   0.08101   0.77821   0.00000  Uiso   1.00
O698   O     0.81247   0.26136   0.76767   0.00000  Uiso   1.00
O699   O     0.74119   0.13251   0.73607   0.00000  Uiso   1.00
O700   O     0.93452   0.19179   0.71806   0.00000  Uiso   1.00
O701   O     0.73656   0.18960   0.77820   0.00000  Uiso   1.00
O702   O     0.92106   0.15277   0.76768   0.00000  Uiso   1.00
O703   O     0.80467   0.06903   0.73607   0.00000  Uiso   1.00
O704   O     0.87104   0.25527   0.71806   0.00000  Uiso   1.00
Zn705  Zn    0.85910   0.14090   0.78278   0.00000  Uiso   1.00
Zn706  Zn    0.80125   0.12378   0.72258   0.00000  Uiso   1.00
Zn707  Zn    0.87833   0.19664   0.71188   0.00000  Uiso   1.00
Zn708  Zn    0.79465   0.20535   0.78277   0.00000  Uiso   1.00
C709   C     0.05267   0.49340   0.75853   0.00000  Uiso   1.00
C710   C     0.18274   0.45193   0.96299   0.00000  Uiso   1.00
C711   C     0.21177   0.43932   0.98009   0.00000  Uiso   1.00
C712   C     0.28106   0.50685   0.74123   0.00000  Uiso   1.00
C713   C     0.21063   0.45394   0.51950   0.00000  Uiso   1.00
C714   C     0.17697   0.47776   0.54228   0.00000  Uiso   1.00
C715   C     0.24032   0.44344   0.53776   0.00000  Uiso   1.00
C716   C     0.23427   0.45286   0.57832   0.00000  Uiso   1.00
C717   C     0.16843   0.48146   0.58358   0.00000  Uiso   1.00
C718   C     0.32695   0.50927   0.73766   0.00000  Uiso   1.00
C719   C     0.00740   0.49074   0.76233   0.00000  Uiso   1.00
C720   C     0.09767   0.54824   0.92053   0.00000  Uiso   1.00
C721   C     0.18146   0.65557   0.73765   0.00000  Uiso   1.00
C722   C     0.15203   0.34541   0.76177   0.00000  Uiso   1.00
C723   C     0.15561   0.38952   0.75919   0.00000  Uiso   1.00
C724   C     0.17699   0.61104   0.74125   0.00000  Uiso   1.00
C725   C     0.18836   0.47855   0.64400   0.00000  Uiso   1.00
C726   C     0.14521   0.52086   0.85622   0.00000  Uiso   1.00
C727   C     0.13254   0.52646   0.89961   0.00000  Uiso   1.00
C728   C     0.19725   0.47035   0.60132   0.00000  Uiso   1.00
C729   C     0.08536   0.55285   0.96158   0.00000  Uiso   1.00
C730   C     0.15378   0.50782   0.92026   0.00000  Uiso   1.00
C731   C     0.13908   0.50795   0.96153   0.00000  Uiso   1.00
C732   C     0.10706   0.53422   0.98271   0.00000  Uiso   1.00
C733   C     0.15826   0.48532   0.98206   0.00000  Uiso   1.00
C734   C     0.15273   0.49633   0.52307   0.00000  Uiso   1.00
C735   C     0.12478   0.52693   0.54284   0.00000  Uiso   1.00
C736   C     0.09987   0.54298   0.52378   0.00000  Uiso   1.00
Cl737  Cl    0.06371   0.57812   0.55272   0.00000  Uiso   1.00
Cl738  Cl    0.22581   0.34430   0.70136   0.00000  Uiso   1.00
Cl739  Cl    0.27205   0.43988   0.60009   0.00000  Uiso   1.00
Cl740  Cl    0.24581   0.40162   0.95245   0.00000  Uiso   1.00
Cl741  Cl    0.17135   0.41958   0.92192   0.00000  Uiso   1.00
F742   F     0.27588   0.42510   0.51667   0.00000  Uiso   1.00
F743   F     0.02236   0.53060   0.70886   0.00000  Uiso   1.00
F744   F     0.31335   0.46941   0.79182   0.00000  Uiso   1.00
F745   F     0.05213   0.57552   0.97986   0.00000  Uiso   1.00
F746   F     0.12349   0.54461   0.57990   0.00000  Uiso   1.00
H747   H     0.12464   0.66524   0.78389   0.00000  Uiso   1.00
H748   H     0.13900   0.49190   0.60295   0.00000  Uiso   1.00
H749   H     0.08017   0.56239   0.90514   0.00000  Uiso   1.00
H750   H     0.18290   0.49442   0.90380   0.00000  Uiso   1.00
O751   O     0.16667   0.50000   0.75000   0.00000  Uiso   1.00
O752   O     0.15693   0.45726   0.66625   0.00000  Uiso   1.00
O753   O     0.12687   0.53979   0.83749   0.00000  Uiso   1.00
O754   O     0.21088   0.50826   0.65877   0.00000  Uiso   1.00
O755   O     0.17198   0.49468   0.83749   0.00000  Uiso   1.00
O756   O     0.17849   0.41434   0.77821   0.00000  Uiso   1.00
O757   O     0.14581   0.59469   0.76767   0.00000  Uiso   1.00
O758   O     0.07452   0.46584   0.73607   0.00000  Uiso   1.00
O759   O     0.26785   0.52512   0.71806   0.00000  Uiso   1.00
O760   O     0.06990   0.52293   0.77820   0.00000  Uiso   1.00
O761   O     0.25440   0.48610   0.76768   0.00000  Uiso   1.00
O762   O     0.13800   0.40236   0.73607   0.00000  Uiso   1.00
O763   O     0.20437   0.58860   0.71806   0.00000  Uiso   1.00
Zn764  Zn    0.19244   0.47423   0.78278   0.00000  Uiso   1.00
Zn765  Zn    0.13459   0.45711   0.72258   0.00000  Uiso   1.00
Zn766  Zn    0.21166   0.52997   0.71188   0.00000  Uiso   1.00
Zn767  Zn    0.12798   0.53868   0.78277   0.00000  Uiso   1.00
C768   C     0.38601   0.49340   0.75853   0.00000  Uiso   1.00
C769   C     0.51608   0.45193   0.96299   0.00000  Uiso   1.00
C770   C     0.54510   0.43932   0.98009   0.00000  Uiso   1.00
C771   C     0.61439   0.50685   0.74123   0.00000  Uiso   1.00
C772   C     0.54396   0.45394   0.51950   0.00000  Uiso   1.00
C773   C     0.51030   0.47776   0.54228   0.00000  Uiso   1.00
C774   C     0.57366   0.44344   0.53776   0.00000  Uiso   1.00
C775   C     0.56760   0.45286   0.57832   0.00000  Uiso   1.00
C776   C     0.50177   0.48146   0.58358   0.00000  Uiso   1.00
C777   C     0.66029   0.50927   0.73766   0.00000  Uiso   1.00
C778   C     0.34073   0.49074   0.76233   0.00000  Uiso   1.00
C779   C     0.43100   0.54824   0.92053   0.00000  Uiso   1.00
C780   C     0.51479   0.65557   0.73765   0.00000  Uiso   1.00
C781   C     0.48536   0.34541   0.76177   0.00000  Uiso   1.00
C782   C     0.48894   0.38952   0.75919   0.00000  Uiso   1.00
C783   C     0.51032   0.61104   0.74125   0.00000  Uiso   1.00
C784   C     0.52169   0.47855   0.64400   0.00000  Uiso   1.00
C785   C     0.47854   0.52086   0.85622   0.00000  Uiso   1.00
C786   C     0.46587   0.52646   0.89961   0.00000  Uiso   1.00
C787   C     0.53058   0.47035   0.60132   0.00000  Uiso   1.00
C788   C     0.41869   0.55285   0.96158   0.00000  Uiso   1.00
C789   C     0.48711   0.50782   0.92026   0.00000  Uiso   1.00
C790   C     0.47241   0.50795   0.96153   0.00000  Uiso   1.00
C791   C     0.44039   0.53422   0.98271   0.00000  Uiso   1.00
C792   C     0.49159   0.48532   0.98206   0.00000  Uiso   1.00
C793   C     0.48607   0.49633   0.52307   0.00000  Uiso   1.00
C794   C     0.45811   0.52693   0.54284   0.00000  Uiso   1.00
C795   C     0.43320   0.54298   0.52378   0.00000  Uiso   1.00
Cl796  Cl    0.39704   0.57812   0.55272   0.00000  Uiso   1.00
Cl797  Cl    0.55914   0.34430   0.70136   0.00000  Uiso   1.00
Cl798  Cl    0.60538   0.43988   0.60009   0.00000  Uiso   1.00
Cl799  Cl    0.57914   0.40162   0.95245   0.00000  Uiso   1.00
Cl800  Cl    0.50468   0.41958   0.92192   0.00000  Uiso   1.00
F801   F     0.60921   0.42510   0.51667   0.00000  Uiso   1.00
F802   F     0.35569   0.53060   0.70886   0.00000  Uiso   1.00
F803   F     0.64669   0.46941   0.79182   0.00000  Uiso   1.00
F804   F     0.38547   0.57552   0.97986   0.00000  Uiso   1.00
F805   F     0.45682   0.54461   0.57990   0.00000  Uiso   1.00
H806   H     0.45798   0.66524   0.78389   0.00000  Uiso   1.00
H807   H     0.47233   0.49190   0.60295   0.00000  Uiso   1.00
H808   H     0.41350   0.56239   0.90514   0.00000  Uiso   1.00
H809   H     0.51624   0.49442   0.90380   0.00000  Uiso   1.00
O810   O     0.50000   0.50000   0.75000   0.00000  Uiso   1.00
O811   O     0.49027   0.45726   0.66625   0.00000  Uiso   1.00
O812   O     0.46020   0.53979   0.83749   0.00000  Uiso   1.00
O813   O     0.54421   0.50826   0.65877   0.00000  Uiso   1.00
O814   O     0.50532   0.49468   0.83749   0.00000  Uiso   1.00
O815   O     0.51182   0.41434   0.77821   0.00000  Uiso   1.00
O816   O     0.47914   0.59469   0.76767   0.00000  Uiso   1.00
O817   O     0.40785   0.46584   0.73607   0.00000  Uiso   1.00
O818   O     0.60119   0.52512   0.71806   0.00000  Uiso   1.00
O819   O     0.40323   0.52293   0.77820   0.00000  Uiso   1.00
O820   O     0.58773   0.48610   0.76768   0.00000  Uiso   1.00
O821   O     0.47133   0.40236   0.73607   0.00000  Uiso   1.00
O822   O     0.53771   0.58860   0.71806   0.00000  Uiso   1.00
Zn823  Zn    0.52577   0.47423   0.78278   0.00000  Uiso   1.00
Zn824  Zn    0.46792   0.45711   0.72258   0.00000  Uiso   1.00
Zn825  Zn    0.54500   0.52997   0.71188   0.00000  Uiso   1.00
Zn826  Zn    0.46131   0.53868   0.78277   0.00000  Uiso   1.00
C827   C     0.71934   0.49340   0.75853   0.00000  Uiso   1.00
C828   C     0.84941   0.45193   0.96299   0.00000  Uiso   1.00
C829   C     0.87843   0.43932   0.98009   0.00000  Uiso   1.00
C830   C     0.94772   0.50685   0.74123   0.00000  Uiso   1.00
C831   C     0.87730   0.45394   0.51950   0.00000  Uiso   1.00
C832   C     0.84363   0.47776   0.54228   0.00000  Uiso   1.00
C833   C     0.90699   0.44344   0.53776   0.00000  Uiso   1.00
C834   C     0.90094   0.45286   0.57832   0.00000  Uiso   1.00
C835   C     0.83510   0.48146   0.58358   0.00000  Uiso   1.00
C836   C     0.99362   0.50927   0.73766   0.00000  Uiso   1.00
C837   C     0.67406   0.49074   0.76233   0.00000  Uiso   1.00
C838   C     0.76434   0.54824   0.92053   0.00000  Uiso   1.00
C839   C     0.84812   0.65557   0.73765   0.00000  Uiso   1.00
C840   C     0.81869   0.34541   0.76177   0.00000  Uiso   1.00
C841   C     0.82227   0.38952   0.75919   0.00000  Uiso   1.00
C842   C     0.84365   0.61104   0.74125   0.00000  Uiso   1.00
C843   C     0.85503   0.47855   0.64400   0.00000  Uiso   1.00
C844   C     0.81188   0.52086   0.85622   0.00000  Uiso   1.00
C845   C     0.79920   0.52646   0.89961   0.00000  Uiso   1.00
C846   C     0.86391   0.47035   0.60132   0.00000  Uiso   1.00
C847   C     0.75203   0.55285   0.96158   0.00000  Uiso   1.00
C848   C     0.82045   0.50782   0.92026   0.00000  Uiso   1.00
C849   C     0.80575   0.50795   0.96153   0.00000  Uiso   1.00
C850   C     0.77373   0.53422   0.98271   0.00000  Uiso   1.00
C851   C     0.82493   0.48532   0.98206   0.00000  Uiso   1.00
C852   C     0.81940   0.49633   0.52307   0.00000  Uiso   1.00
C853   C     0.79144   0.52693   0.54284   0.00000  Uiso   1.00
C854   C     0.76653   0.54298   0.52378   0.00000  Uiso   1.00
Cl855  Cl    0.73037   0.57812   0.55272   0.00000  Uiso   1.00
Cl856  Cl    0.89247   0.34430   0.70136   0.00000  Uiso   1.00
Cl857  Cl    0.93872   0.43988   0.60009   0.00000  Uiso   1.00
Cl858  Cl    0.91247   0.40162   0.95245   0.00000  Uiso   1.00
Cl859  Cl    0.83802   0.41958   0.92192   0.00000  Uiso   1.00
F860   F     0.94255   0.42510   0.51667   0.00000  Uiso   1.00
F861   F     0.68903   0.53060   0.70886   0.00000  Uiso   1.00
F862   F     0.98002   0.46941   0.79182   0.00000  Uiso   1.00
F863   F     0.71880   0.57552   0.97986   0.00000  Uiso   1.00
F864   F     0.79016   0.54461   0.57990   0.00000  Uiso   1.00
H865   H     0.79131   0.66524   0.78389   0.00000  Uiso   1.00
H866   H     0.80566   0.49190   0.60295   0.00000  Uiso   1.00
H867   H     0.74684   0.56239   0.90514   0.00000  Uiso   1.00
H868   H     0.84957   0.49442   0.90380   0.00000  Uiso   1.00
O869   O     0.83333   0.50000   0.75000   0.00000  Uiso   1.00
O870   O     0.82360   0.45726   0.66625   0.00000  Uiso   1.00
O871   O     0.79354   0.53979   0.83749   0.00000  Uiso   1.00
O872   O     0.87755   0.50826   0.65877   0.00000  Uiso   1.00
O873   O     0.83865   0.49468   0.83749   0.00000  Uiso   1.00
O874   O     0.84515   0.41434   0.77821   0.00000  Uiso   1.00
O875   O     0.81247   0.59469   0.76767   0.00000  Uiso   1.00
O876   O     0.74119   0.46584   0.73607   0.00000  Uiso   1.00
O877   O     0.93452   0.52512   0.71806   0.00000  Uiso   1.00
O878   O     0.73656   0.52293   0.77820   0.00000  Uiso   1.00
O879   O     0.92106   0.48610   0.76768   0.00000  Uiso   1.00
O880   O     0.80467   0.40236   0.73607   0.00000  Uiso   1.00
O881   O     0.87104   0.58860   0.71806   0.00000  Uiso   1.00
Zn882  Zn    0.85910   0.47423   0.78278   0.00000  Uiso   1.00
Zn883  Zn    0.80125   0.45711   0.72258   0.00000  Uiso   1.00
Zn884  Zn    0.87833   0.52997   0.71188   0.00000  Uiso   1.00
Zn885  Zn    0.79465   0.53868   0.78277   0.00000  Uiso   1.00
C886   C     0.05267   0.82673   0.75853   0.00000  Uiso   1.00
C887   C     0.18274   0.78526   0.96299   0.00000  Uiso   1.00
C888   C     0.21177   0.77265   0.98009   0.00000  Uiso   1.00
C889   C     0.28106   0.84018   0.74123   0.00000  Uiso   1.00
C890   C     0.21063   0.78727   0.51950   0.00000  Uiso   1.00
C891   C     0.17697   0.81109   0.54228   0.00000  Uiso   1.00
C892   C     0.24032   0.77677   0.53776   0.00000  Uiso   1.00
C893   C     0.23427   0.78619   0.57832   0.00000  Uiso   1.00
C894   C     0.16843   0.81479   0.58358   0.00000  Uiso   1.00
C895   C     0.32695   0.84261   0.73766   0.00000  Uiso   1.00
C896   C     0.00740   0.82408   0.76233   0.00000  Uiso   1.00
C897   C     0.09767   0.88157   0.92053   0.00000  Uiso   1.00
C898   C     0.18146   0.98891   0.73765   0.00000  Uiso   1.00
C899   C     0.15203   0.67874   0.76177   0.00000  Uiso   1.00
C900   C     0.15561   0.72285   0.75919   0.00000  Uiso   1.00
C901   C     0.17699   0.94437   0.74125   0.00000  Uiso   1.00
C902   C     0.18836   0.81188   0.64400   0.00000  Uiso   1.00
C903   C     0.14521   0.85419   0.85622   0.00000  Uiso   1.00
C904   C     0.13254   0.85980   0.89961   0.00000  Uiso   1.00
C905   C     0.19725   0.80369   0.60132   0.00000  Uiso   1.00
C906   C     0.08536   0.88619   0.96158   0.00000  Uiso   1.00
C907   C     0.15378   0.84115   0.92026   0.00000  Uiso   1.00
C908   C     0.13908   0.84128   0.96153   0.00000  Uiso   1.00
C909   C     0.10706   0.86755   0.98271   0.00000  Uiso   1.00
C910   C     0.15826   0.81866   0.98206   0.00000  Uiso   1.00
C911   C     0.15273   0.82967   0.52307   0.00000  Uiso   1.00
C912   C     0.12478   0.86026   0.54284   0.00000  Uiso   1.00
C913   C     0.09987   0.87631   0.52378   0.00000  Uiso   1.00
Cl914  Cl    0.06371   0.91145   0.55272   0.00000  Uiso   1.00
Cl915  Cl    0.22581   0.67763   0.70136   0.00000  Uiso   1.00
Cl916  Cl    0.27205   0.77321   0.60009   0.00000  Uiso   1.00
Cl917  Cl    0.24581   0.73495   0.95245   0.00000  Uiso   1.00
Cl918  Cl    0.17135   0.75291   0.92192   0.00000  Uiso   1.00
F919   F     0.27588   0.75843   0.51667   0.00000  Uiso   1.00
F920   F     0.02236   0.86393   0.70886   0.00000  Uiso   1.00
F921   F     0.31335   0.80275   0.79182   0.00000  Uiso   1.00
F922   F     0.05213   0.90885   0.97986   0.00000  Uiso   1.00
F923   F     0.12349   0.87795   0.57990   0.00000  Uiso   1.00
H924   H     0.12464   0.99857   0.78389   0.00000  Uiso   1.00
H925   H     0.13900   0.82524   0.60295   0.00000  Uiso   1.00
H926   H     0.08017   0.89572   0.90514   0.00000  Uiso   1.00
H927   H     0.18290   0.82775   0.90380   0.00000  Uiso   1.00
O928   O     0.16667   0.83333   0.75000   0.00000  Uiso   1.00
O929   O     0.15693   0.79060   0.66625   0.00000  Uiso   1.00
O930   O     0.12687   0.87313   0.83749   0.00000  Uiso   1.00
O931   O     0.21088   0.84159   0.65877   0.00000  Uiso   1.00
O932   O     0.17198   0.82802   0.83749   0.00000  Uiso   1.00
O933   O     0.17849   0.74768   0.77821   0.00000  Uiso   1.00
O934   O     0.14581   0.92803   0.76767   0.00000  Uiso   1.00
O935   O     0.07452   0.79917   0.73607   0.00000  Uiso   1.00
O936   O     0.26785   0.85845   0.71806   0.00000  Uiso   1.00
O937   O     0.06990   0.85627   0.77820   0.00000  Uiso   1.00
O938   O     0.25440   0.81944   0.76768   0.00000  Uiso   1.00
O939   O     0.13800   0.73570   0.73607   0.00000  Uiso   1.00
O940   O     0.20437   0.92193   0.71806   0.00000  Uiso   1.00
Zn941  Zn    0.19244   0.80756   0.78278   0.00000  Uiso   1.00
Zn942  Zn    0.13459   0.79044   0.72258   0.00000  Uiso   1.00
Zn943  Zn    0.21166   0.86331   0.71188   0.00000  Uiso   1.00
Zn944  Zn    0.12798   0.87202   0.78277   0.00000  Uiso   1.00
C945   C     0.38601   0.82673   0.75853   0.00000  Uiso   1.00
C946   C     0.51608   0.78526   0.96299   0.00000  Uiso   1.00
C947   C     0.54510   0.77265   0.98009   0.00000  Uiso   1.00
C948   C     0.61439   0.84018   0.74123   0.00000  Uiso   1.00
C949   C     0.54396   0.78727   0.51950   0.00000  Uiso   1.00
C950   C     0.51030   0.81109   0.54228   0.00000  Uiso   1.00
C951   C     0.57366   0.77677   0.53776   0.00000  Uiso   1.00
C952   C     0.56760   0.78619   0.57832   0.00000  Uiso   1.00
C953   C     0.50177   0.81479   0.58358   0.00000  Uiso   1.00
C954   C     0.66029   0.84261   0.73766   0.00000  Uiso   1.00
C955   C     0.34073   0.82408   0.76233   0.00000  Uiso   1.00
C956   C     0.43100   0.88157   0.92053   0.00000  Uiso   1.00
C957   C     0.51479   0.98891   0.73765   0.00000  Uiso   1.00
C958   C     0.48536   0.67874   0.76177   0.00000  Uiso   1.00
C959   C     0.48894   0.72285   0.75919   0.00000  Uiso   1.00
C960   C     0.51032   0.94437   0.74125   0.00000  Uiso   1.00
C961   C     0.52169   0.81188   0.64400   0.00000  Uiso   1.00
C962   C     0.47854   0.85419   0.85622   0.00000  Uiso   1.00
C963   C     0.46587   0.85980   0.89961   0.00000  Uiso   1.00
C964   C     0.53058   0.80369   0.60132   0.00000  Uiso   1.00
C965   C     0.41869   0.88619   0.96158   0.00000  Uiso   1.00
C966   C     0.48711   0.84115   0.92026   0.00000  Uiso   1.00
C967   C     0.47241   0.84128   0.96153   0.00000  Uiso   1.00
C968   C     0.44039   0.86755   0.98271   0.00000  Uiso   1.00
C969   C     0.49159   0.81866   0.98206   0.00000  Uiso   1.00
C970   C     0.48607   0.82967   0.52307   0.00000  Uiso   1.00
C971   C     0.45811   0.86026   0.54284   0.00000  Uiso   1.00
C972   C     0.43320   0.87631   0.52378   0.00000  Uiso   1.00
Cl973  Cl    0.39704   0.91145   0.55272   0.00000  Uiso   1.00
Cl974  Cl    0.55914   0.67763   0.70136   0.00000  Uiso   1.00
Cl975  Cl    0.60538   0.77321   0.60009   0.00000  Uiso   1.00
Cl976  Cl    0.57914   0.73495   0.95245   0.00000  Uiso   1.00
Cl977  Cl    0.50468   0.75291   0.92192   0.00000  Uiso   1.00
F978   F     0.60921   0.75843   0.51667   0.00000  Uiso   1.00
F979   F     0.35569   0.86393   0.70886   0.00000  Uiso   1.00
F980   F     0.64669   0.80275   0.79182   0.00000  Uiso   1.00
F981   F     0.38547   0.90885   0.97986   0.00000  Uiso   1.00
F982   F     0.45682   0.87795   0.57990   0.00000  Uiso   1.00
H983   H     0.45798   0.99857   0.78389   0.00000  Uiso   1.00
H984   H     0.47233   0.82524   0.60295   0.00000  Uiso   1.00
H985   H     0.41350   0.89572   0.90514   0.00000  Uiso   1.00
H986   H     0.51624   0.82775   0.90380   0.00000  Uiso   1.00
O987   O     0.50000   0.83333   0.75000   0.00000  Uiso   1.00
O988   O     0.49027   0.79060   0.66625   0.00000  Uiso   1.00
O989   O     0.46020   0.87313   0.83749   0.00000  Uiso   1.00
O990   O     0.54421   0.84159   0.65877   0.00000  Uiso   1.00
O991   O     0.50532   0.82802   0.83749   0.00000  Uiso   1.00
O992   O     0.51182   0.74768   0.77821   0.00000  Uiso   1.00
O993   O     0.47914   0.92803   0.76767   0.00000  Uiso   1.00
O994   O     0.40785   0.79917   0.73607   0.00000  Uiso   1.00
O995   O     0.60119   0.85845   0.71806   0.00000  Uiso   1.00
O996   O     0.40323   0.85627   0.77820   0.00000  Uiso   1.00
O997   O     0.58773   0.81944   0.76768   0.00000  Uiso   1.00
O998   O     0.47133   0.73570   0.73607   0.00000  Uiso   1.00
O999   O     0.53771   0.92193   0.71806   0.00000  Uiso   1.00
Zn1000 Zn    0.52577   0.80756   0.78278   0.00000  Uiso   1.00
Zn1001 Zn    0.46792   0.79044   0.72258   0.00000  Uiso   1.00
Zn1002 Zn    0.54500   0.86331   0.71188   0.00000  Uiso   1.00
Zn1003 Zn    0.46131   0.87202   0.78277   0.00000  Uiso   1.00
C1004  C     0.71934   0.82673   0.75853   0.00000  Uiso   1.00
C1005  C     0.84941   0.78526   0.96299   0.00000  Uiso   1.00
C1006  C     0.87843   0.77265   0.98009   0.00000  Uiso   1.00
C1007  C     0.94772   0.84018   0.74123   0.00000  Uiso   1.00
C1008  C     0.87730   0.78727   0.51950   0.00000  Uiso   1.00
C1009  C     0.84363   0.81109   0.54228   0.00000  Uiso   1.00
C1010  C     0.90699   0.77677   0.53776   0.00000  Uiso   1.00
C1011  C     0.90094   0.78619   0.57832   0.00000  Uiso   1.00
C1012  C     0.83510   0.81479   0.58358   0.00000  Uiso   1.00
C1013  C     0.99362   0.84261   0.73766   0.00000  Uiso   1.00
C1014  C     0.67406   0.82408   0.76233   0.00000  Uiso   1.00
C1015  C     0.76434   0.88157   0.92053   0.00000  Uiso   1.00
C1016  C     0.84812   0.98891   0.73765   0.00000  Uiso   1.00
C1017  C     0.81869   0.67874   0.76177   0.00000  Uiso   1.00
C1018  C     0.82227   0.72285   0.75919   0.00000  Uiso   1.00
C1019  C     0.84365   0.94437   0.74125   0.00000  Uiso   1.00
C1020  C     0.85503   0.81188   0.64400   0.00000  Uiso   1.00
C1021  C     0.81188   0.85419   0.85622   0.00000  Uiso   1.00
C1022  C     0.79920   0.85980   0.89961   0.00000  Uiso   1.00
C1023  C     0.86391   0.80369   0.60132   0.00000  Uiso   1.00
C1024  C     0.75203   0.88619   0.96158   0.00000  Uiso   1.00
C1025  C     0.82045   0.84115   0.92026   0.00000  Uiso   1.00
C1026  C     0.80575   0.84128   0.96153   0.00000  Uiso   1.00
C1027  C     0.77373   0.86755   0.98271   0.00000  Uiso   1.00
C1028  C     0.82493   0.81866   0.98206   0.00000  Uiso   1.00
C1029  C     0.81940   0.82967   0.52307   0.00000  Uiso   1.00
C1030  C     0.79144   0.86026   0.54284   0.00000  Uiso   1.00
C1031  C     0.76653   0.87631   0.52378   0.00000  Uiso   1.00
Cl1032 Cl    0.73037   0.91145   0.55272   0.00000  Uiso   1.00
Cl1033 Cl    0.89247   0.67763   0.70136   0.00000  Uiso   1.00
Cl1034 Cl    0.93872   0.77321   0.60009   0.00000  Uiso   1.00
Cl1035 Cl    0.91247   0.73495   0.95245   0.00000  Uiso   1.00
Cl1036 Cl    0.83802   0.75291   0.92192   0.00000  Uiso   1.00
F1037  F     0.94255   0.75843   0.51667   0.00000  Uiso   1.00
F1038  F     0.68903   0.86393   0.70886   0.00000  Uiso   1.00
F1039  F     0.98002   0.80275   0.79182   0.00000  Uiso   1.00
F1040  F     0.71880   0.90885   0.97986   0.00000  Uiso   1.00
F1041  F     0.79016   0.87795   0.57990   0.00000  Uiso   1.00
H1042  H     0.79131   0.99857   0.78389   0.00000  Uiso   1.00
H1043  H     0.80566   0.82524   0.60295   0.00000  Uiso   1.00
H1044  H     0.74684   0.89572   0.90514   0.00000  Uiso   1.00
H1045  H     0.84957   0.82775   0.90380   0.00000  Uiso   1.00
O1046  O     0.83333   0.83333   0.75000   0.00000  Uiso   1.00
O1047  O     0.82360   0.79060   0.66625   0.00000  Uiso   1.00
O1048  O     0.79354   0.87313   0.83749   0.00000  Uiso   1.00
O1049  O     0.87755   0.84159   0.65877   0.00000  Uiso   1.00
O1050  O     0.83865   0.82802   0.83749   0.00000  Uiso   1.00
O1051  O     0.84515   0.74768   0.77821   0.00000  Uiso   1.00
O1052  O     0.81247   0.92803   0.76767   0.00000  Uiso   1.00
O1053  O     0.74119   0.79917   0.73607   0.00000  Uiso   1.00
O1054  O     0.93452   0.85845   0.71806   0.00000  Uiso   1.00
O1055  O     0.73656   0.85627   0.77820   0.00000  Uiso   1.00
O1056  O     0.92106   0.81944   0.76768   0.00000  Uiso   1.00
O1057  O     0.80467   0.73570   0.73607   0.00000  Uiso   1.00
O1058  O     0.87104   0.92193   0.71806   0.00000  Uiso   1.00
Zn1059 Zn    0.85910   0.80756   0.78278   0.00000  Uiso   1.00
Zn1060 Zn    0.80125   0.79044   0.72258   0.00000  Uiso   1.00
Zn1061 Zn    0.87833   0.86331   0.71188   0.00000  Uiso   1.00
Zn1062 Zn    0.79465   0.87202   0.78277   0.00000  Uiso   1.00
loop_
_geom_bond_atom_site_label_1
_geom_bond_atom_site_label_2
_geom_bond_distance
_geom_bond_site_symmetry_2
_ccdc_geom_bond_type
C1     O50     1.270   .     A
C1     O52     1.269   .     A
C1     C11     1.435   .     S
C2     C3      1.401   .     A
C2     C25     1.421   .     A
C2     Cl33    1.777   .     S
C3     Cl32    1.773   .     S
C3     C536    1.411   .     S
C4     O53     1.274   .     A
C4     C10     1.457   .     S
C4     O51     1.282   .     A
C5     C6      1.424   .     A
C5     C7      1.418   .     A
C5     C534    1.411   1_554 S
C6     C9      1.407   .     A
C6     C26     1.427   .     A
C7     C8      1.397   .     A
C7     F34     1.357   .     S
C8     C20     1.398   .     A
C8     Cl31    1.764   .     S
C9     C20     1.389   .     A
C9     H40     1.077   .     S
C10    C70     1.342   .     S
C10    F94     1.362   .     S
C11    C128    1.342   1_455 S
C11    F154    1.361   1_455 S
C12    C19     1.398   .     A
C12    H41     1.083   .     S
C12    C21     1.392   .     A
C13    C16     1.454   .     S
C13    C191    1.336   .     S
C13    Cl207   1.771   .     S
C14    C15     1.436   .     S
C14    C367    1.336   1_545 S
C14    H393    1.086   1_545 S
C15    O54     1.277   .     A
C15    O48     1.277   .     A
C16    O55     1.269   .     A
C16    O49     1.274   .     A
C17    O44     1.275   .     A
C17    O46     1.274   .     A
C17    C20     1.457   .     S
C18    O47     1.288   .     A
C18    O45     1.282   .     A
C18    C19     1.472   .     S
C19    C22     1.394   .     A
C21    C24     1.417   .     A
C21    F37     1.356   .     S
C22    H42     1.080   .     S
C22    C23     1.407   .     A
C23    C24     1.422   .     A
C23    C25     1.424   .     A
C24    C559    1.408   .     S
C25    C557    1.420   .     S
C26    C27     1.422   .     A
C26    C556    1.420   1_554 S
C27    F38     1.356   .     S
C27    C28     1.395   .     A
C28    Cl29    1.769   .     S
C28    C555    1.408   1_554 S
Cl30   C367    1.771   1_545 S
F35    C128    1.362   1_455 S
F36    C70     1.361   .     S
H39    C191    1.086   .     S
O43    Zn56    1.959   .     S
O43    Zn59    1.936   .     S
O43    Zn57    1.943   .     S
O43    Zn58    1.931   .     S
O44    Zn57    1.926   .     S
O45    Zn59    1.936   .     S
O46    Zn58    1.932   .     S
O47    Zn56    1.924   .     S
O48    Zn56    1.928   .     S
O49    Zn59    1.929   .     S
O50    Zn57    1.933   .     S
O51    Zn58    1.942   .     S
O52    Zn59    1.937   .     S
O53    Zn56    1.928   .     S
O54    Zn57    1.936   .     S
O55    Zn58    1.932   .     S
C60    O109    1.270   .     A
C60    O111    1.269   .     A
C60    C70     1.435   .     S
C61    C62     1.401   .     A
C61    C84     1.421   .     A
C61    Cl92    1.777   .     S
C62    Cl91    1.773   .     S
C62    C595    1.411   .     S
C63    O112    1.274   .     A
C63    C69     1.457   .     S
C63    O110    1.282   .     A
C64    C65     1.424   .     A
C64    C66     1.418   .     A
C64    C593    1.411   1_554 S
C65    C68     1.407   .     A
C65    C85     1.427   .     A
C66    C67     1.397   .     A
C66    F93     1.357   .     S
C67    C79     1.398   .     A
C67    Cl90    1.764   .     S
C68    C79     1.389   .     A
C68    H99     1.077   .     S
C69    C129    1.342   .     S
C69    F153    1.362   .     S
C71    C78     1.398   .     A
C71    H100    1.083   .     S
C71    C80     1.392   .     A
C72    C75     1.454   .     S
C72    C250    1.336   .     S
C72    Cl266   1.771   .     S
C73    C74     1.436   .     S
C73    C426    1.336   1_545 S
C73    H452    1.086   1_545 S
C74    O113    1.277   .     A
C74    O107    1.277   .     A
C75    O114    1.269   .     A
C75    O108    1.274   .     A
C76    O103    1.275   .     A
C76    O105    1.274   .     A
C76    C79     1.457   .     S
C77    O106    1.288   .     A
C77    O104    1.282   .     A
C77    C78     1.472   .     S
C78    C81     1.394   .     A
C80    C83     1.417   .     A
C80    F96     1.356   .     S
C81    H101    1.080   .     S
C81    C82     1.407   .     A
C82    C83     1.422   .     A
C82    C84     1.424   .     A
C83    C618    1.408   .     S
C84    C616    1.420   .     S
C85    C86     1.422   .     A
C85    C615    1.420   1_554 S
C86    F97     1.356   .     S
C86    C87     1.395   .     A
C87    Cl88    1.769   .     S
C87    C614    1.408   1_554 S
Cl89   C426    1.771   1_545 S
F95    C129    1.361   .     S
H98    C250    1.086   .     S
O102   Zn115   1.959   .     S
O102   Zn118   1.936   .     S
O102   Zn116   1.943   .     S
O102   Zn117   1.931   .     S
O103   Zn116   1.926   .     S
O104   Zn118   1.936   .     S
O105   Zn117   1.932   .     S
O106   Zn115   1.924   .     S
O107   Zn115   1.928   .     S
O108   Zn118   1.929   .     S
O109   Zn116   1.933   .     S
O110   Zn117   1.942   .     S
O111   Zn118   1.937   .     S
O112   Zn115   1.928   .     S
O113   Zn116   1.936   .     S
O114   Zn117   1.932   .     S
C119   O168    1.270   .     A
C119   O170    1.269   .     A
C119   C129    1.435   .     S
C120   C121    1.401   .     A
C120   C143    1.421   .     A
C120   Cl151   1.777   .     S
C121   Cl150   1.773   .     S
C121   C654    1.411   .     S
C122   O171    1.274   .     A
C122   C128    1.457   .     S
C122   O169    1.282   .     A
C123   C124    1.424   .     A
C123   C125    1.418   .     A
C123   C652    1.411   1_554 S
C124   C127    1.407   .     A
C124   C144    1.427   .     A
C125   C126    1.397   .     A
C125   F152    1.357   .     S
C126   C138    1.398   .     A
C126   Cl149   1.764   .     S
C127   C138    1.389   .     A
C127   H158    1.077   .     S
C128   C11     1.342   1_655 S
C128   F35     1.362   1_655 S
C130   C137    1.398   .     A
C130   H159    1.083   .     S
C130   C139    1.392   .     A
C131   C134    1.454   .     S
C131   C309    1.336   .     S
C131   Cl325   1.771   .     S
C132   C133    1.436   .     S
C132   C485    1.336   1_545 S
C132   H511    1.086   1_545 S
C133   O172    1.277   .     A
C133   O166    1.277   .     A
C134   O173    1.269   .     A
C134   O167    1.274   .     A
C135   O162    1.275   .     A
C135   O164    1.274   .     A
C135   C138    1.457   .     S
C136   O165    1.288   .     A
C136   O163    1.282   .     A
C136   C137    1.472   .     S
C137   C140    1.394   .     A
C139   C142    1.417   .     A
C139   F155    1.356   .     S
C140   H160    1.080   .     S
C140   C141    1.407   .     A
C141   C142    1.422   .     A
C141   C143    1.424   .     A
C142   C677    1.408   .     S
C143   C675    1.420   .     S
C144   C145    1.422   .     A
C144   C674    1.420   1_554 S
C145   F156    1.356   .     S
C145   C146    1.395   .     A
C146   Cl147   1.769   .     S
C146   C673    1.408   1_554 S
Cl148  C485    1.771   1_545 S
F154   C11     1.361   1_655 S
H157   C309    1.086   .     S
O161   Zn174   1.959   .     S
O161   Zn177   1.936   .     S
O161   Zn175   1.943   .     S
O161   Zn176   1.931   .     S
O162   Zn175   1.926   .     S
O163   Zn177   1.936   .     S
O164   Zn176   1.932   .     S
O165   Zn174   1.924   .     S
O166   Zn174   1.928   .     S
O167   Zn177   1.929   .     S
O168   Zn175   1.933   .     S
O169   Zn176   1.942   .     S
O170   Zn177   1.937   .     S
O171   Zn174   1.928   .     S
O172   Zn175   1.936   .     S
O173   Zn176   1.932   .     S
C178   O227    1.270   .     A
C178   O229    1.269   .     A
C178   C188    1.435   .     S
C179   C180    1.401   .     A
C179   C202    1.421   .     A
C179   Cl210   1.777   .     S
C180   Cl209   1.773   .     S
C180   C713    1.411   .     S
C181   O230    1.274   .     A
C181   C187    1.457   .     S
C181   O228    1.282   .     A
C182   C183    1.424   .     A
C182   C184    1.418   .     A
C182   C711    1.411   1_554 S
C183   C186    1.407   .     A
C183   C203    1.427   .     A
C184   C185    1.397   .     A
C184   F211    1.357   .     S
C185   C197    1.398   .     A
C185   Cl208   1.764   .     S
C186   C197    1.389   .     A
C186   H217    1.077   .     S
C187   C247    1.342   .     S
C187   F271    1.362   .     S
C188   C305    1.342   1_455 S
C188   F331    1.361   1_455 S
C189   C196    1.398   .     A
C189   H218    1.083   .     S
C189   C198    1.392   .     A
C190   C193    1.454   .     S
C190   C368    1.336   .     S
C190   Cl384   1.771   .     S
C191   C192    1.436   .     S
C192   O231    1.277   .     A
C192   O225    1.277   .     A
C193   O232    1.269   .     A
C193   O226    1.274   .     A
C194   O221    1.275   .     A
C194   O223    1.274   .     A
C194   C197    1.457   .     S
C195   O224    1.288   .     A
C195   O222    1.282   .     A
C195   C196    1.472   .     S
C196   C199    1.394   .     A
C198   C201    1.417   .     A
C198   F214    1.356   .     S
C199   H219    1.080   .     S
C199   C200    1.407   .     A
C200   C201    1.422   .     A
C200   C202    1.424   .     A
C201   C736    1.408   .     S
C202   C734    1.420   .     S
C203   C204    1.422   .     A
C203   C733    1.420   1_554 S
C204   F215    1.356   .     S
C204   C205    1.395   .     A
C205   Cl206   1.769   .     S
C205   C732    1.408   1_554 S
F212   C305    1.362   1_455 S
F213   C247    1.361   .     S
H216   C368    1.086   .     S
O220   Zn233   1.959   .     S
O220   Zn236   1.936   .     S
O220   Zn234   1.943   .     S
O220   Zn235   1.931   .     S
O221   Zn234   1.926   .     S
O222   Zn236   1.936   .     S
O223   Zn235   1.932   .     S
O224   Zn233   1.924   .     S
O225   Zn233   1.928   .     S
O226   Zn236   1.929   .     S
O227   Zn234   1.933   .     S
O228   Zn235   1.942   .     S
O229   Zn236   1.937   .     S
O230   Zn233   1.928   .     S
O231   Zn234   1.936   .     S
O232   Zn235   1.932   .     S
C237   O286    1.270   .     A
C237   O288    1.269   .     A
C237   C247    1.435   .     S
C238   C239    1.401   .     A
C238   C261    1.421   .     A
C238   Cl269   1.777   .     S
C239   Cl268   1.773   .     S
C239   C772    1.411   .     S
C240   O289    1.274   .     A
C240   C246    1.457   .     S
C240   O287    1.282   .     A
C241   C242    1.424   .     A
C241   C243    1.418   .     A
C241   C770    1.411   1_554 S
C242   C245    1.407   .     A
C242   C262    1.427   .     A
C243   C244    1.397   .     A
C243   F270    1.357   .     S
C244   C256    1.398   .     A
C244   Cl267   1.764   .     S
C245   C256    1.389   .     A
C245   H276    1.077   .     S
C246   C306    1.342   .     S
C246   F330    1.362   .     S
C248   C255    1.398   .     A
C248   H277    1.083   .     S
C248   C257    1.392   .     A
C249   C252    1.454   .     S
C249   C427    1.336   .     S
C249   Cl443   1.771   .     S
C250   C251    1.436   .     S
C251   O290    1.277   .     A
C251   O284    1.277   .     A
C252   O291    1.269   .     A
C252   O285    1.274   .     A
C253   O280    1.275   .     A
C253   O282    1.274   .     A
C253   C256    1.457   .     S
C254   O283    1.288   .     A
C254   O281    1.282   .     A
C254   C255    1.472   .     S
C255   C258    1.394   .     A
C257   C260    1.417   .     A
C257   F273    1.356   .     S
C258   H278    1.080   .     S
C258   C259    1.407   .     A
C259   C260    1.422   .     A
C259   C261    1.424   .     A
C260   C795    1.408   .     S
C261   C793    1.420   .     S
C262   C263    1.422   .     A
C262   C792    1.420   1_554 S
C263   F274    1.356   .     S
C263   C264    1.395   .     A
C264   Cl265   1.769   .     S
C264   C791    1.408   1_554 S
F272   C306    1.361   .     S
H275   C427    1.086   .     S
O279   Zn292   1.959   .     S
O279   Zn295   1.936   .     S
O279   Zn293   1.943   .     S
O279   Zn294   1.931   .     S
O280   Zn293   1.926   .     S
O281   Zn295   1.936   .     S
O282   Zn294   1.932   .     S
O283   Zn292   1.924   .     S
O284   Zn292   1.928   .     S
O285   Zn295   1.929   .     S
O286   Zn293   1.933   .     S
O287   Zn294   1.942   .     S
O288   Zn295   1.937   .     S
O289   Zn292   1.928   .     S
O290   Zn293   1.936   .     S
O291   Zn294   1.932   .     S
C296   O345    1.270   .     A
C296   O347    1.269   .     A
C296   C306    1.435   .     S
C297   C298    1.401   .     A
C297   C320    1.421   .     A
C297   Cl328   1.777   .     S
C298   Cl327   1.773   .     S
C298   C831    1.411   .     S
C299   O348    1.274   .     A
C299   C305    1.457   .     S
C299   O346    1.282   .     A
C300   C301    1.424   .     A
C300   C302    1.418   .     A
C300   C829    1.411   1_554 S
C301   C304    1.407   .     A
C301   C321    1.427   .     A
C302   C303    1.397   .     A
C302   F329    1.357   .     S
C303   C315    1.398   .     A
C303   Cl326   1.764   .     S
C304   C315    1.389   .     A
C304   H335    1.077   .     S
C305   C188    1.342   1_655 S
C305   F212    1.362   1_655 S
C307   C314    1.398   .     A
C307   H336    1.083   .     S
C307   C316    1.392   .     A
C308   C311    1.454   .     S
C308   C486    1.336   .     S
C308   Cl502   1.771   .     S
C309   C310    1.436   .     S
C310   O349    1.277   .     A
C310   O343    1.277   .     A
C311   O350    1.269   .     A
C311   O344    1.274   .     A
C312   O339    1.275   .     A
C312   O341    1.274   .     A
C312   C315    1.457   .     S
C313   O342    1.288   .     A
C313   O340    1.282   .     A
C313   C314    1.472   .     S
C314   C317    1.394   .     A
C316   C319    1.417   .     A
C316   F332    1.356   .     S
C317   H337    1.080   .     S
C317   C318    1.407   .     A
C318   C319    1.422   .     A
C318   C320    1.424   .     A
C319   C854    1.408   .     S
C320   C852    1.420   .     S
C321   C322    1.422   .     A
C321   C851    1.420   1_554 S
C322   F333    1.356   .     S
C322   C323    1.395   .     A
C323   Cl324   1.769   .     S
C323   C850    1.408   1_554 S
F331   C188    1.361   1_655 S
H334   C486    1.086   .     S
O338   Zn351   1.959   .     S
O338   Zn354   1.936   .     S
O338   Zn352   1.943   .     S
O338   Zn353   1.931   .     S
O339   Zn352   1.926   .     S
O340   Zn354   1.936   .     S
O341   Zn353   1.932   .     S
O342   Zn351   1.924   .     S
O343   Zn351   1.928   .     S
O344   Zn354   1.929   .     S
O345   Zn352   1.933   .     S
O346   Zn353   1.942   .     S
O347   Zn354   1.937   .     S
O348   Zn351   1.928   .     S
O349   Zn352   1.936   .     S
O350   Zn353   1.932   .     S
C355   O404    1.270   .     A
C355   O406    1.269   .     A
C355   C365    1.435   .     S
C356   C357    1.401   .     A
C356   C379    1.421   .     A
C356   Cl387   1.777   .     S
C357   Cl386   1.773   .     S
C357   C890    1.411   .     S
C358   O407    1.274   .     A
C358   C364    1.457   .     S
C358   O405    1.282   .     A
C359   C360    1.424   .     A
C359   C361    1.418   .     A
C359   C888    1.411   1_554 S
C360   C363    1.407   .     A
C360   C380    1.427   .     A
C361   C362    1.397   .     A
C361   F388    1.357   .     S
C362   C374    1.398   .     A
C362   Cl385   1.764   .     S
C363   C374    1.389   .     A
C363   H394    1.077   .     S
C364   C424    1.342   .     S
C364   F448    1.362   .     S
C365   C482    1.342   1_455 S
C365   F508    1.361   1_455 S
C366   C373    1.398   .     A
C366   H395    1.083   .     S
C366   C375    1.392   .     A
C367   C370    1.454   .     S
C367   C14     1.336   1_565 S
C367   Cl30    1.771   1_565 S
C368   C369    1.436   .     S
C369   O408    1.277   .     A
C369   O402    1.277   .     A
C370   O409    1.269   .     A
C370   O403    1.274   .     A
C371   O398    1.275   .     A
C371   O400    1.274   .     A
C371   C374    1.457   .     S
C372   O401    1.288   .     A
C372   O399    1.282   .     A
C372   C373    1.472   .     S
C373   C376    1.394   .     A
C375   C378    1.417   .     A
C375   F391    1.356   .     S
C376   H396    1.080   .     S
C376   C377    1.407   .     A
C377   C378    1.422   .     A
C377   C379    1.424   .     A
C378   C913    1.408   .     S
C379   C911    1.420   .     S
C380   C381    1.422   .     A
C380   C910    1.420   1_554 S
C381   F392    1.356   .     S
C381   C382    1.395   .     A
C382   Cl383   1.769   .     S
C382   C909    1.408   1_554 S
F389   C482    1.362   1_455 S
F390   C424    1.361   .     S
H393   C14     1.086   1_565 S
O397   Zn410   1.959   .     S
O397   Zn413   1.936   .     S
O397   Zn411   1.943   .     S
O397   Zn412   1.931   .     S
O398   Zn411   1.926   .     S
O399   Zn413   1.936   .     S
O400   Zn412   1.932   .     S
O401   Zn410   1.924   .     S
O402   Zn410   1.928   .     S
O403   Zn413   1.929   .     S
O404   Zn411   1.933   .     S
O405   Zn412   1.942   .     S
O406   Zn413   1.937   .     S
O407   Zn410   1.928   .     S
O408   Zn411   1.936   .     S
O409   Zn412   1.932   .     S
C414   O463    1.270   .     A
C414   O465    1.269   .     A
C414   C424    1.435   .     S
C415   C416    1.401   .     A
C415   C438    1.421   .     A
C415   Cl446   1.777   .     S
C416   Cl445   1.773   .     S
C416   C949    1.411   .     S
C417   O466    1.274   .     A
C417   C423    1.457   .     S
C417   O464    1.282   .     A
C418   C419    1.424   .     A
C418   C420    1.418   .     A
C418   C947    1.411   1_554 S
C419   C422    1.407   .     A
C419   C439    1.427   .     A
C420   C421    1.397   .     A
C420   F447    1.357   .     S
C421   C433    1.398   .     A
C421   Cl444   1.764   .     S
C422   C433    1.389   .     A
C422   H453    1.077   .     S
C423   C483    1.342   .     S
C423   F507    1.362   .     S
C425   C432    1.398   .     A
C425   H454    1.083   .     S
C425   C434    1.392   .     A
C426   C429    1.454   .     S
C426   C73     1.336   1_565 S
C426   Cl89    1.771   1_565 S
C427   C428    1.436   .     S
C428   O467    1.277   .     A
C428   O461    1.277   .     A
C429   O468    1.269   .     A
C429   O462    1.274   .     A
C430   O457    1.275   .     A
C430   O459    1.274   .     A
C430   C433    1.457   .     S
C431   O460    1.288   .     A
C431   O458    1.282   .     A
C431   C432    1.472   .     S
C432   C435    1.394   .     A
C434   C437    1.417   .     A
C434   F450    1.356   .     S
C435   H455    1.080   .     S
C435   C436    1.407   .     A
C436   C437    1.422   .     A
C436   C438    1.424   .     A
C437   C972    1.408   .     S
C438   C970    1.420   .     S
C439   C440    1.422   .     A
C439   C969    1.420   1_554 S
C440   F451    1.356   .     S
C440   C441    1.395   .     A
C441   Cl442   1.769   .     S
C441   C968    1.408   1_554 S
F449   C483    1.361   .     S
H452   C73     1.086   1_565 S
O456   Zn469   1.959   .     S
O456   Zn472   1.936   .     S
O456   Zn470   1.943   .     S
O456   Zn471   1.931   .     S
O457   Zn470   1.926   .     S
O458   Zn472   1.936   .     S
O459   Zn471   1.932   .     S
O460   Zn469   1.924   .     S
O461   Zn469   1.928   .     S
O462   Zn472   1.929   .     S
O463   Zn470   1.933   .     S
O464   Zn471   1.942   .     S
O465   Zn472   1.937   .     S
O466   Zn469   1.928   .     S
O467   Zn470   1.936   .     S
O468   Zn471   1.932   .     S
C473   O522    1.270   .     A
C473   O524    1.269   .     A
C473   C483    1.435   .     S
C474   C475    1.401   .     A
C474   C497    1.421   .     A
C474   Cl505   1.777   .     S
C475   Cl504   1.773   .     S
C475   C1008   1.411   .     S
C476   O525    1.274   .     A
C476   C482    1.457   .     S
C476   O523    1.282   .     A
C477   C478    1.424   .     A
C477   C479    1.418   .     A
C477   C1006   1.411   1_554 S
C478   C481    1.407   .     A
C478   C498    1.427   .     A
C479   C480    1.397   .     A
C479   F506    1.357   .     S
C480   C492    1.398   .     A
C480   Cl503   1.764   .     S
C481   C492    1.389   .     A
C481   H512    1.077   .     S
C482   C365    1.342   1_655 S
C482   F389    1.362   1_655 S
C484   C491    1.398   .     A
C484   H513    1.083   .     S
C484   C493    1.392   .     A
C485   C488    1.454   .     S
C485   C132    1.336   1_565 S
C485   Cl148   1.771   1_565 S
C486   C487    1.436   .     S
C487   O526    1.277   .     A
C487   O520    1.277   .     A
C488   O527    1.269   .     A
C488   O521    1.274   .     A
C489   O516    1.275   .     A
C489   O518    1.274   .     A
C489   C492    1.457   .     S
C490   O519    1.288   .     A
C490   O517    1.282   .     A
C490   C491    1.472   .     S
C491   C494    1.394   .     A
C493   C496    1.417   .     A
C493   F509    1.356   .     S
C494   H514    1.080   .     S
C494   C495    1.407   .     A
C495   C496    1.422   .     A
C495   C497    1.424   .     A
C496   C1031   1.408   .     S
C497   C1029   1.420   .     S
C498   C499    1.422   .     A
C498   C1028   1.420   1_554 S
C499   F510    1.356   .     S
C499   C500    1.395   .     A
C500   Cl501   1.769   .     S
C500   C1027   1.408   1_554 S
F508   C365    1.361   1_655 S
H511   C132    1.086   1_565 S
O515   Zn528   1.959   .     S
O515   Zn531   1.936   .     S
O515   Zn529   1.943   .     S
O515   Zn530   1.931   .     S
O516   Zn529   1.926   .     S
O517   Zn531   1.936   .     S
O518   Zn530   1.932   .     S
O519   Zn528   1.924   .     S
O520   Zn528   1.928   .     S
O521   Zn531   1.929   .     S
O522   Zn529   1.933   .     S
O523   Zn530   1.942   .     S
O524   Zn531   1.937   .     S
O525   Zn528   1.928   .     S
O526   Zn529   1.936   .     S
O527   Zn530   1.932   .     S
C532   O581    1.270   .     A
C532   O583    1.269   .     A
C532   C542    1.435   .     S
C533   C534    1.401   .     A
C533   C556    1.421   .     A
C533   Cl564   1.777   .     S
C534   Cl563   1.773   .     S
C534   C5      1.411   1_556 S
C535   O584    1.274   .     A
C535   C541    1.457   .     S
C535   O582    1.282   .     A
C536   C537    1.424   .     A
C536   C538    1.418   .     A
C537   C540    1.407   .     A
C537   C557    1.427   .     A
C538   C539    1.397   .     A
C538   F565    1.357   .     S
C539   C551    1.398   .     A
C539   Cl562   1.764   .     S
C540   C551    1.389   .     A
C540   H571    1.077   .     S
C541   C601    1.342   .     S
C541   F625    1.362   .     S
C542   C659    1.342   1_455 S
C542   F685    1.361   1_455 S
C543   C550    1.398   .     A
C543   H572    1.083   .     S
C543   C552    1.392   .     A
C544   C547    1.454   .     S
C544   C722    1.336   .     S
C544   Cl738   1.771   .     S
C545   C546    1.436   .     S
C545   C898    1.336   1_545 S
C545   H924    1.086   1_545 S
C546   O585    1.277   .     A
C546   O579    1.277   .     A
C547   O586    1.269   .     A
C547   O580    1.274   .     A
C548   O575    1.275   .     A
C548   O577    1.274   .     A
C548   C551    1.457   .     S
C549   O578    1.288   .     A
C549   O576    1.282   .     A
C549   C550    1.472   .     S
C550   C553    1.394   .     A
C552   C555    1.417   .     A
C552   F568    1.356   .     S
C553   H573    1.080   .     S
C553   C554    1.407   .     A
C554   C555    1.422   .     A
C554   C556    1.424   .     A
C555   C28     1.408   1_556 S
C556   C26     1.420   1_556 S
C557   C558    1.422   .     A
C558   F569    1.356   .     S
C558   C559    1.395   .     A
C559   Cl560   1.769   .     S
Cl561  C898    1.771   1_545 S
F566   C659    1.362   1_455 S
F567   C601    1.361   .     S
H570   C722    1.086   .     S
O574   Zn587   1.959   .     S
O574   Zn590   1.936   .     S
O574   Zn588   1.943   .     S
O574   Zn589   1.931   .     S
O575   Zn588   1.926   .     S
O576   Zn590   1.936   .     S
O577   Zn589   1.932   .     S
O578   Zn587   1.924   .     S
O579   Zn587   1.928   .     S
O580   Zn590   1.929   .     S
O581   Zn588   1.933   .     S
O582   Zn589   1.942   .     S
O583   Zn590   1.937   .     S
O584   Zn587   1.928   .     S
O585   Zn588   1.936   .     S
O586   Zn589   1.932   .     S
C591   O640    1.270   .     A
C591   O642    1.269   .     A
C591   C601    1.435   .     S
C592   C593    1.401   .     A
C592   C615    1.421   .     A
C592   Cl623   1.777   .     S
C593   Cl622   1.773   .     S
C593   C64     1.411   1_556 S
C594   O643    1.274   .     A
C594   C600    1.457   .     S
C594   O641    1.282   .     A
C595   C596    1.424   .     A
C595   C597    1.418   .     A
C596   C599    1.407   .     A
C596   C616    1.427   .     A
C597   C598    1.397   .     A
C597   F624    1.357   .     S
C598   C610    1.398   .     A
C598   Cl621   1.764   .     S
C599   C610    1.389   .     A
C599   H630    1.077   .     S
C600   C660    1.342   .     S
C600   F684    1.362   .     S
C602   C609    1.398   .     A
C602   H631    1.083   .     S
C602   C611    1.392   .     A
C603   C606    1.454   .     S
C603   C781    1.336   .     S
C603   Cl797   1.771   .     S
C604   C605    1.436   .     S
C604   C957    1.336   1_545 S
C604   H983    1.086   1_545 S
C605   O644    1.277   .     A
C605   O638    1.277   .     A
C606   O645    1.269   .     A
C606   O639    1.274   .     A
C607   O634    1.275   .     A
C607   O636    1.274   .     A
C607   C610    1.457   .     S
C608   O637    1.288   .     A
C608   O635    1.282   .     A
C608   C609    1.472   .     S
C609   C612    1.394   .     A
C611   C614    1.417   .     A
C611   F627    1.356   .     S
C612   H632    1.080   .     S
C612   C613    1.407   .     A
C613   C614    1.422   .     A
C613   C615    1.424   .     A
C614   C87     1.408   1_556 S
C615   C85     1.420   1_556 S
C616   C617    1.422   .     A
C617   F628    1.356   .     S
C617   C618    1.395   .     A
C618   Cl619   1.769   .     S
Cl620  C957    1.771   1_545 S
F626   C660    1.361   .     S
H629   C781    1.086   .     S
O633   Zn646   1.959   .     S
O633   Zn649   1.936   .     S
O633   Zn647   1.943   .     S
O633   Zn648   1.931   .     S
O634   Zn647   1.926   .     S
O635   Zn649   1.936   .     S
O636   Zn648   1.932   .     S
O637   Zn646   1.924   .     S
O638   Zn646   1.928   .     S
O639   Zn649   1.929   .     S
O640   Zn647   1.933   .     S
O641   Zn648   1.942   .     S
O642   Zn649   1.937   .     S
O643   Zn646   1.928   .     S
O644   Zn647   1.936   .     S
O645   Zn648   1.932   .     S
C650   O699    1.270   .     A
C650   O701    1.269   .     A
C650   C660    1.435   .     S
C651   C652    1.401   .     A
C651   C674    1.421   .     A
C651   Cl682   1.777   .     S
C652   Cl681   1.773   .     S
C652   C123    1.411   1_556 S
C653   O702    1.274   .     A
C653   C659    1.457   .     S
C653   O700    1.282   .     A
C654   C655    1.424   .     A
C654   C656    1.418   .     A
C655   C658    1.407   .     A
C655   C675    1.427   .     A
C656   C657    1.397   .     A
C656   F683    1.357   .     S
C657   C669    1.398   .     A
C657   Cl680   1.764   .     S
C658   C669    1.389   .     A
C658   H689    1.077   .     S
C659   C542    1.342   1_655 S
C659   F566    1.362   1_655 S
C661   C668    1.398   .     A
C661   H690    1.083   .     S
C661   C670    1.392   .     A
C662   C665    1.454   .     S
C662   C840    1.336   .     S
C662   Cl856   1.771   .     S
C663   C664    1.436   .     S
C663   C1016   1.336   1_545 S
C663   H1042   1.086   1_545 S
C664   O703    1.277   .     A
C664   O697    1.277   .     A
C665   O704    1.269   .     A
C665   O698    1.274   .     A
C666   O693    1.275   .     A
C666   O695    1.274   .     A
C666   C669    1.457   .     S
C667   O696    1.288   .     A
C667   O694    1.282   .     A
C667   C668    1.472   .     S
C668   C671    1.394   .     A
C670   C673    1.417   .     A
C670   F686    1.356   .     S
C671   H691    1.080   .     S
C671   C672    1.407   .     A
C672   C673    1.422   .     A
C672   C674    1.424   .     A
C673   C146    1.408   1_556 S
C674   C144    1.420   1_556 S
C675   C676    1.422   .     A
C676   F687    1.356   .     S
C676   C677    1.395   .     A
C677   Cl678   1.769   .     S
Cl679  C1016   1.771   1_545 S
F685   C542    1.361   1_655 S
H688   C840    1.086   .     S
O692   Zn705   1.959   .     S
O692   Zn708   1.936   .     S
O692   Zn706   1.943   .     S
O692   Zn707   1.931   .     S
O693   Zn706   1.926   .     S
O694   Zn708   1.936   .     S
O695   Zn707   1.932   .     S
O696   Zn705   1.924   .     S
O697   Zn705   1.928   .     S
O698   Zn708   1.929   .     S
O699   Zn706   1.933   .     S
O700   Zn707   1.942   .     S
O701   Zn708   1.937   .     S
O702   Zn705   1.928   .     S
O703   Zn706   1.936   .     S
O704   Zn707   1.932   .     S
C709   O758    1.270   .     A
C709   O760    1.269   .     A
C709   C719    1.435   .     S
C710   C711    1.401   .     A
C710   C733    1.421   .     A
C710   Cl741   1.777   .     S
C711   Cl740   1.773   .     S
C711   C182    1.411   1_556 S
C712   O761    1.274   .     A
C712   C718    1.457   .     S
C712   O759    1.282   .     A
C713   C714    1.424   .     A
C713   C715    1.418   .     A
C714   C717    1.407   .     A
C714   C734    1.427   .     A
C715   C716    1.397   .     A
C715   F742    1.357   .     S
C716   C728    1.398   .     A
C716   Cl739   1.764   .     S
C717   C728    1.389   .     A
C717   H748    1.077   .     S
C718   C778    1.342   .     S
C718   F802    1.362   .     S
C719   C836    1.342   1_455 S
C719   F862    1.361   1_455 S
C720   C727    1.398   .     A
C720   H749    1.083   .     S
C720   C729    1.392   .     A
C721   C724    1.454   .     S
C721   C899    1.336   .     S
C721   Cl915   1.771   .     S
C722   C723    1.436   .     S
C723   O762    1.277   .     A
C723   O756    1.277   .     A
C724   O763    1.269   .     A
C724   O757    1.274   .     A
C725   O752    1.275   .     A
C725   O754    1.274   .     A
C725   C728    1.457   .     S
C726   O755    1.288   .     A
C726   O753    1.282   .     A
C726   C727    1.472   .     S
C727   C730    1.394   .     A
C729   C732    1.417   .     A
C729   F745    1.356   .     S
C730   H750    1.080   .     S
C730   C731    1.407   .     A
C731   C732    1.422   .     A
C731   C733    1.424   .     A
C732   C205    1.408   1_556 S
C733   C203    1.420   1_556 S
C734   C735    1.422   .     A
C735   F746    1.356   .     S
C735   C736    1.395   .     A
C736   Cl737   1.769   .     S
F743   C836    1.362   1_455 S
F744   C778    1.361   .     S
H747   C899    1.086   .     S
O751   Zn764   1.959   .     S
O751   Zn767   1.936   .     S
O751   Zn765   1.943   .     S
O751   Zn766   1.931   .     S
O752   Zn765   1.926   .     S
O753   Zn767   1.936   .     S
O754   Zn766   1.932   .     S
O755   Zn764   1.924   .     S
O756   Zn764   1.928   .     S
O757   Zn767   1.929   .     S
O758   Zn765   1.933   .     S
O759   Zn766   1.942   .     S
O760   Zn767   1.937   .     S
O761   Zn764   1.928   .     S
O762   Zn765   1.936   .     S
O763   Zn766   1.932   .     S
C768   O817    1.270   .     A
C768   O819    1.269   .     A
C768   C778    1.435   .     S
C769   C770    1.401   .     A
C769   C792    1.421   .     A
C769   Cl800   1.777   .     S
C770   Cl799   1.773   .     S
C770   C241    1.411   1_556 S
C771   O820    1.274   .     A
C771   C777    1.457   .     S
C771   O818    1.282   .     A
C772   C773    1.424   .     A
C772   C774    1.418   .     A
C773   C776    1.407   .     A
C773   C793    1.427   .     A
C774   C775    1.397   .     A
C774   F801    1.357   .     S
C775   C787    1.398   .     A
C775   Cl798   1.764   .     S
C776   C787    1.389   .     A
C776   H807    1.077   .     S
C777   C837    1.342   .     S
C777   F861    1.362   .     S
C779   C786    1.398   .     A
C779   H808    1.083   .     S
C779   C788    1.392   .     A
C780   C783    1.454   .     S
C780   C958    1.336   .     S
C780   Cl974   1.771   .     S
C781   C782    1.436   .     S
C782   O821    1.277   .     A
C782   O815    1.277   .     A
C783   O822    1.269   .     A
C783   O816    1.274   .     A
C784   O811    1.275   .     A
C784   O813    1.274   .     A
C784   C787    1.457   .     S
C785   O814    1.288   .     A
C785   O812    1.282   .     A
C785   C786    1.472   .     S
C786   C789    1.394   .     A
C788   C791    1.417   .     A
C788   F804    1.356   .     S
C789   H809    1.080   .     S
C789   C790    1.407   .     A
C790   C791    1.422   .     A
C790   C792    1.424   .     A
C791   C264    1.408   1_556 S
C792   C262    1.420   1_556 S
C793   C794    1.422   .     A
C794   F805    1.356   .     S
C794   C795    1.395   .     A
C795   Cl796   1.769   .     S
F803   C837    1.361   .     S
H806   C958    1.086   .     S
O810   Zn823   1.959   .     S
O810   Zn826   1.936   .     S
O810   Zn824   1.943   .     S
O810   Zn825   1.931   .     S
O811   Zn824   1.926   .     S
O812   Zn826   1.936   .     S
O813   Zn825   1.932   .     S
O814   Zn823   1.924   .     S
O815   Zn823   1.928   .     S
O816   Zn826   1.929   .     S
O817   Zn824   1.933   .     S
O818   Zn825   1.942   .     S
O819   Zn826   1.937   .     S
O820   Zn823   1.928   .     S
O821   Zn824   1.936   .     S
O822   Zn825   1.932   .     S
C827   O876    1.270   .     A
C827   O878    1.269   .     A
C827   C837    1.435   .     S
C828   C829    1.401   .     A
C828   C851    1.421   .     A
C828   Cl859   1.777   .     S
C829   Cl858   1.773   .     S
C829   C300    1.411   1_556 S
C830   O879    1.274   .     A
C830   C836    1.457   .     S
C830   O877    1.282   .     A
C831   C832    1.424   .     A
C831   C833    1.418   .     A
C832   C835    1.407   .     A
C832   C852    1.427   .     A
C833   C834    1.397   .     A
C833   F860    1.357   .     S
C834   C846    1.398   .     A
C834   Cl857   1.764   .     S
C835   C846    1.389   .     A
C835   H866    1.077   .     S
C836   C719    1.342   1_655 S
C836   F743    1.362   1_655 S
C838   C845    1.398   .     A
C838   H867    1.083   .     S
C838   C847    1.392   .     A
C839   C842    1.454   .     S
C839   C1017   1.336   .     S
C839   Cl1033  1.771   .     S
C840   C841    1.436   .     S
C841   O880    1.277   .     A
C841   O874    1.277   .     A
C842   O881    1.269   .     A
C842   O875    1.274   .     A
C843   O870    1.275   .     A
C843   O872    1.274   .     A
C843   C846    1.457   .     S
C844   O873    1.288   .     A
C844   O871    1.282   .     A
C844   C845    1.472   .     S
C845   C848    1.394   .     A
C847   C850    1.417   .     A
C847   F863    1.356   .     S
C848   H868    1.080   .     S
C848   C849    1.407   .     A
C849   C850    1.422   .     A
C849   C851    1.424   .     A
C850   C323    1.408   1_556 S
C851   C321    1.420   1_556 S
C852   C853    1.422   .     A
C853   F864    1.356   .     S
C853   C854    1.395   .     A
C854   Cl855   1.769   .     S
F862   C719    1.361   1_655 S
H865   C1017   1.086   .     S
O869   Zn882   1.959   .     S
O869   Zn885   1.936   .     S
O869   Zn883   1.943   .     S
O869   Zn884   1.931   .     S
O870   Zn883   1.926   .     S
O871   Zn885   1.936   .     S
O872   Zn884   1.932   .     S
O873   Zn882   1.924   .     S
O874   Zn882   1.928   .     S
O875   Zn885   1.929   .     S
O876   Zn883   1.933   .     S
O877   Zn884   1.942   .     S
O878   Zn885   1.937   .     S
O879   Zn882   1.928   .     S
O880   Zn883   1.936   .     S
O881   Zn884   1.932   .     S
C886   O935    1.270   .     A
C886   O937    1.269   .     A
C886   C896    1.435   .     S
C887   C888    1.401   .     A
C887   C910    1.421   .     A
C887   Cl918   1.777   .     S
C888   Cl917   1.773   .     S
C888   C359    1.411   1_556 S
C889   O938    1.274   .     A
C889   C895    1.457   .     S
C889   O936    1.282   .     A
C890   C891    1.424   .     A
C890   C892    1.418   .     A
C891   C894    1.407   .     A
C891   C911    1.427   .     A
C892   C893    1.397   .     A
C892   F919    1.357   .     S
C893   C905    1.398   .     A
C893   Cl916   1.764   .     S
C894   C905    1.389   .     A
C894   H925    1.077   .     S
C895   C955    1.342   .     S
C895   F979    1.362   .     S
C896   C1013   1.342   1_455 S
C896   F1039   1.361   1_455 S
C897   C904    1.398   .     A
C897   H926    1.083   .     S
C897   C906    1.392   .     A
C898   C901    1.454   .     S
C898   C545    1.336   1_565 S
C898   Cl561   1.771   1_565 S
C899   C900    1.436   .     S
C900   O939    1.277   .     A
C900   O933    1.277   .     A
C901   O940    1.269   .     A
C901   O934    1.274   .     A
C902   O929    1.275   .     A
C902   O931    1.274   .     A
C902   C905    1.457   .     S
C903   O932    1.288   .     A
C903   O930    1.282   .     A
C903   C904    1.472   .     S
C904   C907    1.394   .     A
C906   C909    1.417   .     A
C906   F922    1.356   .     S
C907   H927    1.080   .     S
C907   C908    1.407   .     A
C908   C909    1.422   .     A
C908   C910    1.424   .     A
C909   C382    1.408   1_556 S
C910   C380    1.420   1_556 S
C911   C912    1.422   .     A
C912   F923    1.356   .     S
C912   C913    1.395   .     A
C913   Cl914   1.769   .     S
F920   C1013   1.362   1_455 S
F921   C955    1.361   .     S
H924   C545    1.086   1_565 S
O928   Zn941   1.959   .     S
O928   Zn944   1.936   .     S
O928   Zn942   1.943   .     S
O928   Zn943   1.931   .     S
O929   Zn942   1.926   .     S
O930   Zn944   1.936   .     S
O931   Zn943   1.932   .     S
O932   Zn941   1.924   .     S
O933   Zn941   1.928   .     S
O934   Zn944   1.929   .     S
O935   Zn942   1.933   .     S
O936   Zn943   1.942   .     S
O937   Zn944   1.937   .     S
O938   Zn941   1.928   .     S
O939   Zn942   1.936   .     S
O940   Zn943   1.932   .     S
C945   O994    1.270   .     A
C945   O996    1.269   .     A
C945   C955    1.435   .     S
C946   C947    1.401   .     A
C946   C969    1.421   .     A
C946   Cl977   1.777   .     S
C947   Cl976   1.773   .     S
C947   C418    1.411   1_556 S
C948   O997    1.274   .     A
C948   C954    1.457   .     S
C948   O995    1.282   .     A
C949   C950    1.424   .     A
C949   C951    1.418   .     A
C950   C953    1.407   .     A
C950   C970    1.427   .     A
C951   C952    1.397   .     A
C951   F978    1.357   .     S
C952   C964    1.398   .     A
C952   Cl975   1.764   .     S
C953   C964    1.389   .     A
C953   H984    1.077   .     S
C954   C1014   1.342   .     S
C954   F1038   1.362   .     S
C956   C963    1.398   .     A
C956   H985    1.083   .     S
C956   C965    1.392   .     A
C957   C960    1.454   .     S
C957   C604    1.336   1_565 S
C957   Cl620   1.771   1_565 S
C958   C959    1.436   .     S
C959   O998    1.277   .     A
C959   O992    1.277   .     A
C960   O999    1.269   .     A
C960   O993    1.274   .     A
C961   O988    1.275   .     A
C961   O990    1.274   .     A
C961   C964    1.457   .     S
C962   O991    1.288   .     A
C962   O989    1.282   .     A
C962   C963    1.472   .     S
C963   C966    1.394   .     A
C965   C968    1.417   .     A
C965   F981    1.356   .     S
C966   H986    1.080   .     S
C966   C967    1.407   .     A
C967   C968    1.422   .     A
C967   C969    1.424   .     A
C968   C441    1.408   1_556 S
C969   C439    1.420   1_556 S
C970   C971    1.422   .     A
C971   F982    1.356   .     S
C971   C972    1.395   .     A
C972   Cl973   1.769   .     S
F980   C1014   1.361   .     S
H983   C604    1.086   1_565 S
O987   Zn1000  1.959   .     S
O987   Zn1003  1.936   .     S
O987   Zn1001  1.943   .     S
O987   Zn1002  1.931   .     S
O988   Zn1001  1.926   .     S
O989   Zn1003  1.936   .     S
O990   Zn1002  1.932   .     S
O991   Zn1000  1.924   .     S
O992   Zn1000  1.928   .     S
O993   Zn1003  1.929   .     S
O994   Zn1001  1.933   .     S
O995   Zn1002  1.942   .     S
O996   Zn1003  1.937   .     S
O997   Zn1000  1.928   .     S
O998   Zn1001  1.936   .     S
O999   Zn1002  1.932   .     S
C1004  O1053   1.270   .     A
C1004  O1055   1.269   .     A
C1004  C1014   1.435   .     S
C1005  C1006   1.401   .     A
C1005  C1028   1.421   .     A
C1005  Cl1036  1.777   .     S
C1006  Cl1035  1.773   .     S
C1006  C477    1.411   1_556 S
C1007  O1056   1.274   .     A
C1007  C1013   1.457   .     S
C1007  O1054   1.282   .     A
C1008  C1009   1.424   .     A
C1008  C1010   1.418   .     A
C1009  C1012   1.407   .     A
C1009  C1029   1.427   .     A
C1010  C1011   1.397   .     A
C1010  F1037   1.357   .     S
C1011  C1023   1.398   .     A
C1011  Cl1034  1.764   .     S
C1012  C1023   1.389   .     A
C1012  H1043   1.077   .     S
C1013  C896    1.342   1_655 S
C1013  F920    1.362   1_655 S
C1015  C1022   1.398   .     A
C1015  H1044   1.083   .     S
C1015  C1024   1.392   .     A
C1016  C1019   1.454   .     S
C1016  C663    1.336   1_565 S
C1016  Cl679   1.771   1_565 S
C1017  C1018   1.436   .     S
C1018  O1057   1.277   .     A
C1018  O1051   1.277   .     A
C1019  O1058   1.269   .     A
C1019  O1052   1.274   .     A
C1020  O1047   1.275   .     A
C1020  O1049   1.274   .     A
C1020  C1023   1.457   .     S
C1021  O1050   1.288   .     A
C1021  O1048   1.282   .     A
C1021  C1022   1.472   .     S
C1022  C1025   1.394   .     A
C1024  C1027   1.417   .     A
C1024  F1040   1.356   .     S
C1025  H1045   1.080   .     S
C1025  C1026   1.407   .     A
C1026  C1027   1.422   .     A
C1026  C1028   1.424   .     A
C1027  C500    1.408   1_556 S
C1028  C498    1.420   1_556 S
C1029  C1030   1.422   .     A
C1030  F1041   1.356   .     S
C1030  C1031   1.395   .     A
C1031  Cl1032  1.769   .     S
F1039  C896    1.361   1_655 S
H1042  C663    1.086   1_565 S
O1046  Zn1059  1.959   .     S
O1046  Zn1062  1.936   .     S
O1046  Zn1060  1.943   .     S
O1046  Zn1061  1.931   .     S
O1047  Zn1060  1.926   .     S
O1048  Zn1062  1.936   .     S
O1049  Zn1061  1.932   .     S
O1050  Zn1059  1.924   .     S
O1051  Zn1059  1.928   .     S
O1052  Zn1062  1.929   .     S
O1053  Zn1060  1.933   .     S
O1054  Zn1061  1.942   .     S
O1055  Zn1062  1.937   .     S
O1056  Zn1059  1.928   .     S
O1057  Zn1060  1.936   .     S
O1058  Zn1061  1.932   .     S
