data_str_m3_o1_o5_pcu_sym.12
_audit_creation_date              2020-01-03
_audit_creation_method            'Materials Studio'
_symmetry_space_group_name_H-M    'P1'
_symmetry_Int_Tables_number       1
_symmetry_cell_setting            triclinic
loop_
_symmetry_equiv_pos_as_xyz
  x,y,z
_cell_length_a                    32.1868
_cell_length_b                    29.7962
_cell_length_c                    26.6831
_cell_angle_alpha                 89.7094
_cell_angle_beta                  92.9184
_cell_angle_gamma                 88.0324
loop_
_atom_site_label
_atom_site_type_symbol
_atom_site_fract_x
_atom_site_fract_y
_atom_site_fract_z
_atom_site_U_iso_or_equiv
_atom_site_adp_type
_atom_site_occupancy
C1     C     0.08679   0.16755   0.17122   0.00000  Uiso   1.00
C2     C     0.01856   0.20914   0.16322   0.00000  Uiso   1.00
C3     C     0.29101   0.16428   0.15483   0.00000  Uiso   1.00
C4     C     0.04201   0.16939   0.17676   0.00000  Uiso   1.00
C5     C     0.18598   0.02300   0.20547   0.00000  Uiso   1.00
C6     C     0.14757   0.31036   0.12769   0.00000  Uiso   1.00
C7     C     0.14690   0.02495   0.12825   0.00000  Uiso   1.00
C8     C     0.18640   0.30842   0.20511   0.00000  Uiso   1.00
C9     C     0.04523   0.09150   0.21375   0.00000  Uiso   1.00
C10    C     0.28699   0.24324   0.12028   0.00000  Uiso   1.00
C11    C     0.29714   0.07931   0.15824   0.00000  Uiso   1.00
C12    C     0.24641   0.16586   0.16153   0.00000  Uiso   1.00
C13    C     0.03597   0.25461   0.16985   0.00000  Uiso   1.00
C14    C     0.20550   0.04598   0.24909   0.00000  Uiso   1.00
C15    C     0.12867   0.28747   0.08357   0.00000  Uiso   1.00
C16    C     0.12235   0.05021   0.08860   0.00000  Uiso   1.00
C17    C     0.21054   0.28321   0.24515   0.00000  Uiso   1.00
C18    C     0.16648   0.16675   0.07296   0.00000  Uiso   1.00
C19    C     0.16687   0.16659   0.26037   0.00000  Uiso   1.00
C20    C     0.16661   0.16678   0.02182   0.00000  Uiso   1.00
C21    C     0.16674   0.16656   0.31152   0.00000  Uiso   1.00
C22    C     0.02255   0.12841   0.18458   0.00000  Uiso   1.00
C23    C     0.31033   0.20538   0.14718   0.00000  Uiso   1.00
C24    C     0.31452   0.12449   0.16756   0.00000  Uiso   1.00
H25    H     0.07988   0.07398   0.27640   0.00000  Uiso   1.00
H26    H     0.25080   0.26289   0.05961   0.00000  Uiso   1.00
H27    H     0.26462   0.03972   0.11047   0.00000  Uiso   1.00
H28    H     0.04469   0.31592   0.14048   0.00000  Uiso   1.00
H29    H     0.20692   0.05625   0.32376   0.00000  Uiso   1.00
H30    H     0.12688   0.27905   0.00862   0.00000  Uiso   1.00
H31    H     0.06805   0.08206   0.06711   0.00000  Uiso   1.00
H32    H     0.26433   0.25065   0.26727   0.00000  Uiso   1.00
N33    N     0.16667   0.28573   0.16667   0.00000  Uiso   1.00
N34    N     0.16667   0.04760   0.16667   0.00000  Uiso   1.00
O35    O     0.10559   0.20487   0.16666   0.00000  Uiso   1.00
O36    O     0.06426   0.10104   0.26058   0.00000  Uiso   1.00
O37    O     0.28361   0.28018   0.13972   0.00000  Uiso   1.00
O38    O     0.26672   0.23531   0.07373   0.00000  Uiso   1.00
O39    O     0.30131   0.04954   0.18996   0.00000  Uiso   1.00
O40    O     0.27563   0.07117   0.11248   0.00000  Uiso   1.00
O41    O     0.05385   0.26417   0.20973   0.00000  Uiso   1.00
O42    O     0.03136   0.28658   0.13126   0.00000  Uiso   1.00
O43    O     0.23446   0.07059   0.24370   0.00000  Uiso   1.00
O44    O     0.19092   0.03903   0.29685   0.00000  Uiso   1.00
O45    O     0.10100   0.26114   0.08850   0.00000  Uiso   1.00
O46    O     0.22774   0.12846   0.16667   0.00000  Uiso   1.00
O47    O     0.14244   0.29633   0.03584   0.00000  Uiso   1.00
O48    O     0.13668   0.05565   0.04757   0.00000  Uiso   1.00
O49    O     0.08192   0.06567   0.09722   0.00000  Uiso   1.00
O50    O     0.19603   0.27853   0.28620   0.00000  Uiso   1.00
O51    O     0.25078   0.26693   0.23690   0.00000  Uiso   1.00
O52    O     0.22774   0.20487   0.16667   0.00000  Uiso   1.00
O53    O     0.10559   0.12846   0.16666   0.00000  Uiso   1.00
O54    O     0.16667   0.20488   0.09511   0.00000  Uiso   1.00
O55    O     0.16666   0.12845   0.23822   0.00000  Uiso   1.00
O56    O     0.16666   0.20488   0.23822   0.00000  Uiso   1.00
O57    O     0.16667   0.12845   0.09511   0.00000  Uiso   1.00
O58    O     0.04926   0.05396   0.19605   0.00000  Uiso   1.00
Zn59   Zn    0.16667   0.21771   0.16667   0.00000  Uiso   1.00
Zn60   Zn    0.16667   0.11563   0.16667   0.00000  Uiso   1.00
C61    C     0.42013   0.16755   0.17122   0.00000  Uiso   1.00
C62    C     0.35190   0.20914   0.16322   0.00000  Uiso   1.00
C63    C     0.62434   0.16428   0.15483   0.00000  Uiso   1.00
C64    C     0.37534   0.16939   0.17676   0.00000  Uiso   1.00
C65    C     0.51931   0.02300   0.20547   0.00000  Uiso   1.00
C66    C     0.48090   0.31036   0.12769   0.00000  Uiso   1.00
C67    C     0.48024   0.02495   0.12825   0.00000  Uiso   1.00
C68    C     0.51974   0.30842   0.20511   0.00000  Uiso   1.00
C69    C     0.37856   0.09150   0.21375   0.00000  Uiso   1.00
C70    C     0.62032   0.24324   0.12028   0.00000  Uiso   1.00
C71    C     0.63047   0.07931   0.15824   0.00000  Uiso   1.00
C72    C     0.57974   0.16586   0.16153   0.00000  Uiso   1.00
C73    C     0.36930   0.25461   0.16985   0.00000  Uiso   1.00
C74    C     0.53883   0.04598   0.24909   0.00000  Uiso   1.00
C75    C     0.46200   0.28747   0.08357   0.00000  Uiso   1.00
C76    C     0.45568   0.05021   0.08860   0.00000  Uiso   1.00
C77    C     0.54387   0.28321   0.24515   0.00000  Uiso   1.00
C78    C     0.49981   0.16675   0.07296   0.00000  Uiso   1.00
C79    C     0.50020   0.16659   0.26037   0.00000  Uiso   1.00
C80    C     0.49994   0.16678   0.02182   0.00000  Uiso   1.00
C81    C     0.50008   0.16656   0.31152   0.00000  Uiso   1.00
C82    C     0.35588   0.12841   0.18458   0.00000  Uiso   1.00
C83    C     0.64366   0.20538   0.14718   0.00000  Uiso   1.00
C84    C     0.64785   0.12449   0.16756   0.00000  Uiso   1.00
H85    H     0.41321   0.07398   0.27640   0.00000  Uiso   1.00
H86    H     0.58413   0.26289   0.05961   0.00000  Uiso   1.00
H87    H     0.59795   0.03972   0.11047   0.00000  Uiso   1.00
H88    H     0.37802   0.31592   0.14048   0.00000  Uiso   1.00
H89    H     0.54025   0.05625   0.32376   0.00000  Uiso   1.00
H90    H     0.46021   0.27905   0.00862   0.00000  Uiso   1.00
H91    H     0.40138   0.08206   0.06711   0.00000  Uiso   1.00
H92    H     0.59767   0.25065   0.26727   0.00000  Uiso   1.00
N93    N     0.50000   0.28573   0.16667   0.00000  Uiso   1.00
N94    N     0.50000   0.04760   0.16667   0.00000  Uiso   1.00
O95    O     0.43892   0.20487   0.16666   0.00000  Uiso   1.00
O96    O     0.39759   0.10104   0.26058   0.00000  Uiso   1.00
O97    O     0.61695   0.28018   0.13972   0.00000  Uiso   1.00
O98    O     0.60006   0.23531   0.07373   0.00000  Uiso   1.00
O99    O     0.63464   0.04954   0.18996   0.00000  Uiso   1.00
O100   O     0.60896   0.07117   0.11248   0.00000  Uiso   1.00
O101   O     0.38718   0.26417   0.20973   0.00000  Uiso   1.00
O102   O     0.36470   0.28658   0.13126   0.00000  Uiso   1.00
O103   O     0.56779   0.07059   0.24370   0.00000  Uiso   1.00
O104   O     0.52425   0.03903   0.29685   0.00000  Uiso   1.00
O105   O     0.43434   0.26114   0.08850   0.00000  Uiso   1.00
O106   O     0.56108   0.12846   0.16667   0.00000  Uiso   1.00
O107   O     0.47578   0.29633   0.03584   0.00000  Uiso   1.00
O108   O     0.47001   0.05565   0.04757   0.00000  Uiso   1.00
O109   O     0.41526   0.06567   0.09722   0.00000  Uiso   1.00
O110   O     0.52936   0.27853   0.28620   0.00000  Uiso   1.00
O111   O     0.58411   0.26693   0.23690   0.00000  Uiso   1.00
O112   O     0.56108   0.20487   0.16667   0.00000  Uiso   1.00
O113   O     0.43892   0.12846   0.16666   0.00000  Uiso   1.00
O114   O     0.50000   0.20488   0.09511   0.00000  Uiso   1.00
O115   O     0.50000   0.12845   0.23822   0.00000  Uiso   1.00
O116   O     0.50000   0.20488   0.23822   0.00000  Uiso   1.00
O117   O     0.50000   0.12845   0.09511   0.00000  Uiso   1.00
O118   O     0.38259   0.05396   0.19605   0.00000  Uiso   1.00
Zn119  Zn    0.50000   0.21771   0.16667   0.00000  Uiso   1.00
Zn120  Zn    0.50000   0.11563   0.16667   0.00000  Uiso   1.00
C121   C     0.75346   0.16755   0.17122   0.00000  Uiso   1.00
C122   C     0.68523   0.20914   0.16322   0.00000  Uiso   1.00
C123   C     0.95767   0.16428   0.15483   0.00000  Uiso   1.00
C124   C     0.70868   0.16939   0.17676   0.00000  Uiso   1.00
C125   C     0.85265   0.02300   0.20547   0.00000  Uiso   1.00
C126   C     0.81423   0.31036   0.12769   0.00000  Uiso   1.00
C127   C     0.81357   0.02495   0.12825   0.00000  Uiso   1.00
C128   C     0.85307   0.30842   0.20511   0.00000  Uiso   1.00
C129   C     0.71189   0.09150   0.21375   0.00000  Uiso   1.00
C130   C     0.95365   0.24324   0.12028   0.00000  Uiso   1.00
C131   C     0.96380   0.07931   0.15824   0.00000  Uiso   1.00
C132   C     0.91307   0.16586   0.16153   0.00000  Uiso   1.00
C133   C     0.70263   0.25461   0.16985   0.00000  Uiso   1.00
C134   C     0.87217   0.04598   0.24909   0.00000  Uiso   1.00
C135   C     0.79533   0.28747   0.08357   0.00000  Uiso   1.00
C136   C     0.78901   0.05021   0.08860   0.00000  Uiso   1.00
C137   C     0.87721   0.28321   0.24515   0.00000  Uiso   1.00
C138   C     0.83315   0.16675   0.07296   0.00000  Uiso   1.00
C139   C     0.83353   0.16659   0.26037   0.00000  Uiso   1.00
C140   C     0.83328   0.16678   0.02182   0.00000  Uiso   1.00
C141   C     0.83341   0.16656   0.31152   0.00000  Uiso   1.00
C142   C     0.68921   0.12841   0.18458   0.00000  Uiso   1.00
C143   C     0.97699   0.20538   0.14718   0.00000  Uiso   1.00
C144   C     0.98119   0.12449   0.16756   0.00000  Uiso   1.00
H145   H     0.74655   0.07398   0.27640   0.00000  Uiso   1.00
H146   H     0.91747   0.26289   0.05961   0.00000  Uiso   1.00
H147   H     0.93129   0.03972   0.11047   0.00000  Uiso   1.00
H148   H     0.71135   0.31592   0.14048   0.00000  Uiso   1.00
H149   H     0.87358   0.05625   0.32376   0.00000  Uiso   1.00
H150   H     0.79354   0.27905   0.00862   0.00000  Uiso   1.00
H151   H     0.73471   0.08206   0.06711   0.00000  Uiso   1.00
H152   H     0.93100   0.25065   0.26727   0.00000  Uiso   1.00
N153   N     0.83333   0.28573   0.16667   0.00000  Uiso   1.00
N154   N     0.83333   0.04760   0.16667   0.00000  Uiso   1.00
O155   O     0.77226   0.20487   0.16666   0.00000  Uiso   1.00
O156   O     0.73092   0.10104   0.26058   0.00000  Uiso   1.00
O157   O     0.95028   0.28018   0.13972   0.00000  Uiso   1.00
O158   O     0.93339   0.23531   0.07373   0.00000  Uiso   1.00
O159   O     0.96797   0.04954   0.18996   0.00000  Uiso   1.00
O160   O     0.94229   0.07117   0.11248   0.00000  Uiso   1.00
O161   O     0.72052   0.26417   0.20973   0.00000  Uiso   1.00
O162   O     0.69803   0.28658   0.13126   0.00000  Uiso   1.00
O163   O     0.90113   0.07059   0.24370   0.00000  Uiso   1.00
O164   O     0.85759   0.03903   0.29685   0.00000  Uiso   1.00
O165   O     0.76767   0.26114   0.08850   0.00000  Uiso   1.00
O166   O     0.89441   0.12846   0.16667   0.00000  Uiso   1.00
O167   O     0.80911   0.29633   0.03584   0.00000  Uiso   1.00
O168   O     0.80335   0.05565   0.04757   0.00000  Uiso   1.00
O169   O     0.74859   0.06567   0.09722   0.00000  Uiso   1.00
O170   O     0.86269   0.27853   0.28620   0.00000  Uiso   1.00
O171   O     0.91745   0.26693   0.23690   0.00000  Uiso   1.00
O172   O     0.89441   0.20487   0.16667   0.00000  Uiso   1.00
O173   O     0.77226   0.12846   0.16666   0.00000  Uiso   1.00
O174   O     0.83334   0.20488   0.09511   0.00000  Uiso   1.00
O175   O     0.83333   0.12845   0.23822   0.00000  Uiso   1.00
O176   O     0.83333   0.20488   0.23822   0.00000  Uiso   1.00
O177   O     0.83334   0.12845   0.09511   0.00000  Uiso   1.00
O178   O     0.71592   0.05396   0.19605   0.00000  Uiso   1.00
Zn179  Zn    0.83333   0.21771   0.16667   0.00000  Uiso   1.00
Zn180  Zn    0.83333   0.11563   0.16667   0.00000  Uiso   1.00
C181   C     0.08679   0.50088   0.17122   0.00000  Uiso   1.00
C182   C     0.01856   0.54248   0.16322   0.00000  Uiso   1.00
C183   C     0.29101   0.49761   0.15483   0.00000  Uiso   1.00
C184   C     0.04201   0.50272   0.17676   0.00000  Uiso   1.00
C185   C     0.18598   0.35633   0.20547   0.00000  Uiso   1.00
C186   C     0.14757   0.64369   0.12769   0.00000  Uiso   1.00
C187   C     0.14690   0.35828   0.12825   0.00000  Uiso   1.00
C188   C     0.18640   0.64175   0.20511   0.00000  Uiso   1.00
C189   C     0.04523   0.42483   0.21375   0.00000  Uiso   1.00
C190   C     0.28699   0.57657   0.12028   0.00000  Uiso   1.00
C191   C     0.29714   0.41264   0.15824   0.00000  Uiso   1.00
C192   C     0.24641   0.49919   0.16153   0.00000  Uiso   1.00
C193   C     0.03597   0.58794   0.16985   0.00000  Uiso   1.00
C194   C     0.20550   0.37931   0.24909   0.00000  Uiso   1.00
C195   C     0.12867   0.62081   0.08357   0.00000  Uiso   1.00
C196   C     0.12235   0.38355   0.08860   0.00000  Uiso   1.00
C197   C     0.21054   0.61654   0.24515   0.00000  Uiso   1.00
C198   C     0.16648   0.50008   0.07296   0.00000  Uiso   1.00
C199   C     0.16687   0.49992   0.26037   0.00000  Uiso   1.00
C200   C     0.16661   0.50011   0.02182   0.00000  Uiso   1.00
C201   C     0.16674   0.49989   0.31152   0.00000  Uiso   1.00
C202   C     0.02255   0.46175   0.18458   0.00000  Uiso   1.00
C203   C     0.31033   0.53871   0.14718   0.00000  Uiso   1.00
C204   C     0.31452   0.45783   0.16756   0.00000  Uiso   1.00
H205   H     0.07988   0.40732   0.27640   0.00000  Uiso   1.00
H206   H     0.25080   0.59623   0.05961   0.00000  Uiso   1.00
H207   H     0.26462   0.37305   0.11047   0.00000  Uiso   1.00
H208   H     0.04469   0.64925   0.14048   0.00000  Uiso   1.00
H209   H     0.20692   0.38958   0.32376   0.00000  Uiso   1.00
H210   H     0.12688   0.61238   0.00862   0.00000  Uiso   1.00
H211   H     0.06805   0.41539   0.06711   0.00000  Uiso   1.00
H212   H     0.26433   0.58398   0.26727   0.00000  Uiso   1.00
N213   N     0.16667   0.61907   0.16667   0.00000  Uiso   1.00
N214   N     0.16667   0.38093   0.16667   0.00000  Uiso   1.00
O215   O     0.10559   0.53821   0.16666   0.00000  Uiso   1.00
O216   O     0.06426   0.43438   0.26058   0.00000  Uiso   1.00
O217   O     0.28361   0.61351   0.13972   0.00000  Uiso   1.00
O218   O     0.26672   0.56864   0.07373   0.00000  Uiso   1.00
O219   O     0.30131   0.38287   0.18996   0.00000  Uiso   1.00
O220   O     0.27563   0.40450   0.11248   0.00000  Uiso   1.00
O221   O     0.05385   0.59750   0.20973   0.00000  Uiso   1.00
O222   O     0.03136   0.61992   0.13126   0.00000  Uiso   1.00
O223   O     0.23446   0.40392   0.24370   0.00000  Uiso   1.00
O224   O     0.19092   0.37236   0.29685   0.00000  Uiso   1.00
O225   O     0.10100   0.59447   0.08850   0.00000  Uiso   1.00
O226   O     0.22774   0.46179   0.16667   0.00000  Uiso   1.00
O227   O     0.14244   0.62966   0.03584   0.00000  Uiso   1.00
O228   O     0.13668   0.38899   0.04757   0.00000  Uiso   1.00
O229   O     0.08192   0.39900   0.09722   0.00000  Uiso   1.00
O230   O     0.19603   0.61186   0.28620   0.00000  Uiso   1.00
O231   O     0.25078   0.60026   0.23690   0.00000  Uiso   1.00
O232   O     0.22774   0.53821   0.16667   0.00000  Uiso   1.00
O233   O     0.10559   0.46179   0.16666   0.00000  Uiso   1.00
O234   O     0.16667   0.53821   0.09511   0.00000  Uiso   1.00
O235   O     0.16666   0.46179   0.23822   0.00000  Uiso   1.00
O236   O     0.16666   0.53821   0.23822   0.00000  Uiso   1.00
O237   O     0.16667   0.46179   0.09511   0.00000  Uiso   1.00
O238   O     0.04926   0.38729   0.19605   0.00000  Uiso   1.00
Zn239  Zn    0.16667   0.55104   0.16667   0.00000  Uiso   1.00
Zn240  Zn    0.16667   0.44896   0.16667   0.00000  Uiso   1.00
C241   C     0.42013   0.50088   0.17122   0.00000  Uiso   1.00
C242   C     0.35190   0.54248   0.16322   0.00000  Uiso   1.00
C243   C     0.62434   0.49761   0.15483   0.00000  Uiso   1.00
C244   C     0.37534   0.50272   0.17676   0.00000  Uiso   1.00
C245   C     0.51931   0.35633   0.20547   0.00000  Uiso   1.00
C246   C     0.48090   0.64369   0.12769   0.00000  Uiso   1.00
C247   C     0.48024   0.35828   0.12825   0.00000  Uiso   1.00
C248   C     0.51974   0.64175   0.20511   0.00000  Uiso   1.00
C249   C     0.37856   0.42483   0.21375   0.00000  Uiso   1.00
C250   C     0.62032   0.57657   0.12028   0.00000  Uiso   1.00
C251   C     0.63047   0.41264   0.15824   0.00000  Uiso   1.00
C252   C     0.57974   0.49919   0.16153   0.00000  Uiso   1.00
C253   C     0.36930   0.58794   0.16985   0.00000  Uiso   1.00
C254   C     0.53883   0.37931   0.24909   0.00000  Uiso   1.00
C255   C     0.46200   0.62081   0.08357   0.00000  Uiso   1.00
C256   C     0.45568   0.38355   0.08860   0.00000  Uiso   1.00
C257   C     0.54387   0.61654   0.24515   0.00000  Uiso   1.00
C258   C     0.49981   0.50008   0.07296   0.00000  Uiso   1.00
C259   C     0.50020   0.49992   0.26037   0.00000  Uiso   1.00
C260   C     0.49994   0.50011   0.02182   0.00000  Uiso   1.00
C261   C     0.50008   0.49989   0.31152   0.00000  Uiso   1.00
C262   C     0.35588   0.46175   0.18458   0.00000  Uiso   1.00
C263   C     0.64366   0.53871   0.14718   0.00000  Uiso   1.00
C264   C     0.64785   0.45783   0.16756   0.00000  Uiso   1.00
H265   H     0.41321   0.40732   0.27640   0.00000  Uiso   1.00
H266   H     0.58413   0.59623   0.05961   0.00000  Uiso   1.00
H267   H     0.59795   0.37305   0.11047   0.00000  Uiso   1.00
H268   H     0.37802   0.64925   0.14048   0.00000  Uiso   1.00
H269   H     0.54025   0.38958   0.32376   0.00000  Uiso   1.00
H270   H     0.46021   0.61238   0.00862   0.00000  Uiso   1.00
H271   H     0.40138   0.41539   0.06711   0.00000  Uiso   1.00
H272   H     0.59767   0.58398   0.26727   0.00000  Uiso   1.00
N273   N     0.50000   0.61907   0.16667   0.00000  Uiso   1.00
N274   N     0.50000   0.38093   0.16667   0.00000  Uiso   1.00
O275   O     0.43892   0.53821   0.16666   0.00000  Uiso   1.00
O276   O     0.39759   0.43438   0.26058   0.00000  Uiso   1.00
O277   O     0.61695   0.61351   0.13972   0.00000  Uiso   1.00
O278   O     0.60006   0.56864   0.07373   0.00000  Uiso   1.00
O279   O     0.63464   0.38287   0.18996   0.00000  Uiso   1.00
O280   O     0.60896   0.40450   0.11248   0.00000  Uiso   1.00
O281   O     0.38718   0.59750   0.20973   0.00000  Uiso   1.00
O282   O     0.36470   0.61992   0.13126   0.00000  Uiso   1.00
O283   O     0.56779   0.40392   0.24370   0.00000  Uiso   1.00
O284   O     0.52425   0.37236   0.29685   0.00000  Uiso   1.00
O285   O     0.43434   0.59447   0.08850   0.00000  Uiso   1.00
O286   O     0.56108   0.46179   0.16667   0.00000  Uiso   1.00
O287   O     0.47578   0.62966   0.03584   0.00000  Uiso   1.00
O288   O     0.47001   0.38899   0.04757   0.00000  Uiso   1.00
O289   O     0.41526   0.39900   0.09722   0.00000  Uiso   1.00
O290   O     0.52936   0.61186   0.28620   0.00000  Uiso   1.00
O291   O     0.58411   0.60026   0.23690   0.00000  Uiso   1.00
O292   O     0.56108   0.53821   0.16667   0.00000  Uiso   1.00
O293   O     0.43892   0.46179   0.16666   0.00000  Uiso   1.00
O294   O     0.50000   0.53821   0.09511   0.00000  Uiso   1.00
O295   O     0.50000   0.46179   0.23822   0.00000  Uiso   1.00
O296   O     0.50000   0.53821   0.23822   0.00000  Uiso   1.00
O297   O     0.50000   0.46179   0.09511   0.00000  Uiso   1.00
O298   O     0.38259   0.38729   0.19605   0.00000  Uiso   1.00
Zn299  Zn    0.50000   0.55104   0.16667   0.00000  Uiso   1.00
Zn300  Zn    0.50000   0.44896   0.16667   0.00000  Uiso   1.00
C301   C     0.75346   0.50088   0.17122   0.00000  Uiso   1.00
C302   C     0.68523   0.54248   0.16322   0.00000  Uiso   1.00
C303   C     0.95767   0.49761   0.15483   0.00000  Uiso   1.00
C304   C     0.70868   0.50272   0.17676   0.00000  Uiso   1.00
C305   C     0.85265   0.35633   0.20547   0.00000  Uiso   1.00
C306   C     0.81423   0.64369   0.12769   0.00000  Uiso   1.00
C307   C     0.81357   0.35828   0.12825   0.00000  Uiso   1.00
C308   C     0.85307   0.64175   0.20511   0.00000  Uiso   1.00
C309   C     0.71189   0.42483   0.21375   0.00000  Uiso   1.00
C310   C     0.95365   0.57657   0.12028   0.00000  Uiso   1.00
C311   C     0.96380   0.41264   0.15824   0.00000  Uiso   1.00
C312   C     0.91307   0.49919   0.16153   0.00000  Uiso   1.00
C313   C     0.70263   0.58794   0.16985   0.00000  Uiso   1.00
C314   C     0.87217   0.37931   0.24909   0.00000  Uiso   1.00
C315   C     0.79533   0.62081   0.08357   0.00000  Uiso   1.00
C316   C     0.78901   0.38355   0.08860   0.00000  Uiso   1.00
C317   C     0.87721   0.61654   0.24515   0.00000  Uiso   1.00
C318   C     0.83315   0.50008   0.07296   0.00000  Uiso   1.00
C319   C     0.83353   0.49992   0.26037   0.00000  Uiso   1.00
C320   C     0.83328   0.50011   0.02182   0.00000  Uiso   1.00
C321   C     0.83341   0.49989   0.31152   0.00000  Uiso   1.00
C322   C     0.68921   0.46175   0.18458   0.00000  Uiso   1.00
C323   C     0.97699   0.53871   0.14718   0.00000  Uiso   1.00
C324   C     0.98119   0.45783   0.16756   0.00000  Uiso   1.00
H325   H     0.74655   0.40732   0.27640   0.00000  Uiso   1.00
H326   H     0.91747   0.59623   0.05961   0.00000  Uiso   1.00
H327   H     0.93129   0.37305   0.11047   0.00000  Uiso   1.00
H328   H     0.71135   0.64925   0.14048   0.00000  Uiso   1.00
H329   H     0.87358   0.38958   0.32376   0.00000  Uiso   1.00
H330   H     0.79354   0.61238   0.00862   0.00000  Uiso   1.00
H331   H     0.73471   0.41539   0.06711   0.00000  Uiso   1.00
H332   H     0.93100   0.58398   0.26727   0.00000  Uiso   1.00
N333   N     0.83333   0.61907   0.16667   0.00000  Uiso   1.00
N334   N     0.83333   0.38093   0.16667   0.00000  Uiso   1.00
O335   O     0.77226   0.53821   0.16666   0.00000  Uiso   1.00
O336   O     0.73092   0.43438   0.26058   0.00000  Uiso   1.00
O337   O     0.95028   0.61351   0.13972   0.00000  Uiso   1.00
O338   O     0.93339   0.56864   0.07373   0.00000  Uiso   1.00
O339   O     0.96797   0.38287   0.18996   0.00000  Uiso   1.00
O340   O     0.94229   0.40450   0.11248   0.00000  Uiso   1.00
O341   O     0.72052   0.59750   0.20973   0.00000  Uiso   1.00
O342   O     0.69803   0.61992   0.13126   0.00000  Uiso   1.00
O343   O     0.90113   0.40392   0.24370   0.00000  Uiso   1.00
O344   O     0.85759   0.37236   0.29685   0.00000  Uiso   1.00
O345   O     0.76767   0.59447   0.08850   0.00000  Uiso   1.00
O346   O     0.89441   0.46179   0.16667   0.00000  Uiso   1.00
O347   O     0.80911   0.62966   0.03584   0.00000  Uiso   1.00
O348   O     0.80335   0.38899   0.04757   0.00000  Uiso   1.00
O349   O     0.74859   0.39900   0.09722   0.00000  Uiso   1.00
O350   O     0.86269   0.61186   0.28620   0.00000  Uiso   1.00
O351   O     0.91745   0.60026   0.23690   0.00000  Uiso   1.00
O352   O     0.89441   0.53821   0.16667   0.00000  Uiso   1.00
O353   O     0.77226   0.46179   0.16666   0.00000  Uiso   1.00
O354   O     0.83334   0.53821   0.09511   0.00000  Uiso   1.00
O355   O     0.83333   0.46179   0.23822   0.00000  Uiso   1.00
O356   O     0.83333   0.53821   0.23822   0.00000  Uiso   1.00
O357   O     0.83334   0.46179   0.09511   0.00000  Uiso   1.00
O358   O     0.71592   0.38729   0.19605   0.00000  Uiso   1.00
Zn359  Zn    0.83333   0.55104   0.16667   0.00000  Uiso   1.00
Zn360  Zn    0.83333   0.44896   0.16667   0.00000  Uiso   1.00
C361   C     0.08679   0.83422   0.17122   0.00000  Uiso   1.00
C362   C     0.01856   0.87581   0.16322   0.00000  Uiso   1.00
C363   C     0.29101   0.83094   0.15483   0.00000  Uiso   1.00
C364   C     0.04201   0.83605   0.17676   0.00000  Uiso   1.00
C365   C     0.18598   0.68966   0.20547   0.00000  Uiso   1.00
C366   C     0.14757   0.97703   0.12769   0.00000  Uiso   1.00
C367   C     0.14690   0.69161   0.12825   0.00000  Uiso   1.00
C368   C     0.18640   0.97508   0.20511   0.00000  Uiso   1.00
C369   C     0.04523   0.75817   0.21375   0.00000  Uiso   1.00
C370   C     0.28699   0.90990   0.12028   0.00000  Uiso   1.00
C371   C     0.29714   0.74597   0.15824   0.00000  Uiso   1.00
C372   C     0.24641   0.83252   0.16153   0.00000  Uiso   1.00
C373   C     0.03597   0.92128   0.16985   0.00000  Uiso   1.00
C374   C     0.20550   0.71264   0.24909   0.00000  Uiso   1.00
C375   C     0.12867   0.95414   0.08357   0.00000  Uiso   1.00
C376   C     0.12235   0.71688   0.08860   0.00000  Uiso   1.00
C377   C     0.21054   0.94987   0.24515   0.00000  Uiso   1.00
C378   C     0.16648   0.83341   0.07296   0.00000  Uiso   1.00
C379   C     0.16687   0.83325   0.26037   0.00000  Uiso   1.00
C380   C     0.16661   0.83344   0.02182   0.00000  Uiso   1.00
C381   C     0.16674   0.83322   0.31152   0.00000  Uiso   1.00
C382   C     0.02255   0.79508   0.18458   0.00000  Uiso   1.00
C383   C     0.31033   0.87205   0.14718   0.00000  Uiso   1.00
C384   C     0.31452   0.79116   0.16756   0.00000  Uiso   1.00
H385   H     0.07988   0.74065   0.27640   0.00000  Uiso   1.00
H386   H     0.25080   0.92956   0.05961   0.00000  Uiso   1.00
H387   H     0.26462   0.70639   0.11047   0.00000  Uiso   1.00
H388   H     0.04469   0.98258   0.14048   0.00000  Uiso   1.00
H389   H     0.20692   0.72291   0.32376   0.00000  Uiso   1.00
H390   H     0.12688   0.94571   0.00862   0.00000  Uiso   1.00
H391   H     0.06805   0.74873   0.06711   0.00000  Uiso   1.00
H392   H     0.26433   0.91731   0.26727   0.00000  Uiso   1.00
N393   N     0.16667   0.95240   0.16667   0.00000  Uiso   1.00
N394   N     0.16667   0.71427   0.16667   0.00000  Uiso   1.00
O395   O     0.10559   0.87154   0.16666   0.00000  Uiso   1.00
O396   O     0.06426   0.76771   0.26058   0.00000  Uiso   1.00
O397   O     0.28361   0.94685   0.13972   0.00000  Uiso   1.00
O398   O     0.26672   0.90197   0.07373   0.00000  Uiso   1.00
O399   O     0.30131   0.71620   0.18996   0.00000  Uiso   1.00
O400   O     0.27563   0.73784   0.11248   0.00000  Uiso   1.00
O401   O     0.05385   0.93083   0.20973   0.00000  Uiso   1.00
O402   O     0.03136   0.95325   0.13126   0.00000  Uiso   1.00
O403   O     0.23446   0.73725   0.24370   0.00000  Uiso   1.00
O404   O     0.19092   0.70569   0.29685   0.00000  Uiso   1.00
O405   O     0.10100   0.92780   0.08850   0.00000  Uiso   1.00
O406   O     0.22774   0.79513   0.16667   0.00000  Uiso   1.00
O407   O     0.14244   0.96300   0.03584   0.00000  Uiso   1.00
O408   O     0.13668   0.72232   0.04757   0.00000  Uiso   1.00
O409   O     0.08192   0.73234   0.09722   0.00000  Uiso   1.00
O410   O     0.19603   0.94520   0.28620   0.00000  Uiso   1.00
O411   O     0.25078   0.93360   0.23690   0.00000  Uiso   1.00
O412   O     0.22774   0.87154   0.16667   0.00000  Uiso   1.00
O413   O     0.10559   0.79513   0.16666   0.00000  Uiso   1.00
O414   O     0.16667   0.87155   0.09511   0.00000  Uiso   1.00
O415   O     0.16666   0.79512   0.23822   0.00000  Uiso   1.00
O416   O     0.16666   0.87155   0.23822   0.00000  Uiso   1.00
O417   O     0.16667   0.79512   0.09511   0.00000  Uiso   1.00
O418   O     0.04926   0.72062   0.19605   0.00000  Uiso   1.00
Zn419  Zn    0.16667   0.88437   0.16667   0.00000  Uiso   1.00
Zn420  Zn    0.16667   0.78229   0.16667   0.00000  Uiso   1.00
C421   C     0.42013   0.83422   0.17122   0.00000  Uiso   1.00
C422   C     0.35190   0.87581   0.16322   0.00000  Uiso   1.00
C423   C     0.62434   0.83094   0.15483   0.00000  Uiso   1.00
C424   C     0.37534   0.83605   0.17676   0.00000  Uiso   1.00
C425   C     0.51931   0.68966   0.20547   0.00000  Uiso   1.00
C426   C     0.48090   0.97703   0.12769   0.00000  Uiso   1.00
C427   C     0.48024   0.69161   0.12825   0.00000  Uiso   1.00
C428   C     0.51974   0.97508   0.20511   0.00000  Uiso   1.00
C429   C     0.37856   0.75817   0.21375   0.00000  Uiso   1.00
C430   C     0.62032   0.90990   0.12028   0.00000  Uiso   1.00
C431   C     0.63047   0.74597   0.15824   0.00000  Uiso   1.00
C432   C     0.57974   0.83252   0.16153   0.00000  Uiso   1.00
C433   C     0.36930   0.92128   0.16985   0.00000  Uiso   1.00
C434   C     0.53883   0.71264   0.24909   0.00000  Uiso   1.00
C435   C     0.46200   0.95414   0.08357   0.00000  Uiso   1.00
C436   C     0.45568   0.71688   0.08860   0.00000  Uiso   1.00
C437   C     0.54387   0.94987   0.24515   0.00000  Uiso   1.00
C438   C     0.49981   0.83341   0.07296   0.00000  Uiso   1.00
C439   C     0.50020   0.83325   0.26037   0.00000  Uiso   1.00
C440   C     0.49994   0.83344   0.02182   0.00000  Uiso   1.00
C441   C     0.50008   0.83322   0.31152   0.00000  Uiso   1.00
C442   C     0.35588   0.79508   0.18458   0.00000  Uiso   1.00
C443   C     0.64366   0.87205   0.14718   0.00000  Uiso   1.00
C444   C     0.64785   0.79116   0.16756   0.00000  Uiso   1.00
H445   H     0.41321   0.74065   0.27640   0.00000  Uiso   1.00
H446   H     0.58413   0.92956   0.05961   0.00000  Uiso   1.00
H447   H     0.59795   0.70639   0.11047   0.00000  Uiso   1.00
H448   H     0.37802   0.98258   0.14048   0.00000  Uiso   1.00
H449   H     0.54025   0.72291   0.32376   0.00000  Uiso   1.00
H450   H     0.46021   0.94571   0.00862   0.00000  Uiso   1.00
H451   H     0.40138   0.74873   0.06711   0.00000  Uiso   1.00
H452   H     0.59767   0.91731   0.26727   0.00000  Uiso   1.00
N453   N     0.50000   0.95240   0.16667   0.00000  Uiso   1.00
N454   N     0.50000   0.71427   0.16667   0.00000  Uiso   1.00
O455   O     0.43892   0.87154   0.16666   0.00000  Uiso   1.00
O456   O     0.39759   0.76771   0.26058   0.00000  Uiso   1.00
O457   O     0.61695   0.94685   0.13972   0.00000  Uiso   1.00
O458   O     0.60006   0.90197   0.07373   0.00000  Uiso   1.00
O459   O     0.63464   0.71620   0.18996   0.00000  Uiso   1.00
O460   O     0.60896   0.73784   0.11248   0.00000  Uiso   1.00
O461   O     0.38718   0.93083   0.20973   0.00000  Uiso   1.00
O462   O     0.36470   0.95325   0.13126   0.00000  Uiso   1.00
O463   O     0.56779   0.73725   0.24370   0.00000  Uiso   1.00
O464   O     0.52425   0.70569   0.29685   0.00000  Uiso   1.00
O465   O     0.43434   0.92780   0.08850   0.00000  Uiso   1.00
O466   O     0.56108   0.79513   0.16667   0.00000  Uiso   1.00
O467   O     0.47578   0.96300   0.03584   0.00000  Uiso   1.00
O468   O     0.47001   0.72232   0.04757   0.00000  Uiso   1.00
O469   O     0.41526   0.73234   0.09722   0.00000  Uiso   1.00
O470   O     0.52936   0.94520   0.28620   0.00000  Uiso   1.00
O471   O     0.58411   0.93360   0.23690   0.00000  Uiso   1.00
O472   O     0.56108   0.87154   0.16667   0.00000  Uiso   1.00
O473   O     0.43892   0.79513   0.16666   0.00000  Uiso   1.00
O474   O     0.50000   0.87155   0.09511   0.00000  Uiso   1.00
O475   O     0.50000   0.79512   0.23822   0.00000  Uiso   1.00
O476   O     0.50000   0.87155   0.23822   0.00000  Uiso   1.00
O477   O     0.50000   0.79512   0.09511   0.00000  Uiso   1.00
O478   O     0.38259   0.72062   0.19605   0.00000  Uiso   1.00
Zn479  Zn    0.50000   0.88437   0.16667   0.00000  Uiso   1.00
Zn480  Zn    0.50000   0.78229   0.16667   0.00000  Uiso   1.00
C481   C     0.75346   0.83422   0.17122   0.00000  Uiso   1.00
C482   C     0.68523   0.87581   0.16322   0.00000  Uiso   1.00
C483   C     0.95767   0.83094   0.15483   0.00000  Uiso   1.00
C484   C     0.70868   0.83605   0.17676   0.00000  Uiso   1.00
C485   C     0.85265   0.68966   0.20547   0.00000  Uiso   1.00
C486   C     0.81423   0.97703   0.12769   0.00000  Uiso   1.00
C487   C     0.81357   0.69161   0.12825   0.00000  Uiso   1.00
C488   C     0.85307   0.97508   0.20511   0.00000  Uiso   1.00
C489   C     0.71189   0.75817   0.21375   0.00000  Uiso   1.00
C490   C     0.95365   0.90990   0.12028   0.00000  Uiso   1.00
C491   C     0.96380   0.74597   0.15824   0.00000  Uiso   1.00
C492   C     0.91307   0.83252   0.16153   0.00000  Uiso   1.00
C493   C     0.70263   0.92128   0.16985   0.00000  Uiso   1.00
C494   C     0.87217   0.71264   0.24909   0.00000  Uiso   1.00
C495   C     0.79533   0.95414   0.08357   0.00000  Uiso   1.00
C496   C     0.78901   0.71688   0.08860   0.00000  Uiso   1.00
C497   C     0.87721   0.94987   0.24515   0.00000  Uiso   1.00
C498   C     0.83315   0.83341   0.07296   0.00000  Uiso   1.00
C499   C     0.83353   0.83325   0.26037   0.00000  Uiso   1.00
C500   C     0.83328   0.83344   0.02182   0.00000  Uiso   1.00
C501   C     0.83341   0.83322   0.31152   0.00000  Uiso   1.00
C502   C     0.68921   0.79508   0.18458   0.00000  Uiso   1.00
C503   C     0.97699   0.87205   0.14718   0.00000  Uiso   1.00
C504   C     0.98119   0.79116   0.16756   0.00000  Uiso   1.00
H505   H     0.74655   0.74065   0.27640   0.00000  Uiso   1.00
H506   H     0.91747   0.92956   0.05961   0.00000  Uiso   1.00
H507   H     0.93129   0.70639   0.11047   0.00000  Uiso   1.00
H508   H     0.71135   0.98258   0.14048   0.00000  Uiso   1.00
H509   H     0.87358   0.72291   0.32376   0.00000  Uiso   1.00
H510   H     0.79354   0.94571   0.00862   0.00000  Uiso   1.00
H511   H     0.73471   0.74873   0.06711   0.00000  Uiso   1.00
H512   H     0.93100   0.91731   0.26727   0.00000  Uiso   1.00
N513   N     0.83333   0.95240   0.16667   0.00000  Uiso   1.00
N514   N     0.83333   0.71427   0.16667   0.00000  Uiso   1.00
O515   O     0.77226   0.87154   0.16666   0.00000  Uiso   1.00
O516   O     0.73092   0.76771   0.26058   0.00000  Uiso   1.00
O517   O     0.95028   0.94685   0.13972   0.00000  Uiso   1.00
O518   O     0.93339   0.90197   0.07373   0.00000  Uiso   1.00
O519   O     0.96797   0.71620   0.18996   0.00000  Uiso   1.00
O520   O     0.94229   0.73784   0.11248   0.00000  Uiso   1.00
O521   O     0.72052   0.93083   0.20973   0.00000  Uiso   1.00
O522   O     0.69803   0.95325   0.13126   0.00000  Uiso   1.00
O523   O     0.90113   0.73725   0.24370   0.00000  Uiso   1.00
O524   O     0.85759   0.70569   0.29685   0.00000  Uiso   1.00
O525   O     0.76767   0.92780   0.08850   0.00000  Uiso   1.00
O526   O     0.89441   0.79513   0.16667   0.00000  Uiso   1.00
O527   O     0.80911   0.96300   0.03584   0.00000  Uiso   1.00
O528   O     0.80335   0.72232   0.04757   0.00000  Uiso   1.00
O529   O     0.74859   0.73234   0.09722   0.00000  Uiso   1.00
O530   O     0.86269   0.94520   0.28620   0.00000  Uiso   1.00
O531   O     0.91745   0.93360   0.23690   0.00000  Uiso   1.00
O532   O     0.89441   0.87154   0.16667   0.00000  Uiso   1.00
O533   O     0.77226   0.79513   0.16666   0.00000  Uiso   1.00
O534   O     0.83334   0.87155   0.09511   0.00000  Uiso   1.00
O535   O     0.83333   0.79512   0.23822   0.00000  Uiso   1.00
O536   O     0.83333   0.87155   0.23822   0.00000  Uiso   1.00
O537   O     0.83334   0.79512   0.09511   0.00000  Uiso   1.00
O538   O     0.71592   0.72062   0.19605   0.00000  Uiso   1.00
Zn539  Zn    0.83333   0.88437   0.16667   0.00000  Uiso   1.00
Zn540  Zn    0.83333   0.78229   0.16667   0.00000  Uiso   1.00
C541   C     0.08679   0.16755   0.50455   0.00000  Uiso   1.00
C542   C     0.01856   0.20914   0.49655   0.00000  Uiso   1.00
C543   C     0.29101   0.16428   0.48816   0.00000  Uiso   1.00
C544   C     0.04201   0.16939   0.51009   0.00000  Uiso   1.00
C545   C     0.18598   0.02300   0.53881   0.00000  Uiso   1.00
C546   C     0.14757   0.31036   0.46102   0.00000  Uiso   1.00
C547   C     0.14690   0.02495   0.46158   0.00000  Uiso   1.00
C548   C     0.18640   0.30842   0.53845   0.00000  Uiso   1.00
C549   C     0.04523   0.09150   0.54708   0.00000  Uiso   1.00
C550   C     0.28699   0.24324   0.45361   0.00000  Uiso   1.00
C551   C     0.29714   0.07931   0.49157   0.00000  Uiso   1.00
C552   C     0.24641   0.16586   0.49487   0.00000  Uiso   1.00
C553   C     0.03597   0.25461   0.50318   0.00000  Uiso   1.00
C554   C     0.20550   0.04598   0.58242   0.00000  Uiso   1.00
C555   C     0.12867   0.28747   0.41690   0.00000  Uiso   1.00
C556   C     0.12235   0.05021   0.42194   0.00000  Uiso   1.00
C557   C     0.21054   0.28321   0.57848   0.00000  Uiso   1.00
C558   C     0.16648   0.16675   0.40630   0.00000  Uiso   1.00
C559   C     0.16687   0.16659   0.59370   0.00000  Uiso   1.00
C560   C     0.16661   0.16678   0.35515   0.00000  Uiso   1.00
C561   C     0.16674   0.16656   0.64485   0.00000  Uiso   1.00
C562   C     0.02255   0.12841   0.51791   0.00000  Uiso   1.00
C563   C     0.31033   0.20538   0.48051   0.00000  Uiso   1.00
C564   C     0.31452   0.12449   0.50089   0.00000  Uiso   1.00
H565   H     0.07988   0.07398   0.60974   0.00000  Uiso   1.00
H566   H     0.25080   0.26289   0.39294   0.00000  Uiso   1.00
H567   H     0.26462   0.03972   0.44381   0.00000  Uiso   1.00
H568   H     0.04469   0.31592   0.47381   0.00000  Uiso   1.00
H569   H     0.20692   0.05625   0.65710   0.00000  Uiso   1.00
H570   H     0.12688   0.27905   0.34195   0.00000  Uiso   1.00
H571   H     0.06805   0.08206   0.40045   0.00000  Uiso   1.00
H572   H     0.26433   0.25065   0.60061   0.00000  Uiso   1.00
N573   N     0.16667   0.28573   0.50000   0.00000  Uiso   1.00
N574   N     0.16667   0.04760   0.50000   0.00000  Uiso   1.00
O575   O     0.10559   0.20487   0.50000   0.00000  Uiso   1.00
O576   O     0.06426   0.10104   0.59391   0.00000  Uiso   1.00
O577   O     0.28361   0.28018   0.47305   0.00000  Uiso   1.00
O578   O     0.26672   0.23531   0.40706   0.00000  Uiso   1.00
O579   O     0.30131   0.04954   0.52329   0.00000  Uiso   1.00
O580   O     0.27563   0.07117   0.44581   0.00000  Uiso   1.00
O581   O     0.05385   0.26417   0.54306   0.00000  Uiso   1.00
O582   O     0.03136   0.28658   0.46459   0.00000  Uiso   1.00
O583   O     0.23446   0.07059   0.57704   0.00000  Uiso   1.00
O584   O     0.19092   0.03903   0.63018   0.00000  Uiso   1.00
O585   O     0.10100   0.26114   0.42184   0.00000  Uiso   1.00
O586   O     0.22774   0.12846   0.50000   0.00000  Uiso   1.00
O587   O     0.14244   0.29633   0.36917   0.00000  Uiso   1.00
O588   O     0.13668   0.05565   0.38090   0.00000  Uiso   1.00
O589   O     0.08192   0.06567   0.43055   0.00000  Uiso   1.00
O590   O     0.19603   0.27853   0.61953   0.00000  Uiso   1.00
O591   O     0.25078   0.26693   0.57023   0.00000  Uiso   1.00
O592   O     0.22774   0.20487   0.50000   0.00000  Uiso   1.00
O593   O     0.10559   0.12846   0.50000   0.00000  Uiso   1.00
O594   O     0.16667   0.20488   0.42845   0.00000  Uiso   1.00
O595   O     0.16666   0.12845   0.57155   0.00000  Uiso   1.00
O596   O     0.16666   0.20488   0.57155   0.00000  Uiso   1.00
O597   O     0.16667   0.12845   0.42845   0.00000  Uiso   1.00
O598   O     0.04926   0.05396   0.52938   0.00000  Uiso   1.00
Zn599  Zn    0.16667   0.21771   0.50000   0.00000  Uiso   1.00
Zn600  Zn    0.16667   0.11563   0.50000   0.00000  Uiso   1.00
C601   C     0.42013   0.16755   0.50455   0.00000  Uiso   1.00
C602   C     0.35190   0.20914   0.49655   0.00000  Uiso   1.00
C603   C     0.62434   0.16428   0.48816   0.00000  Uiso   1.00
C604   C     0.37534   0.16939   0.51009   0.00000  Uiso   1.00
C605   C     0.51931   0.02300   0.53881   0.00000  Uiso   1.00
C606   C     0.48090   0.31036   0.46102   0.00000  Uiso   1.00
C607   C     0.48024   0.02495   0.46158   0.00000  Uiso   1.00
C608   C     0.51974   0.30842   0.53845   0.00000  Uiso   1.00
C609   C     0.37856   0.09150   0.54708   0.00000  Uiso   1.00
C610   C     0.62032   0.24324   0.45361   0.00000  Uiso   1.00
C611   C     0.63047   0.07931   0.49157   0.00000  Uiso   1.00
C612   C     0.57974   0.16586   0.49487   0.00000  Uiso   1.00
C613   C     0.36930   0.25461   0.50318   0.00000  Uiso   1.00
C614   C     0.53883   0.04598   0.58242   0.00000  Uiso   1.00
C615   C     0.46200   0.28747   0.41690   0.00000  Uiso   1.00
C616   C     0.45568   0.05021   0.42194   0.00000  Uiso   1.00
C617   C     0.54387   0.28321   0.57848   0.00000  Uiso   1.00
C618   C     0.49981   0.16675   0.40630   0.00000  Uiso   1.00
C619   C     0.50020   0.16659   0.59370   0.00000  Uiso   1.00
C620   C     0.49994   0.16678   0.35515   0.00000  Uiso   1.00
C621   C     0.50008   0.16656   0.64485   0.00000  Uiso   1.00
C622   C     0.35588   0.12841   0.51791   0.00000  Uiso   1.00
C623   C     0.64366   0.20538   0.48051   0.00000  Uiso   1.00
C624   C     0.64785   0.12449   0.50089   0.00000  Uiso   1.00
H625   H     0.41321   0.07398   0.60974   0.00000  Uiso   1.00
H626   H     0.58413   0.26289   0.39294   0.00000  Uiso   1.00
H627   H     0.59795   0.03972   0.44381   0.00000  Uiso   1.00
H628   H     0.37802   0.31592   0.47381   0.00000  Uiso   1.00
H629   H     0.54025   0.05625   0.65710   0.00000  Uiso   1.00
H630   H     0.46021   0.27905   0.34195   0.00000  Uiso   1.00
H631   H     0.40138   0.08206   0.40045   0.00000  Uiso   1.00
H632   H     0.59767   0.25065   0.60061   0.00000  Uiso   1.00
N633   N     0.50000   0.28573   0.50000   0.00000  Uiso   1.00
N634   N     0.50000   0.04760   0.50000   0.00000  Uiso   1.00
O635   O     0.43892   0.20487   0.50000   0.00000  Uiso   1.00
O636   O     0.39759   0.10104   0.59391   0.00000  Uiso   1.00
O637   O     0.61695   0.28018   0.47305   0.00000  Uiso   1.00
O638   O     0.60006   0.23531   0.40706   0.00000  Uiso   1.00
O639   O     0.63464   0.04954   0.52329   0.00000  Uiso   1.00
O640   O     0.60896   0.07117   0.44581   0.00000  Uiso   1.00
O641   O     0.38718   0.26417   0.54306   0.00000  Uiso   1.00
O642   O     0.36470   0.28658   0.46459   0.00000  Uiso   1.00
O643   O     0.56779   0.07059   0.57704   0.00000  Uiso   1.00
O644   O     0.52425   0.03903   0.63018   0.00000  Uiso   1.00
O645   O     0.43434   0.26114   0.42184   0.00000  Uiso   1.00
O646   O     0.56108   0.12846   0.50000   0.00000  Uiso   1.00
O647   O     0.47578   0.29633   0.36917   0.00000  Uiso   1.00
O648   O     0.47001   0.05565   0.38090   0.00000  Uiso   1.00
O649   O     0.41526   0.06567   0.43055   0.00000  Uiso   1.00
O650   O     0.52936   0.27853   0.61953   0.00000  Uiso   1.00
O651   O     0.58411   0.26693   0.57023   0.00000  Uiso   1.00
O652   O     0.56108   0.20487   0.50000   0.00000  Uiso   1.00
O653   O     0.43892   0.12846   0.50000   0.00000  Uiso   1.00
O654   O     0.50000   0.20488   0.42845   0.00000  Uiso   1.00
O655   O     0.50000   0.12845   0.57155   0.00000  Uiso   1.00
O656   O     0.50000   0.20488   0.57155   0.00000  Uiso   1.00
O657   O     0.50000   0.12845   0.42845   0.00000  Uiso   1.00
O658   O     0.38259   0.05396   0.52938   0.00000  Uiso   1.00
Zn659  Zn    0.50000   0.21771   0.50000   0.00000  Uiso   1.00
Zn660  Zn    0.50000   0.11563   0.50000   0.00000  Uiso   1.00
C661   C     0.75346   0.16755   0.50455   0.00000  Uiso   1.00
C662   C     0.68523   0.20914   0.49655   0.00000  Uiso   1.00
C663   C     0.95767   0.16428   0.48816   0.00000  Uiso   1.00
C664   C     0.70868   0.16939   0.51009   0.00000  Uiso   1.00
C665   C     0.85265   0.02300   0.53881   0.00000  Uiso   1.00
C666   C     0.81423   0.31036   0.46102   0.00000  Uiso   1.00
C667   C     0.81357   0.02495   0.46158   0.00000  Uiso   1.00
C668   C     0.85307   0.30842   0.53845   0.00000  Uiso   1.00
C669   C     0.71189   0.09150   0.54708   0.00000  Uiso   1.00
C670   C     0.95365   0.24324   0.45361   0.00000  Uiso   1.00
C671   C     0.96380   0.07931   0.49157   0.00000  Uiso   1.00
C672   C     0.91307   0.16586   0.49487   0.00000  Uiso   1.00
C673   C     0.70263   0.25461   0.50318   0.00000  Uiso   1.00
C674   C     0.87217   0.04598   0.58242   0.00000  Uiso   1.00
C675   C     0.79533   0.28747   0.41690   0.00000  Uiso   1.00
C676   C     0.78901   0.05021   0.42194   0.00000  Uiso   1.00
C677   C     0.87721   0.28321   0.57848   0.00000  Uiso   1.00
C678   C     0.83315   0.16675   0.40630   0.00000  Uiso   1.00
C679   C     0.83353   0.16659   0.59370   0.00000  Uiso   1.00
C680   C     0.83328   0.16678   0.35515   0.00000  Uiso   1.00
C681   C     0.83341   0.16656   0.64485   0.00000  Uiso   1.00
C682   C     0.68921   0.12841   0.51791   0.00000  Uiso   1.00
C683   C     0.97699   0.20538   0.48051   0.00000  Uiso   1.00
C684   C     0.98119   0.12449   0.50089   0.00000  Uiso   1.00
H685   H     0.74655   0.07398   0.60974   0.00000  Uiso   1.00
H686   H     0.91747   0.26289   0.39294   0.00000  Uiso   1.00
H687   H     0.93129   0.03972   0.44381   0.00000  Uiso   1.00
H688   H     0.71135   0.31592   0.47381   0.00000  Uiso   1.00
H689   H     0.87358   0.05625   0.65710   0.00000  Uiso   1.00
H690   H     0.79354   0.27905   0.34195   0.00000  Uiso   1.00
H691   H     0.73471   0.08206   0.40045   0.00000  Uiso   1.00
H692   H     0.93100   0.25065   0.60061   0.00000  Uiso   1.00
N693   N     0.83333   0.28573   0.50000   0.00000  Uiso   1.00
N694   N     0.83333   0.04760   0.50000   0.00000  Uiso   1.00
O695   O     0.77226   0.20487   0.50000   0.00000  Uiso   1.00
O696   O     0.73092   0.10104   0.59391   0.00000  Uiso   1.00
O697   O     0.95028   0.28018   0.47305   0.00000  Uiso   1.00
O698   O     0.93339   0.23531   0.40706   0.00000  Uiso   1.00
O699   O     0.96797   0.04954   0.52329   0.00000  Uiso   1.00
O700   O     0.94229   0.07117   0.44581   0.00000  Uiso   1.00
O701   O     0.72052   0.26417   0.54306   0.00000  Uiso   1.00
O702   O     0.69803   0.28658   0.46459   0.00000  Uiso   1.00
O703   O     0.90113   0.07059   0.57704   0.00000  Uiso   1.00
O704   O     0.85759   0.03903   0.63018   0.00000  Uiso   1.00
O705   O     0.76767   0.26114   0.42184   0.00000  Uiso   1.00
O706   O     0.89441   0.12846   0.50000   0.00000  Uiso   1.00
O707   O     0.80911   0.29633   0.36917   0.00000  Uiso   1.00
O708   O     0.80335   0.05565   0.38090   0.00000  Uiso   1.00
O709   O     0.74859   0.06567   0.43055   0.00000  Uiso   1.00
O710   O     0.86269   0.27853   0.61953   0.00000  Uiso   1.00
O711   O     0.91745   0.26693   0.57023   0.00000  Uiso   1.00
O712   O     0.89441   0.20487   0.50000   0.00000  Uiso   1.00
O713   O     0.77226   0.12846   0.50000   0.00000  Uiso   1.00
O714   O     0.83334   0.20488   0.42845   0.00000  Uiso   1.00
O715   O     0.83333   0.12845   0.57155   0.00000  Uiso   1.00
O716   O     0.83333   0.20488   0.57155   0.00000  Uiso   1.00
O717   O     0.83334   0.12845   0.42845   0.00000  Uiso   1.00
O718   O     0.71592   0.05396   0.52938   0.00000  Uiso   1.00
Zn719  Zn    0.83333   0.21771   0.50000   0.00000  Uiso   1.00
Zn720  Zn    0.83333   0.11563   0.50000   0.00000  Uiso   1.00
C721   C     0.08679   0.50088   0.50455   0.00000  Uiso   1.00
C722   C     0.01856   0.54248   0.49655   0.00000  Uiso   1.00
C723   C     0.29101   0.49761   0.48816   0.00000  Uiso   1.00
C724   C     0.04201   0.50272   0.51009   0.00000  Uiso   1.00
C725   C     0.18598   0.35633   0.53881   0.00000  Uiso   1.00
C726   C     0.14757   0.64369   0.46102   0.00000  Uiso   1.00
C727   C     0.14690   0.35828   0.46158   0.00000  Uiso   1.00
C728   C     0.18640   0.64175   0.53845   0.00000  Uiso   1.00
C729   C     0.04523   0.42483   0.54708   0.00000  Uiso   1.00
C730   C     0.28699   0.57657   0.45361   0.00000  Uiso   1.00
C731   C     0.29714   0.41264   0.49157   0.00000  Uiso   1.00
C732   C     0.24641   0.49919   0.49487   0.00000  Uiso   1.00
C733   C     0.03597   0.58794   0.50318   0.00000  Uiso   1.00
C734   C     0.20550   0.37931   0.58242   0.00000  Uiso   1.00
C735   C     0.12867   0.62081   0.41690   0.00000  Uiso   1.00
C736   C     0.12235   0.38355   0.42194   0.00000  Uiso   1.00
C737   C     0.21054   0.61654   0.57848   0.00000  Uiso   1.00
C738   C     0.16648   0.50008   0.40630   0.00000  Uiso   1.00
C739   C     0.16687   0.49992   0.59370   0.00000  Uiso   1.00
C740   C     0.16661   0.50011   0.35515   0.00000  Uiso   1.00
C741   C     0.16674   0.49989   0.64485   0.00000  Uiso   1.00
C742   C     0.02255   0.46175   0.51791   0.00000  Uiso   1.00
C743   C     0.31033   0.53871   0.48051   0.00000  Uiso   1.00
C744   C     0.31452   0.45783   0.50089   0.00000  Uiso   1.00
H745   H     0.07988   0.40732   0.60974   0.00000  Uiso   1.00
H746   H     0.25080   0.59623   0.39294   0.00000  Uiso   1.00
H747   H     0.26462   0.37305   0.44381   0.00000  Uiso   1.00
H748   H     0.04469   0.64925   0.47381   0.00000  Uiso   1.00
H749   H     0.20692   0.38958   0.65710   0.00000  Uiso   1.00
H750   H     0.12688   0.61238   0.34195   0.00000  Uiso   1.00
H751   H     0.06805   0.41539   0.40045   0.00000  Uiso   1.00
H752   H     0.26433   0.58398   0.60061   0.00000  Uiso   1.00
N753   N     0.16667   0.61907   0.50000   0.00000  Uiso   1.00
N754   N     0.16667   0.38093   0.50000   0.00000  Uiso   1.00
O755   O     0.10559   0.53821   0.50000   0.00000  Uiso   1.00
O756   O     0.06426   0.43438   0.59391   0.00000  Uiso   1.00
O757   O     0.28361   0.61351   0.47305   0.00000  Uiso   1.00
O758   O     0.26672   0.56864   0.40706   0.00000  Uiso   1.00
O759   O     0.30131   0.38287   0.52329   0.00000  Uiso   1.00
O760   O     0.27563   0.40450   0.44581   0.00000  Uiso   1.00
O761   O     0.05385   0.59750   0.54306   0.00000  Uiso   1.00
O762   O     0.03136   0.61992   0.46459   0.00000  Uiso   1.00
O763   O     0.23446   0.40392   0.57704   0.00000  Uiso   1.00
O764   O     0.19092   0.37236   0.63018   0.00000  Uiso   1.00
O765   O     0.10100   0.59447   0.42184   0.00000  Uiso   1.00
O766   O     0.22774   0.46179   0.50000   0.00000  Uiso   1.00
O767   O     0.14244   0.62966   0.36917   0.00000  Uiso   1.00
O768   O     0.13668   0.38899   0.38090   0.00000  Uiso   1.00
O769   O     0.08192   0.39900   0.43055   0.00000  Uiso   1.00
O770   O     0.19603   0.61186   0.61953   0.00000  Uiso   1.00
O771   O     0.25078   0.60026   0.57023   0.00000  Uiso   1.00
O772   O     0.22774   0.53821   0.50000   0.00000  Uiso   1.00
O773   O     0.10559   0.46179   0.50000   0.00000  Uiso   1.00
O774   O     0.16667   0.53821   0.42845   0.00000  Uiso   1.00
O775   O     0.16666   0.46179   0.57155   0.00000  Uiso   1.00
O776   O     0.16666   0.53821   0.57155   0.00000  Uiso   1.00
O777   O     0.16667   0.46179   0.42845   0.00000  Uiso   1.00
O778   O     0.04926   0.38729   0.52938   0.00000  Uiso   1.00
Zn779  Zn    0.16667   0.55104   0.50000   0.00000  Uiso   1.00
Zn780  Zn    0.16667   0.44896   0.50000   0.00000  Uiso   1.00
C781   C     0.42013   0.50088   0.50455   0.00000  Uiso   1.00
C782   C     0.35190   0.54248   0.49655   0.00000  Uiso   1.00
C783   C     0.62434   0.49761   0.48816   0.00000  Uiso   1.00
C784   C     0.37534   0.50272   0.51009   0.00000  Uiso   1.00
C785   C     0.51931   0.35633   0.53881   0.00000  Uiso   1.00
C786   C     0.48090   0.64369   0.46102   0.00000  Uiso   1.00
C787   C     0.48024   0.35828   0.46158   0.00000  Uiso   1.00
C788   C     0.51974   0.64175   0.53845   0.00000  Uiso   1.00
C789   C     0.37856   0.42483   0.54708   0.00000  Uiso   1.00
C790   C     0.62032   0.57657   0.45361   0.00000  Uiso   1.00
C791   C     0.63047   0.41264   0.49157   0.00000  Uiso   1.00
C792   C     0.57974   0.49919   0.49487   0.00000  Uiso   1.00
C793   C     0.36930   0.58794   0.50318   0.00000  Uiso   1.00
C794   C     0.53883   0.37931   0.58242   0.00000  Uiso   1.00
C795   C     0.46200   0.62081   0.41690   0.00000  Uiso   1.00
C796   C     0.45568   0.38355   0.42194   0.00000  Uiso   1.00
C797   C     0.54387   0.61654   0.57848   0.00000  Uiso   1.00
C798   C     0.49981   0.50008   0.40630   0.00000  Uiso   1.00
C799   C     0.50020   0.49992   0.59370   0.00000  Uiso   1.00
C800   C     0.49994   0.50011   0.35515   0.00000  Uiso   1.00
C801   C     0.50008   0.49989   0.64485   0.00000  Uiso   1.00
C802   C     0.35588   0.46175   0.51791   0.00000  Uiso   1.00
C803   C     0.64366   0.53871   0.48051   0.00000  Uiso   1.00
C804   C     0.64785   0.45783   0.50089   0.00000  Uiso   1.00
H805   H     0.41321   0.40732   0.60974   0.00000  Uiso   1.00
H806   H     0.58413   0.59623   0.39294   0.00000  Uiso   1.00
H807   H     0.59795   0.37305   0.44381   0.00000  Uiso   1.00
H808   H     0.37802   0.64925   0.47381   0.00000  Uiso   1.00
H809   H     0.54025   0.38958   0.65710   0.00000  Uiso   1.00
H810   H     0.46021   0.61238   0.34195   0.00000  Uiso   1.00
H811   H     0.40138   0.41539   0.40045   0.00000  Uiso   1.00
H812   H     0.59767   0.58398   0.60061   0.00000  Uiso   1.00
N813   N     0.50000   0.61907   0.50000   0.00000  Uiso   1.00
N814   N     0.50000   0.38093   0.50000   0.00000  Uiso   1.00
O815   O     0.43892   0.53821   0.50000   0.00000  Uiso   1.00
O816   O     0.39759   0.43438   0.59391   0.00000  Uiso   1.00
O817   O     0.61695   0.61351   0.47305   0.00000  Uiso   1.00
O818   O     0.60006   0.56864   0.40706   0.00000  Uiso   1.00
O819   O     0.63464   0.38287   0.52329   0.00000  Uiso   1.00
O820   O     0.60896   0.40450   0.44581   0.00000  Uiso   1.00
O821   O     0.38718   0.59750   0.54306   0.00000  Uiso   1.00
O822   O     0.36470   0.61992   0.46459   0.00000  Uiso   1.00
O823   O     0.56779   0.40392   0.57704   0.00000  Uiso   1.00
O824   O     0.52425   0.37236   0.63018   0.00000  Uiso   1.00
O825   O     0.43434   0.59447   0.42184   0.00000  Uiso   1.00
O826   O     0.56108   0.46179   0.50000   0.00000  Uiso   1.00
O827   O     0.47578   0.62966   0.36917   0.00000  Uiso   1.00
O828   O     0.47001   0.38899   0.38090   0.00000  Uiso   1.00
O829   O     0.41526   0.39900   0.43055   0.00000  Uiso   1.00
O830   O     0.52936   0.61186   0.61953   0.00000  Uiso   1.00
O831   O     0.58411   0.60026   0.57023   0.00000  Uiso   1.00
O832   O     0.56108   0.53821   0.50000   0.00000  Uiso   1.00
O833   O     0.43892   0.46179   0.50000   0.00000  Uiso   1.00
O834   O     0.50000   0.53821   0.42845   0.00000  Uiso   1.00
O835   O     0.50000   0.46179   0.57155   0.00000  Uiso   1.00
O836   O     0.50000   0.53821   0.57155   0.00000  Uiso   1.00
O837   O     0.50000   0.46179   0.42845   0.00000  Uiso   1.00
O838   O     0.38259   0.38729   0.52938   0.00000  Uiso   1.00
Zn839  Zn    0.50000   0.55104   0.50000   0.00000  Uiso   1.00
Zn840  Zn    0.50000   0.44896   0.50000   0.00000  Uiso   1.00
C841   C     0.75346   0.50088   0.50455   0.00000  Uiso   1.00
C842   C     0.68523   0.54248   0.49655   0.00000  Uiso   1.00
C843   C     0.95767   0.49761   0.48816   0.00000  Uiso   1.00
C844   C     0.70868   0.50272   0.51009   0.00000  Uiso   1.00
C845   C     0.85265   0.35633   0.53881   0.00000  Uiso   1.00
C846   C     0.81423   0.64369   0.46102   0.00000  Uiso   1.00
C847   C     0.81357   0.35828   0.46158   0.00000  Uiso   1.00
C848   C     0.85307   0.64175   0.53845   0.00000  Uiso   1.00
C849   C     0.71189   0.42483   0.54708   0.00000  Uiso   1.00
C850   C     0.95365   0.57657   0.45361   0.00000  Uiso   1.00
C851   C     0.96380   0.41264   0.49157   0.00000  Uiso   1.00
C852   C     0.91307   0.49919   0.49487   0.00000  Uiso   1.00
C853   C     0.70263   0.58794   0.50318   0.00000  Uiso   1.00
C854   C     0.87217   0.37931   0.58242   0.00000  Uiso   1.00
C855   C     0.79533   0.62081   0.41690   0.00000  Uiso   1.00
C856   C     0.78901   0.38355   0.42194   0.00000  Uiso   1.00
C857   C     0.87721   0.61654   0.57848   0.00000  Uiso   1.00
C858   C     0.83315   0.50008   0.40630   0.00000  Uiso   1.00
C859   C     0.83353   0.49992   0.59370   0.00000  Uiso   1.00
C860   C     0.83328   0.50011   0.35515   0.00000  Uiso   1.00
C861   C     0.83341   0.49989   0.64485   0.00000  Uiso   1.00
C862   C     0.68921   0.46175   0.51791   0.00000  Uiso   1.00
C863   C     0.97699   0.53871   0.48051   0.00000  Uiso   1.00
C864   C     0.98119   0.45783   0.50089   0.00000  Uiso   1.00
H865   H     0.74655   0.40732   0.60974   0.00000  Uiso   1.00
H866   H     0.91747   0.59623   0.39294   0.00000  Uiso   1.00
H867   H     0.93129   0.37305   0.44381   0.00000  Uiso   1.00
H868   H     0.71135   0.64925   0.47381   0.00000  Uiso   1.00
H869   H     0.87358   0.38958   0.65710   0.00000  Uiso   1.00
H870   H     0.79354   0.61238   0.34195   0.00000  Uiso   1.00
H871   H     0.73471   0.41539   0.40045   0.00000  Uiso   1.00
H872   H     0.93100   0.58398   0.60061   0.00000  Uiso   1.00
N873   N     0.83333   0.61907   0.50000   0.00000  Uiso   1.00
N874   N     0.83333   0.38093   0.50000   0.00000  Uiso   1.00
O875   O     0.77226   0.53821   0.50000   0.00000  Uiso   1.00
O876   O     0.73092   0.43438   0.59391   0.00000  Uiso   1.00
O877   O     0.95028   0.61351   0.47305   0.00000  Uiso   1.00
O878   O     0.93339   0.56864   0.40706   0.00000  Uiso   1.00
O879   O     0.96797   0.38287   0.52329   0.00000  Uiso   1.00
O880   O     0.94229   0.40450   0.44581   0.00000  Uiso   1.00
O881   O     0.72052   0.59750   0.54306   0.00000  Uiso   1.00
O882   O     0.69803   0.61992   0.46459   0.00000  Uiso   1.00
O883   O     0.90113   0.40392   0.57704   0.00000  Uiso   1.00
O884   O     0.85759   0.37236   0.63018   0.00000  Uiso   1.00
O885   O     0.76767   0.59447   0.42184   0.00000  Uiso   1.00
O886   O     0.89441   0.46179   0.50000   0.00000  Uiso   1.00
O887   O     0.80911   0.62966   0.36917   0.00000  Uiso   1.00
O888   O     0.80335   0.38899   0.38090   0.00000  Uiso   1.00
O889   O     0.74859   0.39900   0.43055   0.00000  Uiso   1.00
O890   O     0.86269   0.61186   0.61953   0.00000  Uiso   1.00
O891   O     0.91745   0.60026   0.57023   0.00000  Uiso   1.00
O892   O     0.89441   0.53821   0.50000   0.00000  Uiso   1.00
O893   O     0.77226   0.46179   0.50000   0.00000  Uiso   1.00
O894   O     0.83334   0.53821   0.42845   0.00000  Uiso   1.00
O895   O     0.83333   0.46179   0.57155   0.00000  Uiso   1.00
O896   O     0.83333   0.53821   0.57155   0.00000  Uiso   1.00
O897   O     0.83334   0.46179   0.42845   0.00000  Uiso   1.00
O898   O     0.71592   0.38729   0.52938   0.00000  Uiso   1.00
Zn899  Zn    0.83333   0.55104   0.50000   0.00000  Uiso   1.00
Zn900  Zn    0.83333   0.44896   0.50000   0.00000  Uiso   1.00
C901   C     0.08679   0.83422   0.50455   0.00000  Uiso   1.00
C902   C     0.01856   0.87581   0.49655   0.00000  Uiso   1.00
C903   C     0.29101   0.83094   0.48816   0.00000  Uiso   1.00
C904   C     0.04201   0.83605   0.51009   0.00000  Uiso   1.00
C905   C     0.18598   0.68966   0.53881   0.00000  Uiso   1.00
C906   C     0.14757   0.97703   0.46102   0.00000  Uiso   1.00
C907   C     0.14690   0.69161   0.46158   0.00000  Uiso   1.00
C908   C     0.18640   0.97508   0.53845   0.00000  Uiso   1.00
C909   C     0.04523   0.75817   0.54708   0.00000  Uiso   1.00
C910   C     0.28699   0.90990   0.45361   0.00000  Uiso   1.00
C911   C     0.29714   0.74597   0.49157   0.00000  Uiso   1.00
C912   C     0.24641   0.83252   0.49487   0.00000  Uiso   1.00
C913   C     0.03597   0.92128   0.50318   0.00000  Uiso   1.00
C914   C     0.20550   0.71264   0.58242   0.00000  Uiso   1.00
C915   C     0.12867   0.95414   0.41690   0.00000  Uiso   1.00
C916   C     0.12235   0.71688   0.42194   0.00000  Uiso   1.00
C917   C     0.21054   0.94987   0.57848   0.00000  Uiso   1.00
C918   C     0.16648   0.83341   0.40630   0.00000  Uiso   1.00
C919   C     0.16687   0.83325   0.59370   0.00000  Uiso   1.00
C920   C     0.16661   0.83344   0.35515   0.00000  Uiso   1.00
C921   C     0.16674   0.83322   0.64485   0.00000  Uiso   1.00
C922   C     0.02255   0.79508   0.51791   0.00000  Uiso   1.00
C923   C     0.31033   0.87205   0.48051   0.00000  Uiso   1.00
C924   C     0.31452   0.79116   0.50089   0.00000  Uiso   1.00
H925   H     0.07988   0.74065   0.60974   0.00000  Uiso   1.00
H926   H     0.25080   0.92956   0.39294   0.00000  Uiso   1.00
H927   H     0.26462   0.70639   0.44381   0.00000  Uiso   1.00
H928   H     0.04469   0.98258   0.47381   0.00000  Uiso   1.00
H929   H     0.20692   0.72291   0.65710   0.00000  Uiso   1.00
H930   H     0.12688   0.94571   0.34195   0.00000  Uiso   1.00
H931   H     0.06805   0.74873   0.40045   0.00000  Uiso   1.00
H932   H     0.26433   0.91731   0.60061   0.00000  Uiso   1.00
N933   N     0.16667   0.95240   0.50000   0.00000  Uiso   1.00
N934   N     0.16667   0.71427   0.50000   0.00000  Uiso   1.00
O935   O     0.10559   0.87154   0.50000   0.00000  Uiso   1.00
O936   O     0.06426   0.76771   0.59391   0.00000  Uiso   1.00
O937   O     0.28361   0.94685   0.47305   0.00000  Uiso   1.00
O938   O     0.26672   0.90197   0.40706   0.00000  Uiso   1.00
O939   O     0.30131   0.71620   0.52329   0.00000  Uiso   1.00
O940   O     0.27563   0.73784   0.44581   0.00000  Uiso   1.00
O941   O     0.05385   0.93083   0.54306   0.00000  Uiso   1.00
O942   O     0.03136   0.95325   0.46459   0.00000  Uiso   1.00
O943   O     0.23446   0.73725   0.57704   0.00000  Uiso   1.00
O944   O     0.19092   0.70569   0.63018   0.00000  Uiso   1.00
O945   O     0.10100   0.92780   0.42184   0.00000  Uiso   1.00
O946   O     0.22774   0.79513   0.50000   0.00000  Uiso   1.00
O947   O     0.14244   0.96300   0.36917   0.00000  Uiso   1.00
O948   O     0.13668   0.72232   0.38090   0.00000  Uiso   1.00
O949   O     0.08192   0.73234   0.43055   0.00000  Uiso   1.00
O950   O     0.19603   0.94520   0.61953   0.00000  Uiso   1.00
O951   O     0.25078   0.93360   0.57023   0.00000  Uiso   1.00
O952   O     0.22774   0.87154   0.50000   0.00000  Uiso   1.00
O953   O     0.10559   0.79513   0.50000   0.00000  Uiso   1.00
O954   O     0.16667   0.87155   0.42845   0.00000  Uiso   1.00
O955   O     0.16666   0.79512   0.57155   0.00000  Uiso   1.00
O956   O     0.16666   0.87155   0.57155   0.00000  Uiso   1.00
O957   O     0.16667   0.79512   0.42845   0.00000  Uiso   1.00
O958   O     0.04926   0.72062   0.52938   0.00000  Uiso   1.00
Zn959  Zn    0.16667   0.88437   0.50000   0.00000  Uiso   1.00
Zn960  Zn    0.16667   0.78229   0.50000   0.00000  Uiso   1.00
C961   C     0.42013   0.83422   0.50455   0.00000  Uiso   1.00
C962   C     0.35190   0.87581   0.49655   0.00000  Uiso   1.00
C963   C     0.62434   0.83094   0.48816   0.00000  Uiso   1.00
C964   C     0.37534   0.83605   0.51009   0.00000  Uiso   1.00
C965   C     0.51931   0.68966   0.53881   0.00000  Uiso   1.00
C966   C     0.48090   0.97703   0.46102   0.00000  Uiso   1.00
C967   C     0.48024   0.69161   0.46158   0.00000  Uiso   1.00
C968   C     0.51974   0.97508   0.53845   0.00000  Uiso   1.00
C969   C     0.37856   0.75817   0.54708   0.00000  Uiso   1.00
C970   C     0.62032   0.90990   0.45361   0.00000  Uiso   1.00
C971   C     0.63047   0.74597   0.49157   0.00000  Uiso   1.00
C972   C     0.57974   0.83252   0.49487   0.00000  Uiso   1.00
C973   C     0.36930   0.92128   0.50318   0.00000  Uiso   1.00
C974   C     0.53883   0.71264   0.58242   0.00000  Uiso   1.00
C975   C     0.46200   0.95414   0.41690   0.00000  Uiso   1.00
C976   C     0.45568   0.71688   0.42194   0.00000  Uiso   1.00
C977   C     0.54387   0.94987   0.57848   0.00000  Uiso   1.00
C978   C     0.49981   0.83341   0.40630   0.00000  Uiso   1.00
C979   C     0.50020   0.83325   0.59370   0.00000  Uiso   1.00
C980   C     0.49994   0.83344   0.35515   0.00000  Uiso   1.00
C981   C     0.50008   0.83322   0.64485   0.00000  Uiso   1.00
C982   C     0.35588   0.79508   0.51791   0.00000  Uiso   1.00
C983   C     0.64366   0.87205   0.48051   0.00000  Uiso   1.00
C984   C     0.64785   0.79116   0.50089   0.00000  Uiso   1.00
H985   H     0.41321   0.74065   0.60974   0.00000  Uiso   1.00
H986   H     0.58413   0.92956   0.39294   0.00000  Uiso   1.00
H987   H     0.59795   0.70639   0.44381   0.00000  Uiso   1.00
H988   H     0.37802   0.98258   0.47381   0.00000  Uiso   1.00
H989   H     0.54025   0.72291   0.65710   0.00000  Uiso   1.00
H990   H     0.46021   0.94571   0.34195   0.00000  Uiso   1.00
H991   H     0.40138   0.74873   0.40045   0.00000  Uiso   1.00
H992   H     0.59767   0.91731   0.60061   0.00000  Uiso   1.00
N993   N     0.50000   0.95240   0.50000   0.00000  Uiso   1.00
N994   N     0.50000   0.71427   0.50000   0.00000  Uiso   1.00
O995   O     0.43892   0.87154   0.50000   0.00000  Uiso   1.00
O996   O     0.39759   0.76771   0.59391   0.00000  Uiso   1.00
O997   O     0.61695   0.94685   0.47305   0.00000  Uiso   1.00
O998   O     0.60006   0.90197   0.40706   0.00000  Uiso   1.00
O999   O     0.63464   0.71620   0.52329   0.00000  Uiso   1.00
O1000  O     0.60896   0.73784   0.44581   0.00000  Uiso   1.00
O1001  O     0.38718   0.93083   0.54306   0.00000  Uiso   1.00
O1002  O     0.36470   0.95325   0.46459   0.00000  Uiso   1.00
O1003  O     0.56779   0.73725   0.57704   0.00000  Uiso   1.00
O1004  O     0.52425   0.70569   0.63018   0.00000  Uiso   1.00
O1005  O     0.43434   0.92780   0.42184   0.00000  Uiso   1.00
O1006  O     0.56108   0.79513   0.50000   0.00000  Uiso   1.00
O1007  O     0.47578   0.96300   0.36917   0.00000  Uiso   1.00
O1008  O     0.47001   0.72232   0.38090   0.00000  Uiso   1.00
O1009  O     0.41526   0.73234   0.43055   0.00000  Uiso   1.00
O1010  O     0.52936   0.94520   0.61953   0.00000  Uiso   1.00
O1011  O     0.58411   0.93360   0.57023   0.00000  Uiso   1.00
O1012  O     0.56108   0.87154   0.50000   0.00000  Uiso   1.00
O1013  O     0.43892   0.79513   0.50000   0.00000  Uiso   1.00
O1014  O     0.50000   0.87155   0.42845   0.00000  Uiso   1.00
O1015  O     0.50000   0.79512   0.57155   0.00000  Uiso   1.00
O1016  O     0.50000   0.87155   0.57155   0.00000  Uiso   1.00
O1017  O     0.50000   0.79512   0.42845   0.00000  Uiso   1.00
O1018  O     0.38259   0.72062   0.52938   0.00000  Uiso   1.00
Zn1019 Zn    0.50000   0.88437   0.50000   0.00000  Uiso   1.00
Zn1020 Zn    0.50000   0.78229   0.50000   0.00000  Uiso   1.00
C1021  C     0.75346   0.83422   0.50455   0.00000  Uiso   1.00
C1022  C     0.68523   0.87581   0.49655   0.00000  Uiso   1.00
C1023  C     0.95767   0.83094   0.48816   0.00000  Uiso   1.00
C1024  C     0.70868   0.83605   0.51009   0.00000  Uiso   1.00
C1025  C     0.85265   0.68966   0.53881   0.00000  Uiso   1.00
C1026  C     0.81423   0.97703   0.46102   0.00000  Uiso   1.00
C1027  C     0.81357   0.69161   0.46158   0.00000  Uiso   1.00
C1028  C     0.85307   0.97508   0.53845   0.00000  Uiso   1.00
C1029  C     0.71189   0.75817   0.54708   0.00000  Uiso   1.00
C1030  C     0.95365   0.90990   0.45361   0.00000  Uiso   1.00
C1031  C     0.96380   0.74597   0.49157   0.00000  Uiso   1.00
C1032  C     0.91307   0.83252   0.49487   0.00000  Uiso   1.00
C1033  C     0.70263   0.92128   0.50318   0.00000  Uiso   1.00
C1034  C     0.87217   0.71264   0.58242   0.00000  Uiso   1.00
C1035  C     0.79533   0.95414   0.41690   0.00000  Uiso   1.00
C1036  C     0.78901   0.71688   0.42194   0.00000  Uiso   1.00
C1037  C     0.87721   0.94987   0.57848   0.00000  Uiso   1.00
C1038  C     0.83315   0.83341   0.40630   0.00000  Uiso   1.00
C1039  C     0.83353   0.83325   0.59370   0.00000  Uiso   1.00
C1040  C     0.83328   0.83344   0.35515   0.00000  Uiso   1.00
C1041  C     0.83341   0.83322   0.64485   0.00000  Uiso   1.00
C1042  C     0.68921   0.79508   0.51791   0.00000  Uiso   1.00
C1043  C     0.97699   0.87205   0.48051   0.00000  Uiso   1.00
C1044  C     0.98119   0.79116   0.50089   0.00000  Uiso   1.00
H1045  H     0.74655   0.74065   0.60974   0.00000  Uiso   1.00
H1046  H     0.91747   0.92956   0.39294   0.00000  Uiso   1.00
H1047  H     0.93129   0.70639   0.44381   0.00000  Uiso   1.00
H1048  H     0.71135   0.98258   0.47381   0.00000  Uiso   1.00
H1049  H     0.87358   0.72291   0.65710   0.00000  Uiso   1.00
H1050  H     0.79354   0.94571   0.34195   0.00000  Uiso   1.00
H1051  H     0.73471   0.74873   0.40045   0.00000  Uiso   1.00
H1052  H     0.93100   0.91731   0.60061   0.00000  Uiso   1.00
N1053  N     0.83333   0.95240   0.50000   0.00000  Uiso   1.00
N1054  N     0.83333   0.71427   0.50000   0.00000  Uiso   1.00
O1055  O     0.77226   0.87154   0.50000   0.00000  Uiso   1.00
O1056  O     0.73092   0.76771   0.59391   0.00000  Uiso   1.00
O1057  O     0.95028   0.94685   0.47305   0.00000  Uiso   1.00
O1058  O     0.93339   0.90197   0.40706   0.00000  Uiso   1.00
O1059  O     0.96797   0.71620   0.52329   0.00000  Uiso   1.00
O1060  O     0.94229   0.73784   0.44581   0.00000  Uiso   1.00
O1061  O     0.72052   0.93083   0.54306   0.00000  Uiso   1.00
O1062  O     0.69803   0.95325   0.46459   0.00000  Uiso   1.00
O1063  O     0.90113   0.73725   0.57704   0.00000  Uiso   1.00
O1064  O     0.85759   0.70569   0.63018   0.00000  Uiso   1.00
O1065  O     0.76767   0.92780   0.42184   0.00000  Uiso   1.00
O1066  O     0.89441   0.79513   0.50000   0.00000  Uiso   1.00
O1067  O     0.80911   0.96300   0.36917   0.00000  Uiso   1.00
O1068  O     0.80335   0.72232   0.38090   0.00000  Uiso   1.00
O1069  O     0.74859   0.73234   0.43055   0.00000  Uiso   1.00
O1070  O     0.86269   0.94520   0.61953   0.00000  Uiso   1.00
O1071  O     0.91745   0.93360   0.57023   0.00000  Uiso   1.00
O1072  O     0.89441   0.87154   0.50000   0.00000  Uiso   1.00
O1073  O     0.77226   0.79513   0.50000   0.00000  Uiso   1.00
O1074  O     0.83334   0.87155   0.42845   0.00000  Uiso   1.00
O1075  O     0.83333   0.79512   0.57155   0.00000  Uiso   1.00
O1076  O     0.83333   0.87155   0.57155   0.00000  Uiso   1.00
O1077  O     0.83334   0.79512   0.42845   0.00000  Uiso   1.00
O1078  O     0.71592   0.72062   0.52938   0.00000  Uiso   1.00
Zn1079 Zn    0.83333   0.88437   0.50000   0.00000  Uiso   1.00
Zn1080 Zn    0.83333   0.78229   0.50000   0.00000  Uiso   1.00
C1081  C     0.08679   0.16755   0.83789   0.00000  Uiso   1.00
C1082  C     0.01856   0.20914   0.82988   0.00000  Uiso   1.00
C1083  C     0.29101   0.16428   0.82149   0.00000  Uiso   1.00
C1084  C     0.04201   0.16939   0.84343   0.00000  Uiso   1.00
C1085  C     0.18598   0.02300   0.87214   0.00000  Uiso   1.00
C1086  C     0.14757   0.31036   0.79435   0.00000  Uiso   1.00
C1087  C     0.14690   0.02495   0.79491   0.00000  Uiso   1.00
C1088  C     0.18640   0.30842   0.87178   0.00000  Uiso   1.00
C1089  C     0.04523   0.09150   0.88041   0.00000  Uiso   1.00
C1090  C     0.28699   0.24324   0.78695   0.00000  Uiso   1.00
C1091  C     0.29714   0.07931   0.82490   0.00000  Uiso   1.00
C1092  C     0.24641   0.16586   0.82820   0.00000  Uiso   1.00
C1093  C     0.03597   0.25461   0.83651   0.00000  Uiso   1.00
C1094  C     0.20550   0.04598   0.91575   0.00000  Uiso   1.00
C1095  C     0.12867   0.28747   0.75024   0.00000  Uiso   1.00
C1096  C     0.12235   0.05021   0.75527   0.00000  Uiso   1.00
C1097  C     0.21054   0.28321   0.91181   0.00000  Uiso   1.00
C1098  C     0.16648   0.16675   0.73963   0.00000  Uiso   1.00
C1099  C     0.16687   0.16659   0.92704   0.00000  Uiso   1.00
C1100  C     0.16661   0.16678   0.68849   0.00000  Uiso   1.00
C1101  C     0.16674   0.16656   0.97818   0.00000  Uiso   1.00
C1102  C     0.02255   0.12841   0.85124   0.00000  Uiso   1.00
C1103  C     0.31033   0.20538   0.81385   0.00000  Uiso   1.00
C1104  C     0.31452   0.12449   0.83423   0.00000  Uiso   1.00
H1105  H     0.07988   0.07398   0.94307   0.00000  Uiso   1.00
H1106  H     0.25080   0.26289   0.72627   0.00000  Uiso   1.00
H1107  H     0.26462   0.03972   0.77714   0.00000  Uiso   1.00
H1108  H     0.04469   0.31592   0.80715   0.00000  Uiso   1.00
H1109  H     0.20692   0.05625   0.99043   0.00000  Uiso   1.00
H1110  H     0.12688   0.27905   0.67528   0.00000  Uiso   1.00
H1111  H     0.06805   0.08206   0.73378   0.00000  Uiso   1.00
H1112  H     0.26433   0.25065   0.93394   0.00000  Uiso   1.00
N1113  N     0.16667   0.28573   0.83333   0.00000  Uiso   1.00
N1114  N     0.16667   0.04760   0.83333   0.00000  Uiso   1.00
O1115  O     0.10559   0.20487   0.83333   0.00000  Uiso   1.00
O1116  O     0.06426   0.10104   0.92725   0.00000  Uiso   1.00
O1117  O     0.28361   0.28018   0.80638   0.00000  Uiso   1.00
O1118  O     0.26672   0.23531   0.74039   0.00000  Uiso   1.00
O1119  O     0.30131   0.04954   0.85663   0.00000  Uiso   1.00
O1120  O     0.27563   0.07117   0.77915   0.00000  Uiso   1.00
O1121  O     0.05385   0.26417   0.87639   0.00000  Uiso   1.00
O1122  O     0.03136   0.28658   0.79792   0.00000  Uiso   1.00
O1123  O     0.23446   0.07059   0.91037   0.00000  Uiso   1.00
O1124  O     0.19092   0.03903   0.96352   0.00000  Uiso   1.00
O1125  O     0.10100   0.26114   0.75517   0.00000  Uiso   1.00
O1126  O     0.22774   0.12846   0.83334   0.00000  Uiso   1.00
O1127  O     0.14244   0.29633   0.70250   0.00000  Uiso   1.00
O1128  O     0.13668   0.05565   0.71424   0.00000  Uiso   1.00
O1129  O     0.08192   0.06567   0.76389   0.00000  Uiso   1.00
O1130  O     0.19603   0.27853   0.95286   0.00000  Uiso   1.00
O1131  O     0.25078   0.26693   0.90357   0.00000  Uiso   1.00
O1132  O     0.22774   0.20487   0.83334   0.00000  Uiso   1.00
O1133  O     0.10559   0.12846   0.83333   0.00000  Uiso   1.00
O1134  O     0.16667   0.20488   0.76178   0.00000  Uiso   1.00
O1135  O     0.16666   0.12845   0.90489   0.00000  Uiso   1.00
O1136  O     0.16666   0.20488   0.90489   0.00000  Uiso   1.00
O1137  O     0.16667   0.12845   0.76178   0.00000  Uiso   1.00
O1138  O     0.04926   0.05396   0.86272   0.00000  Uiso   1.00
Zn1139 Zn    0.16667   0.21771   0.83333   0.00000  Uiso   1.00
Zn1140 Zn    0.16667   0.11563   0.83333   0.00000  Uiso   1.00
C1141  C     0.42013   0.16755   0.83789   0.00000  Uiso   1.00
C1142  C     0.35190   0.20914   0.82988   0.00000  Uiso   1.00
C1143  C     0.62434   0.16428   0.82149   0.00000  Uiso   1.00
C1144  C     0.37534   0.16939   0.84343   0.00000  Uiso   1.00
C1145  C     0.51931   0.02300   0.87214   0.00000  Uiso   1.00
C1146  C     0.48090   0.31036   0.79435   0.00000  Uiso   1.00
C1147  C     0.48024   0.02495   0.79491   0.00000  Uiso   1.00
C1148  C     0.51974   0.30842   0.87178   0.00000  Uiso   1.00
C1149  C     0.37856   0.09150   0.88041   0.00000  Uiso   1.00
C1150  C     0.62032   0.24324   0.78695   0.00000  Uiso   1.00
C1151  C     0.63047   0.07931   0.82490   0.00000  Uiso   1.00
C1152  C     0.57974   0.16586   0.82820   0.00000  Uiso   1.00
C1153  C     0.36930   0.25461   0.83651   0.00000  Uiso   1.00
C1154  C     0.53883   0.04598   0.91575   0.00000  Uiso   1.00
C1155  C     0.46200   0.28747   0.75024   0.00000  Uiso   1.00
C1156  C     0.45568   0.05021   0.75527   0.00000  Uiso   1.00
C1157  C     0.54387   0.28321   0.91181   0.00000  Uiso   1.00
C1158  C     0.49981   0.16675   0.73963   0.00000  Uiso   1.00
C1159  C     0.50020   0.16659   0.92704   0.00000  Uiso   1.00
C1160  C     0.49994   0.16678   0.68849   0.00000  Uiso   1.00
C1161  C     0.50008   0.16656   0.97818   0.00000  Uiso   1.00
C1162  C     0.35588   0.12841   0.85124   0.00000  Uiso   1.00
C1163  C     0.64366   0.20538   0.81385   0.00000  Uiso   1.00
C1164  C     0.64785   0.12449   0.83423   0.00000  Uiso   1.00
H1165  H     0.41321   0.07398   0.94307   0.00000  Uiso   1.00
H1166  H     0.58413   0.26289   0.72627   0.00000  Uiso   1.00
H1167  H     0.59795   0.03972   0.77714   0.00000  Uiso   1.00
H1168  H     0.37802   0.31592   0.80715   0.00000  Uiso   1.00
H1169  H     0.54025   0.05625   0.99043   0.00000  Uiso   1.00
H1170  H     0.46021   0.27905   0.67528   0.00000  Uiso   1.00
H1171  H     0.40138   0.08206   0.73378   0.00000  Uiso   1.00
H1172  H     0.59767   0.25065   0.93394   0.00000  Uiso   1.00
N1173  N     0.50000   0.28573   0.83333   0.00000  Uiso   1.00
N1174  N     0.50000   0.04760   0.83333   0.00000  Uiso   1.00
O1175  O     0.43892   0.20487   0.83333   0.00000  Uiso   1.00
O1176  O     0.39759   0.10104   0.92725   0.00000  Uiso   1.00
O1177  O     0.61695   0.28018   0.80638   0.00000  Uiso   1.00
O1178  O     0.60006   0.23531   0.74039   0.00000  Uiso   1.00
O1179  O     0.63464   0.04954   0.85663   0.00000  Uiso   1.00
O1180  O     0.60896   0.07117   0.77915   0.00000  Uiso   1.00
O1181  O     0.38718   0.26417   0.87639   0.00000  Uiso   1.00
O1182  O     0.36470   0.28658   0.79792   0.00000  Uiso   1.00
O1183  O     0.56779   0.07059   0.91037   0.00000  Uiso   1.00
O1184  O     0.52425   0.03903   0.96352   0.00000  Uiso   1.00
O1185  O     0.43434   0.26114   0.75517   0.00000  Uiso   1.00
O1186  O     0.56108   0.12846   0.83334   0.00000  Uiso   1.00
O1187  O     0.47578   0.29633   0.70250   0.00000  Uiso   1.00
O1188  O     0.47001   0.05565   0.71424   0.00000  Uiso   1.00
O1189  O     0.41526   0.06567   0.76389   0.00000  Uiso   1.00
O1190  O     0.52936   0.27853   0.95286   0.00000  Uiso   1.00
O1191  O     0.58411   0.26693   0.90357   0.00000  Uiso   1.00
O1192  O     0.56108   0.20487   0.83334   0.00000  Uiso   1.00
O1193  O     0.43892   0.12846   0.83333   0.00000  Uiso   1.00
O1194  O     0.50000   0.20488   0.76178   0.00000  Uiso   1.00
O1195  O     0.50000   0.12845   0.90489   0.00000  Uiso   1.00
O1196  O     0.50000   0.20488   0.90489   0.00000  Uiso   1.00
O1197  O     0.50000   0.12845   0.76178   0.00000  Uiso   1.00
O1198  O     0.38259   0.05396   0.86272   0.00000  Uiso   1.00
Zn1199 Zn    0.50000   0.21771   0.83333   0.00000  Uiso   1.00
Zn1200 Zn    0.50000   0.11563   0.83333   0.00000  Uiso   1.00
C1201  C     0.75346   0.16755   0.83789   0.00000  Uiso   1.00
C1202  C     0.68523   0.20914   0.82988   0.00000  Uiso   1.00
C1203  C     0.95767   0.16428   0.82149   0.00000  Uiso   1.00
C1204  C     0.70868   0.16939   0.84343   0.00000  Uiso   1.00
C1205  C     0.85265   0.02300   0.87214   0.00000  Uiso   1.00
C1206  C     0.81423   0.31036   0.79435   0.00000  Uiso   1.00
C1207  C     0.81357   0.02495   0.79491   0.00000  Uiso   1.00
C1208  C     0.85307   0.30842   0.87178   0.00000  Uiso   1.00
C1209  C     0.71189   0.09150   0.88041   0.00000  Uiso   1.00
C1210  C     0.95365   0.24324   0.78695   0.00000  Uiso   1.00
C1211  C     0.96380   0.07931   0.82490   0.00000  Uiso   1.00
C1212  C     0.91307   0.16586   0.82820   0.00000  Uiso   1.00
C1213  C     0.70263   0.25461   0.83651   0.00000  Uiso   1.00
C1214  C     0.87217   0.04598   0.91575   0.00000  Uiso   1.00
C1215  C     0.79533   0.28747   0.75024   0.00000  Uiso   1.00
C1216  C     0.78901   0.05021   0.75527   0.00000  Uiso   1.00
C1217  C     0.87721   0.28321   0.91181   0.00000  Uiso   1.00
C1218  C     0.83315   0.16675   0.73963   0.00000  Uiso   1.00
C1219  C     0.83353   0.16659   0.92704   0.00000  Uiso   1.00
C1220  C     0.83328   0.16678   0.68849   0.00000  Uiso   1.00
C1221  C     0.83341   0.16656   0.97818   0.00000  Uiso   1.00
C1222  C     0.68921   0.12841   0.85124   0.00000  Uiso   1.00
C1223  C     0.97699   0.20538   0.81385   0.00000  Uiso   1.00
C1224  C     0.98119   0.12449   0.83423   0.00000  Uiso   1.00
H1225  H     0.74655   0.07398   0.94307   0.00000  Uiso   1.00
H1226  H     0.91747   0.26289   0.72627   0.00000  Uiso   1.00
H1227  H     0.93129   0.03972   0.77714   0.00000  Uiso   1.00
H1228  H     0.71135   0.31592   0.80715   0.00000  Uiso   1.00
H1229  H     0.87358   0.05625   0.99043   0.00000  Uiso   1.00
H1230  H     0.79354   0.27905   0.67528   0.00000  Uiso   1.00
H1231  H     0.73471   0.08206   0.73378   0.00000  Uiso   1.00
H1232  H     0.93100   0.25065   0.93394   0.00000  Uiso   1.00
N1233  N     0.83333   0.28573   0.83333   0.00000  Uiso   1.00
N1234  N     0.83333   0.04760   0.83333   0.00000  Uiso   1.00
O1235  O     0.77226   0.20487   0.83333   0.00000  Uiso   1.00
O1236  O     0.73092   0.10104   0.92725   0.00000  Uiso   1.00
O1237  O     0.95028   0.28018   0.80638   0.00000  Uiso   1.00
O1238  O     0.93339   0.23531   0.74039   0.00000  Uiso   1.00
O1239  O     0.96797   0.04954   0.85663   0.00000  Uiso   1.00
O1240  O     0.94229   0.07117   0.77915   0.00000  Uiso   1.00
O1241  O     0.72052   0.26417   0.87639   0.00000  Uiso   1.00
O1242  O     0.69803   0.28658   0.79792   0.00000  Uiso   1.00
O1243  O     0.90113   0.07059   0.91037   0.00000  Uiso   1.00
O1244  O     0.85759   0.03903   0.96352   0.00000  Uiso   1.00
O1245  O     0.76767   0.26114   0.75517   0.00000  Uiso   1.00
O1246  O     0.89441   0.12846   0.83334   0.00000  Uiso   1.00
O1247  O     0.80911   0.29633   0.70250   0.00000  Uiso   1.00
O1248  O     0.80335   0.05565   0.71424   0.00000  Uiso   1.00
O1249  O     0.74859   0.06567   0.76389   0.00000  Uiso   1.00
O1250  O     0.86269   0.27853   0.95286   0.00000  Uiso   1.00
O1251  O     0.91745   0.26693   0.90357   0.00000  Uiso   1.00
O1252  O     0.89441   0.20487   0.83334   0.00000  Uiso   1.00
O1253  O     0.77226   0.12846   0.83333   0.00000  Uiso   1.00
O1254  O     0.83334   0.20488   0.76178   0.00000  Uiso   1.00
O1255  O     0.83333   0.12845   0.90489   0.00000  Uiso   1.00
O1256  O     0.83333   0.20488   0.90489   0.00000  Uiso   1.00
O1257  O     0.83334   0.12845   0.76178   0.00000  Uiso   1.00
O1258  O     0.71592   0.05396   0.86272   0.00000  Uiso   1.00
Zn1259 Zn    0.83333   0.21771   0.83333   0.00000  Uiso   1.00
Zn1260 Zn    0.83333   0.11563   0.83333   0.00000  Uiso   1.00
C1261  C     0.08679   0.50088   0.83789   0.00000  Uiso   1.00
C1262  C     0.01856   0.54248   0.82988   0.00000  Uiso   1.00
C1263  C     0.29101   0.49761   0.82149   0.00000  Uiso   1.00
C1264  C     0.04201   0.50272   0.84343   0.00000  Uiso   1.00
C1265  C     0.18598   0.35633   0.87214   0.00000  Uiso   1.00
C1266  C     0.14757   0.64369   0.79435   0.00000  Uiso   1.00
C1267  C     0.14690   0.35828   0.79491   0.00000  Uiso   1.00
C1268  C     0.18640   0.64175   0.87178   0.00000  Uiso   1.00
C1269  C     0.04523   0.42483   0.88041   0.00000  Uiso   1.00
C1270  C     0.28699   0.57657   0.78695   0.00000  Uiso   1.00
C1271  C     0.29714   0.41264   0.82490   0.00000  Uiso   1.00
C1272  C     0.24641   0.49919   0.82820   0.00000  Uiso   1.00
C1273  C     0.03597   0.58794   0.83651   0.00000  Uiso   1.00
C1274  C     0.20550   0.37931   0.91575   0.00000  Uiso   1.00
C1275  C     0.12867   0.62081   0.75024   0.00000  Uiso   1.00
C1276  C     0.12235   0.38355   0.75527   0.00000  Uiso   1.00
C1277  C     0.21054   0.61654   0.91181   0.00000  Uiso   1.00
C1278  C     0.16648   0.50008   0.73963   0.00000  Uiso   1.00
C1279  C     0.16687   0.49992   0.92704   0.00000  Uiso   1.00
C1280  C     0.16661   0.50011   0.68849   0.00000  Uiso   1.00
C1281  C     0.16674   0.49989   0.97818   0.00000  Uiso   1.00
C1282  C     0.02255   0.46175   0.85124   0.00000  Uiso   1.00
C1283  C     0.31033   0.53871   0.81385   0.00000  Uiso   1.00
C1284  C     0.31452   0.45783   0.83423   0.00000  Uiso   1.00
H1285  H     0.07988   0.40732   0.94307   0.00000  Uiso   1.00
H1286  H     0.25080   0.59623   0.72627   0.00000  Uiso   1.00
H1287  H     0.26462   0.37305   0.77714   0.00000  Uiso   1.00
H1288  H     0.04469   0.64925   0.80715   0.00000  Uiso   1.00
H1289  H     0.20692   0.38958   0.99043   0.00000  Uiso   1.00
H1290  H     0.12688   0.61238   0.67528   0.00000  Uiso   1.00
H1291  H     0.06805   0.41539   0.73378   0.00000  Uiso   1.00
H1292  H     0.26433   0.58398   0.93394   0.00000  Uiso   1.00
N1293  N     0.16667   0.61907   0.83333   0.00000  Uiso   1.00
N1294  N     0.16667   0.38093   0.83333   0.00000  Uiso   1.00
O1295  O     0.10559   0.53821   0.83333   0.00000  Uiso   1.00
O1296  O     0.06426   0.43438   0.92725   0.00000  Uiso   1.00
O1297  O     0.28361   0.61351   0.80638   0.00000  Uiso   1.00
O1298  O     0.26672   0.56864   0.74039   0.00000  Uiso   1.00
O1299  O     0.30131   0.38287   0.85663   0.00000  Uiso   1.00
O1300  O     0.27563   0.40450   0.77915   0.00000  Uiso   1.00
O1301  O     0.05385   0.59750   0.87639   0.00000  Uiso   1.00
O1302  O     0.03136   0.61992   0.79792   0.00000  Uiso   1.00
O1303  O     0.23446   0.40392   0.91037   0.00000  Uiso   1.00
O1304  O     0.19092   0.37236   0.96352   0.00000  Uiso   1.00
O1305  O     0.10100   0.59447   0.75517   0.00000  Uiso   1.00
O1306  O     0.22774   0.46179   0.83334   0.00000  Uiso   1.00
O1307  O     0.14244   0.62966   0.70250   0.00000  Uiso   1.00
O1308  O     0.13668   0.38899   0.71424   0.00000  Uiso   1.00
O1309  O     0.08192   0.39900   0.76389   0.00000  Uiso   1.00
O1310  O     0.19603   0.61186   0.95286   0.00000  Uiso   1.00
O1311  O     0.25078   0.60026   0.90357   0.00000  Uiso   1.00
O1312  O     0.22774   0.53821   0.83334   0.00000  Uiso   1.00
O1313  O     0.10559   0.46179   0.83333   0.00000  Uiso   1.00
O1314  O     0.16667   0.53821   0.76178   0.00000  Uiso   1.00
O1315  O     0.16666   0.46179   0.90489   0.00000  Uiso   1.00
O1316  O     0.16666   0.53821   0.90489   0.00000  Uiso   1.00
O1317  O     0.16667   0.46179   0.76178   0.00000  Uiso   1.00
O1318  O     0.04926   0.38729   0.86272   0.00000  Uiso   1.00
Zn1319 Zn    0.16667   0.55104   0.83333   0.00000  Uiso   1.00
Zn1320 Zn    0.16667   0.44896   0.83333   0.00000  Uiso   1.00
C1321  C     0.42013   0.50088   0.83789   0.00000  Uiso   1.00
C1322  C     0.35190   0.54248   0.82988   0.00000  Uiso   1.00
C1323  C     0.62434   0.49761   0.82149   0.00000  Uiso   1.00
C1324  C     0.37534   0.50272   0.84343   0.00000  Uiso   1.00
C1325  C     0.51931   0.35633   0.87214   0.00000  Uiso   1.00
C1326  C     0.48090   0.64369   0.79435   0.00000  Uiso   1.00
C1327  C     0.48024   0.35828   0.79491   0.00000  Uiso   1.00
C1328  C     0.51974   0.64175   0.87178   0.00000  Uiso   1.00
C1329  C     0.37856   0.42483   0.88041   0.00000  Uiso   1.00
C1330  C     0.62032   0.57657   0.78695   0.00000  Uiso   1.00
C1331  C     0.63047   0.41264   0.82490   0.00000  Uiso   1.00
C1332  C     0.57974   0.49919   0.82820   0.00000  Uiso   1.00
C1333  C     0.36930   0.58794   0.83651   0.00000  Uiso   1.00
C1334  C     0.53883   0.37931   0.91575   0.00000  Uiso   1.00
C1335  C     0.46200   0.62081   0.75024   0.00000  Uiso   1.00
C1336  C     0.45568   0.38355   0.75527   0.00000  Uiso   1.00
C1337  C     0.54387   0.61654   0.91181   0.00000  Uiso   1.00
C1338  C     0.49981   0.50008   0.73963   0.00000  Uiso   1.00
C1339  C     0.50020   0.49992   0.92704   0.00000  Uiso   1.00
C1340  C     0.49994   0.50011   0.68849   0.00000  Uiso   1.00
C1341  C     0.50008   0.49989   0.97818   0.00000  Uiso   1.00
C1342  C     0.35588   0.46175   0.85124   0.00000  Uiso   1.00
C1343  C     0.64366   0.53871   0.81385   0.00000  Uiso   1.00
C1344  C     0.64785   0.45783   0.83423   0.00000  Uiso   1.00
H1345  H     0.41321   0.40732   0.94307   0.00000  Uiso   1.00
H1346  H     0.58413   0.59623   0.72627   0.00000  Uiso   1.00
H1347  H     0.59795   0.37305   0.77714   0.00000  Uiso   1.00
H1348  H     0.37802   0.64925   0.80715   0.00000  Uiso   1.00
H1349  H     0.54025   0.38958   0.99043   0.00000  Uiso   1.00
H1350  H     0.46021   0.61238   0.67528   0.00000  Uiso   1.00
H1351  H     0.40138   0.41539   0.73378   0.00000  Uiso   1.00
H1352  H     0.59767   0.58398   0.93394   0.00000  Uiso   1.00
N1353  N     0.50000   0.61907   0.83333   0.00000  Uiso   1.00
N1354  N     0.50000   0.38093   0.83333   0.00000  Uiso   1.00
O1355  O     0.43892   0.53821   0.83333   0.00000  Uiso   1.00
O1356  O     0.39759   0.43438   0.92725   0.00000  Uiso   1.00
O1357  O     0.61695   0.61351   0.80638   0.00000  Uiso   1.00
O1358  O     0.60006   0.56864   0.74039   0.00000  Uiso   1.00
O1359  O     0.63464   0.38287   0.85663   0.00000  Uiso   1.00
O1360  O     0.60896   0.40450   0.77915   0.00000  Uiso   1.00
O1361  O     0.38718   0.59750   0.87639   0.00000  Uiso   1.00
O1362  O     0.36470   0.61992   0.79792   0.00000  Uiso   1.00
O1363  O     0.56779   0.40392   0.91037   0.00000  Uiso   1.00
O1364  O     0.52425   0.37236   0.96352   0.00000  Uiso   1.00
O1365  O     0.43434   0.59447   0.75517   0.00000  Uiso   1.00
O1366  O     0.56108   0.46179   0.83334   0.00000  Uiso   1.00
O1367  O     0.47578   0.62966   0.70250   0.00000  Uiso   1.00
O1368  O     0.47001   0.38899   0.71424   0.00000  Uiso   1.00
O1369  O     0.41526   0.39900   0.76389   0.00000  Uiso   1.00
O1370  O     0.52936   0.61186   0.95286   0.00000  Uiso   1.00
O1371  O     0.58411   0.60026   0.90357   0.00000  Uiso   1.00
O1372  O     0.56108   0.53821   0.83334   0.00000  Uiso   1.00
O1373  O     0.43892   0.46179   0.83333   0.00000  Uiso   1.00
O1374  O     0.50000   0.53821   0.76178   0.00000  Uiso   1.00
O1375  O     0.50000   0.46179   0.90489   0.00000  Uiso   1.00
O1376  O     0.50000   0.53821   0.90489   0.00000  Uiso   1.00
O1377  O     0.50000   0.46179   0.76178   0.00000  Uiso   1.00
O1378  O     0.38259   0.38729   0.86272   0.00000  Uiso   1.00
Zn1379 Zn    0.50000   0.55104   0.83333   0.00000  Uiso   1.00
Zn1380 Zn    0.50000   0.44896   0.83333   0.00000  Uiso   1.00
C1381  C     0.75346   0.50088   0.83789   0.00000  Uiso   1.00
C1382  C     0.68523   0.54248   0.82988   0.00000  Uiso   1.00
C1383  C     0.95767   0.49761   0.82149   0.00000  Uiso   1.00
C1384  C     0.70868   0.50272   0.84343   0.00000  Uiso   1.00
C1385  C     0.85265   0.35633   0.87214   0.00000  Uiso   1.00
C1386  C     0.81423   0.64369   0.79435   0.00000  Uiso   1.00
C1387  C     0.81357   0.35828   0.79491   0.00000  Uiso   1.00
C1388  C     0.85307   0.64175   0.87178   0.00000  Uiso   1.00
C1389  C     0.71189   0.42483   0.88041   0.00000  Uiso   1.00
C1390  C     0.95365   0.57657   0.78695   0.00000  Uiso   1.00
C1391  C     0.96380   0.41264   0.82490   0.00000  Uiso   1.00
C1392  C     0.91307   0.49919   0.82820   0.00000  Uiso   1.00
C1393  C     0.70263   0.58794   0.83651   0.00000  Uiso   1.00
C1394  C     0.87217   0.37931   0.91575   0.00000  Uiso   1.00
C1395  C     0.79533   0.62081   0.75024   0.00000  Uiso   1.00
C1396  C     0.78901   0.38355   0.75527   0.00000  Uiso   1.00
C1397  C     0.87721   0.61654   0.91181   0.00000  Uiso   1.00
C1398  C     0.83315   0.50008   0.73963   0.00000  Uiso   1.00
C1399  C     0.83353   0.49992   0.92704   0.00000  Uiso   1.00
C1400  C     0.83328   0.50011   0.68849   0.00000  Uiso   1.00
C1401  C     0.83341   0.49989   0.97818   0.00000  Uiso   1.00
C1402  C     0.68921   0.46175   0.85124   0.00000  Uiso   1.00
C1403  C     0.97699   0.53871   0.81385   0.00000  Uiso   1.00
C1404  C     0.98119   0.45783   0.83423   0.00000  Uiso   1.00
H1405  H     0.74655   0.40732   0.94307   0.00000  Uiso   1.00
H1406  H     0.91747   0.59623   0.72627   0.00000  Uiso   1.00
H1407  H     0.93129   0.37305   0.77714   0.00000  Uiso   1.00
H1408  H     0.71135   0.64925   0.80715   0.00000  Uiso   1.00
H1409  H     0.87358   0.38958   0.99043   0.00000  Uiso   1.00
H1410  H     0.79354   0.61238   0.67528   0.00000  Uiso   1.00
H1411  H     0.73471   0.41539   0.73378   0.00000  Uiso   1.00
H1412  H     0.93100   0.58398   0.93394   0.00000  Uiso   1.00
N1413  N     0.83333   0.61907   0.83333   0.00000  Uiso   1.00
N1414  N     0.83333   0.38093   0.83333   0.00000  Uiso   1.00
O1415  O     0.77226   0.53821   0.83333   0.00000  Uiso   1.00
O1416  O     0.73092   0.43438   0.92725   0.00000  Uiso   1.00
O1417  O     0.95028   0.61351   0.80638   0.00000  Uiso   1.00
O1418  O     0.93339   0.56864   0.74039   0.00000  Uiso   1.00
O1419  O     0.96797   0.38287   0.85663   0.00000  Uiso   1.00
O1420  O     0.94229   0.40450   0.77915   0.00000  Uiso   1.00
O1421  O     0.72052   0.59750   0.87639   0.00000  Uiso   1.00
O1422  O     0.69803   0.61992   0.79792   0.00000  Uiso   1.00
O1423  O     0.90113   0.40392   0.91037   0.00000  Uiso   1.00
O1424  O     0.85759   0.37236   0.96352   0.00000  Uiso   1.00
O1425  O     0.76767   0.59447   0.75517   0.00000  Uiso   1.00
O1426  O     0.89441   0.46179   0.83334   0.00000  Uiso   1.00
O1427  O     0.80911   0.62966   0.70250   0.00000  Uiso   1.00
O1428  O     0.80335   0.38899   0.71424   0.00000  Uiso   1.00
O1429  O     0.74859   0.39900   0.76389   0.00000  Uiso   1.00
O1430  O     0.86269   0.61186   0.95286   0.00000  Uiso   1.00
O1431  O     0.91745   0.60026   0.90357   0.00000  Uiso   1.00
O1432  O     0.89441   0.53821   0.83334   0.00000  Uiso   1.00
O1433  O     0.77226   0.46179   0.83333   0.00000  Uiso   1.00
O1434  O     0.83334   0.53821   0.76178   0.00000  Uiso   1.00
O1435  O     0.83333   0.46179   0.90489   0.00000  Uiso   1.00
O1436  O     0.83333   0.53821   0.90489   0.00000  Uiso   1.00
O1437  O     0.83334   0.46179   0.76178   0.00000  Uiso   1.00
O1438  O     0.71592   0.38729   0.86272   0.00000  Uiso   1.00
Zn1439 Zn    0.83333   0.55104   0.83333   0.00000  Uiso   1.00
Zn1440 Zn    0.83333   0.44896   0.83333   0.00000  Uiso   1.00
C1441  C     0.08679   0.83422   0.83789   0.00000  Uiso   1.00
C1442  C     0.01856   0.87581   0.82988   0.00000  Uiso   1.00
C1443  C     0.29101   0.83094   0.82149   0.00000  Uiso   1.00
C1444  C     0.04201   0.83605   0.84343   0.00000  Uiso   1.00
C1445  C     0.18598   0.68966   0.87214   0.00000  Uiso   1.00
C1446  C     0.14757   0.97703   0.79435   0.00000  Uiso   1.00
C1447  C     0.14690   0.69161   0.79491   0.00000  Uiso   1.00
C1448  C     0.18640   0.97508   0.87178   0.00000  Uiso   1.00
C1449  C     0.04523   0.75817   0.88041   0.00000  Uiso   1.00
C1450  C     0.28699   0.90990   0.78695   0.00000  Uiso   1.00
C1451  C     0.29714   0.74597   0.82490   0.00000  Uiso   1.00
C1452  C     0.24641   0.83252   0.82820   0.00000  Uiso   1.00
C1453  C     0.03597   0.92128   0.83651   0.00000  Uiso   1.00
C1454  C     0.20550   0.71264   0.91575   0.00000  Uiso   1.00
C1455  C     0.12867   0.95414   0.75024   0.00000  Uiso   1.00
C1456  C     0.12235   0.71688   0.75527   0.00000  Uiso   1.00
C1457  C     0.21054   0.94987   0.91181   0.00000  Uiso   1.00
C1458  C     0.16648   0.83341   0.73963   0.00000  Uiso   1.00
C1459  C     0.16687   0.83325   0.92704   0.00000  Uiso   1.00
C1460  C     0.16661   0.83344   0.68849   0.00000  Uiso   1.00
C1461  C     0.16674   0.83322   0.97818   0.00000  Uiso   1.00
C1462  C     0.02255   0.79508   0.85124   0.00000  Uiso   1.00
C1463  C     0.31033   0.87205   0.81385   0.00000  Uiso   1.00
C1464  C     0.31452   0.79116   0.83423   0.00000  Uiso   1.00
H1465  H     0.07988   0.74065   0.94307   0.00000  Uiso   1.00
H1466  H     0.25080   0.92956   0.72627   0.00000  Uiso   1.00
H1467  H     0.26462   0.70639   0.77714   0.00000  Uiso   1.00
H1468  H     0.04469   0.98258   0.80715   0.00000  Uiso   1.00
H1469  H     0.20692   0.72291   0.99043   0.00000  Uiso   1.00
H1470  H     0.12688   0.94571   0.67528   0.00000  Uiso   1.00
H1471  H     0.06805   0.74873   0.73378   0.00000  Uiso   1.00
H1472  H     0.26433   0.91731   0.93394   0.00000  Uiso   1.00
N1473  N     0.16667   0.95240   0.83333   0.00000  Uiso   1.00
N1474  N     0.16667   0.71427   0.83333   0.00000  Uiso   1.00
O1475  O     0.10559   0.87154   0.83333   0.00000  Uiso   1.00
O1476  O     0.06426   0.76771   0.92725   0.00000  Uiso   1.00
O1477  O     0.28361   0.94685   0.80638   0.00000  Uiso   1.00
O1478  O     0.26672   0.90197   0.74039   0.00000  Uiso   1.00
O1479  O     0.30131   0.71620   0.85663   0.00000  Uiso   1.00
O1480  O     0.27563   0.73784   0.77915   0.00000  Uiso   1.00
O1481  O     0.05385   0.93083   0.87639   0.00000  Uiso   1.00
O1482  O     0.03136   0.95325   0.79792   0.00000  Uiso   1.00
O1483  O     0.23446   0.73725   0.91037   0.00000  Uiso   1.00
O1484  O     0.19092   0.70569   0.96352   0.00000  Uiso   1.00
O1485  O     0.10100   0.92780   0.75517   0.00000  Uiso   1.00
O1486  O     0.22774   0.79513   0.83334   0.00000  Uiso   1.00
O1487  O     0.14244   0.96300   0.70250   0.00000  Uiso   1.00
O1488  O     0.13668   0.72232   0.71424   0.00000  Uiso   1.00
O1489  O     0.08192   0.73234   0.76389   0.00000  Uiso   1.00
O1490  O     0.19603   0.94520   0.95286   0.00000  Uiso   1.00
O1491  O     0.25078   0.93360   0.90357   0.00000  Uiso   1.00
O1492  O     0.22774   0.87154   0.83334   0.00000  Uiso   1.00
O1493  O     0.10559   0.79513   0.83333   0.00000  Uiso   1.00
O1494  O     0.16667   0.87155   0.76178   0.00000  Uiso   1.00
O1495  O     0.16666   0.79512   0.90489   0.00000  Uiso   1.00
O1496  O     0.16666   0.87155   0.90489   0.00000  Uiso   1.00
O1497  O     0.16667   0.79512   0.76178   0.00000  Uiso   1.00
O1498  O     0.04926   0.72062   0.86272   0.00000  Uiso   1.00
Zn1499 Zn    0.16667   0.88437   0.83333   0.00000  Uiso   1.00
Zn1500 Zn    0.16667   0.78229   0.83333   0.00000  Uiso   1.00
C1501  C     0.42013   0.83422   0.83789   0.00000  Uiso   1.00
C1502  C     0.35190   0.87581   0.82988   0.00000  Uiso   1.00
C1503  C     0.62434   0.83094   0.82149   0.00000  Uiso   1.00
C1504  C     0.37534   0.83605   0.84343   0.00000  Uiso   1.00
C1505  C     0.51931   0.68966   0.87214   0.00000  Uiso   1.00
C1506  C     0.48090   0.97703   0.79435   0.00000  Uiso   1.00
C1507  C     0.48024   0.69161   0.79491   0.00000  Uiso   1.00
C1508  C     0.51974   0.97508   0.87178   0.00000  Uiso   1.00
C1509  C     0.37856   0.75817   0.88041   0.00000  Uiso   1.00
C1510  C     0.62032   0.90990   0.78695   0.00000  Uiso   1.00
C1511  C     0.63047   0.74597   0.82490   0.00000  Uiso   1.00
C1512  C     0.57974   0.83252   0.82820   0.00000  Uiso   1.00
C1513  C     0.36930   0.92128   0.83651   0.00000  Uiso   1.00
C1514  C     0.53883   0.71264   0.91575   0.00000  Uiso   1.00
C1515  C     0.46200   0.95414   0.75024   0.00000  Uiso   1.00
C1516  C     0.45568   0.71688   0.75527   0.00000  Uiso   1.00
C1517  C     0.54387   0.94987   0.91181   0.00000  Uiso   1.00
C1518  C     0.49981   0.83341   0.73963   0.00000  Uiso   1.00
C1519  C     0.50020   0.83325   0.92704   0.00000  Uiso   1.00
C1520  C     0.49994   0.83344   0.68849   0.00000  Uiso   1.00
C1521  C     0.50008   0.83322   0.97818   0.00000  Uiso   1.00
C1522  C     0.35588   0.79508   0.85124   0.00000  Uiso   1.00
C1523  C     0.64366   0.87205   0.81385   0.00000  Uiso   1.00
C1524  C     0.64785   0.79116   0.83423   0.00000  Uiso   1.00
H1525  H     0.41321   0.74065   0.94307   0.00000  Uiso   1.00
H1526  H     0.58413   0.92956   0.72627   0.00000  Uiso   1.00
H1527  H     0.59795   0.70639   0.77714   0.00000  Uiso   1.00
H1528  H     0.37802   0.98258   0.80715   0.00000  Uiso   1.00
H1529  H     0.54025   0.72291   0.99043   0.00000  Uiso   1.00
H1530  H     0.46021   0.94571   0.67528   0.00000  Uiso   1.00
H1531  H     0.40138   0.74873   0.73378   0.00000  Uiso   1.00
H1532  H     0.59767   0.91731   0.93394   0.00000  Uiso   1.00
N1533  N     0.50000   0.95240   0.83333   0.00000  Uiso   1.00
N1534  N     0.50000   0.71427   0.83333   0.00000  Uiso   1.00
O1535  O     0.43892   0.87154   0.83333   0.00000  Uiso   1.00
O1536  O     0.39759   0.76771   0.92725   0.00000  Uiso   1.00
O1537  O     0.61695   0.94685   0.80638   0.00000  Uiso   1.00
O1538  O     0.60006   0.90197   0.74039   0.00000  Uiso   1.00
O1539  O     0.63464   0.71620   0.85663   0.00000  Uiso   1.00
O1540  O     0.60896   0.73784   0.77915   0.00000  Uiso   1.00
O1541  O     0.38718   0.93083   0.87639   0.00000  Uiso   1.00
O1542  O     0.36470   0.95325   0.79792   0.00000  Uiso   1.00
O1543  O     0.56779   0.73725   0.91037   0.00000  Uiso   1.00
O1544  O     0.52425   0.70569   0.96352   0.00000  Uiso   1.00
O1545  O     0.43434   0.92780   0.75517   0.00000  Uiso   1.00
O1546  O     0.56108   0.79513   0.83334   0.00000  Uiso   1.00
O1547  O     0.47578   0.96300   0.70250   0.00000  Uiso   1.00
O1548  O     0.47001   0.72232   0.71424   0.00000  Uiso   1.00
O1549  O     0.41526   0.73234   0.76389   0.00000  Uiso   1.00
O1550  O     0.52936   0.94520   0.95286   0.00000  Uiso   1.00
O1551  O     0.58411   0.93360   0.90357   0.00000  Uiso   1.00
O1552  O     0.56108   0.87154   0.83334   0.00000  Uiso   1.00
O1553  O     0.43892   0.79513   0.83333   0.00000  Uiso   1.00
O1554  O     0.50000   0.87155   0.76178   0.00000  Uiso   1.00
O1555  O     0.50000   0.79512   0.90489   0.00000  Uiso   1.00
O1556  O     0.50000   0.87155   0.90489   0.00000  Uiso   1.00
O1557  O     0.50000   0.79512   0.76178   0.00000  Uiso   1.00
O1558  O     0.38259   0.72062   0.86272   0.00000  Uiso   1.00
Zn1559 Zn    0.50000   0.88437   0.83333   0.00000  Uiso   1.00
Zn1560 Zn    0.50000   0.78229   0.83333   0.00000  Uiso   1.00
C1561  C     0.75346   0.83422   0.83789   0.00000  Uiso   1.00
C1562  C     0.68523   0.87581   0.82988   0.00000  Uiso   1.00
C1563  C     0.95767   0.83094   0.82149   0.00000  Uiso   1.00
C1564  C     0.70868   0.83605   0.84343   0.00000  Uiso   1.00
C1565  C     0.85265   0.68966   0.87214   0.00000  Uiso   1.00
C1566  C     0.81423   0.97703   0.79435   0.00000  Uiso   1.00
C1567  C     0.81357   0.69161   0.79491   0.00000  Uiso   1.00
C1568  C     0.85307   0.97508   0.87178   0.00000  Uiso   1.00
C1569  C     0.71189   0.75817   0.88041   0.00000  Uiso   1.00
C1570  C     0.95365   0.90990   0.78695   0.00000  Uiso   1.00
C1571  C     0.96380   0.74597   0.82490   0.00000  Uiso   1.00
C1572  C     0.91307   0.83252   0.82820   0.00000  Uiso   1.00
C1573  C     0.70263   0.92128   0.83651   0.00000  Uiso   1.00
C1574  C     0.87217   0.71264   0.91575   0.00000  Uiso   1.00
C1575  C     0.79533   0.95414   0.75024   0.00000  Uiso   1.00
C1576  C     0.78901   0.71688   0.75527   0.00000  Uiso   1.00
C1577  C     0.87721   0.94987   0.91181   0.00000  Uiso   1.00
C1578  C     0.83315   0.83341   0.73963   0.00000  Uiso   1.00
C1579  C     0.83353   0.83325   0.92704   0.00000  Uiso   1.00
C1580  C     0.83328   0.83344   0.68849   0.00000  Uiso   1.00
C1581  C     0.83341   0.83322   0.97818   0.00000  Uiso   1.00
C1582  C     0.68921   0.79508   0.85124   0.00000  Uiso   1.00
C1583  C     0.97699   0.87205   0.81385   0.00000  Uiso   1.00
C1584  C     0.98119   0.79116   0.83423   0.00000  Uiso   1.00
H1585  H     0.74655   0.74065   0.94307   0.00000  Uiso   1.00
H1586  H     0.91747   0.92956   0.72627   0.00000  Uiso   1.00
H1587  H     0.93129   0.70639   0.77714   0.00000  Uiso   1.00
H1588  H     0.71135   0.98258   0.80715   0.00000  Uiso   1.00
H1589  H     0.87358   0.72291   0.99043   0.00000  Uiso   1.00
H1590  H     0.79354   0.94571   0.67528   0.00000  Uiso   1.00
H1591  H     0.73471   0.74873   0.73378   0.00000  Uiso   1.00
H1592  H     0.93100   0.91731   0.93394   0.00000  Uiso   1.00
N1593  N     0.83333   0.95240   0.83333   0.00000  Uiso   1.00
N1594  N     0.83333   0.71427   0.83333   0.00000  Uiso   1.00
O1595  O     0.77226   0.87154   0.83333   0.00000  Uiso   1.00
O1596  O     0.73092   0.76771   0.92725   0.00000  Uiso   1.00
O1597  O     0.95028   0.94685   0.80638   0.00000  Uiso   1.00
O1598  O     0.93339   0.90197   0.74039   0.00000  Uiso   1.00
O1599  O     0.96797   0.71620   0.85663   0.00000  Uiso   1.00
O1600  O     0.94229   0.73784   0.77915   0.00000  Uiso   1.00
O1601  O     0.72052   0.93083   0.87639   0.00000  Uiso   1.00
O1602  O     0.69803   0.95325   0.79792   0.00000  Uiso   1.00
O1603  O     0.90113   0.73725   0.91037   0.00000  Uiso   1.00
O1604  O     0.85759   0.70569   0.96352   0.00000  Uiso   1.00
O1605  O     0.76767   0.92780   0.75517   0.00000  Uiso   1.00
O1606  O     0.89441   0.79513   0.83334   0.00000  Uiso   1.00
O1607  O     0.80911   0.96300   0.70250   0.00000  Uiso   1.00
O1608  O     0.80335   0.72232   0.71424   0.00000  Uiso   1.00
O1609  O     0.74859   0.73234   0.76389   0.00000  Uiso   1.00
O1610  O     0.86269   0.94520   0.95286   0.00000  Uiso   1.00
O1611  O     0.91745   0.93360   0.90357   0.00000  Uiso   1.00
O1612  O     0.89441   0.87154   0.83334   0.00000  Uiso   1.00
O1613  O     0.77226   0.79513   0.83333   0.00000  Uiso   1.00
O1614  O     0.83334   0.87155   0.76178   0.00000  Uiso   1.00
O1615  O     0.83333   0.79512   0.90489   0.00000  Uiso   1.00
O1616  O     0.83333   0.87155   0.90489   0.00000  Uiso   1.00
O1617  O     0.83334   0.79512   0.76178   0.00000  Uiso   1.00
O1618  O     0.71592   0.72062   0.86272   0.00000  Uiso   1.00
Zn1619 Zn    0.83333   0.88437   0.83333   0.00000  Uiso   1.00
Zn1620 Zn    0.83333   0.78229   0.83333   0.00000  Uiso   1.00
loop_
_geom_bond_atom_site_label_1
_geom_bond_atom_site_label_2
_geom_bond_distance
_geom_bond_site_symmetry_2
_ccdc_geom_bond_type
C1     C4      1.456   .     S
C1     O35     1.292   .     A
C1     O53     1.303   .     A
C2     C4      1.418   .     A
C2     C13     1.492   .     S
C2     C143    1.392   1_455 S
C3     C23     1.411   .     A
C3     C24     1.415   .     A
C3     C12     1.455   .     S
C4     C22     1.411   .     A
C5     N34     1.375   .     A
C5     C14     1.477   .     S
C5     C368    1.427   1_545 S
C6     N33     1.376   .     A
C6     C15     1.478   .     S
C6     C187    1.427   .     S
C7     C16     1.475   .     S
C7     N34     1.372   .     A
C7     C366    1.427   1_545 S
C8     C17     1.475   .     S
C8     N33     1.372   .     A
C8     C185    1.427   .     S
C9     O36     1.398   .     S
C9     C22     1.492   .     S
C9     O58     1.222   .     D
C10    C23     1.494   .     S
C10    O38     1.398   .     S
C10    O37     1.223   .     D
C11    O40     1.399   .     S
C11    O39     1.222   .     D
C11    C24     1.493   .     S
C12    O52     1.301   .     A
C12    O46     1.294   .     A
C13    O41     1.223   .     D
C13    O42     1.398   .     S
C14    O44     1.397   .     S
C14    O43     1.219   .     D
C15    O47     1.397   .     S
C15    O45     1.219   .     D
C16    O48     1.222   .     D
C16    O49     1.396   .     S
C17    O50     1.222   .     D
C17    O51     1.396   .     S
C18    O57     1.282   .     A
C18    C20     1.365   .     S
C18    O54     1.283   .     A
C19    O56     1.282   .     A
C19    O55     1.283   .     A
C19    C21     1.365   .     S
C20    C1101   1.165   1_554 S
C21    C560    1.165   .     S
C22    C144    1.393   1_455 S
C23    C62     1.392   .     S
C24    C82     1.393   .     S
H25    O36     1.014   .     S
H26    O38     1.014   .     S
H27    O40     1.014   .     S
H28    O42     1.013   .     S
H29    O44     1.014   .     S
H30    O47     1.014   .     S
H31    O49     1.014   .     S
H32    O51     1.014   .     S
N33    Zn59    2.027   .     S
N34    Zn60    2.027   .     S
O35    Zn59    2.016   .     S
O46    Zn60    2.016   .     S
O52    Zn59    1.990   .     S
O53    Zn60    1.990   .     S
O54    Zn59    1.949   .     S
O55    Zn60    1.949   .     S
O56    Zn59    1.945   .     S
O57    Zn60    1.945   .     S
C61    C64     1.456   .     S
C61    O95     1.292   .     A
C61    O113    1.303   .     A
C62    C64     1.418   .     A
C62    C73     1.492   .     S
C63    C83     1.411   .     A
C63    C84     1.415   .     A
C63    C72     1.455   .     S
C64    C82     1.411   .     A
C65    N94     1.375   .     A
C65    C74     1.477   .     S
C65    C428    1.427   1_545 S
C66    N93     1.376   .     A
C66    C75     1.478   .     S
C66    C247    1.427   .     S
C67    C76     1.475   .     S
C67    N94     1.372   .     A
C67    C426    1.427   1_545 S
C68    C77     1.475   .     S
C68    N93     1.372   .     A
C68    C245    1.427   .     S
C69    O96     1.398   .     S
C69    C82     1.492   .     S
C69    O118    1.222   .     D
C70    C83     1.494   .     S
C70    O98     1.398   .     S
C70    O97     1.223   .     D
C71    O100    1.399   .     S
C71    O99     1.222   .     D
C71    C84     1.493   .     S
C72    O112    1.301   .     A
C72    O106    1.294   .     A
C73    O101    1.223   .     D
C73    O102    1.398   .     S
C74    O104    1.397   .     S
C74    O103    1.219   .     D
C75    O107    1.397   .     S
C75    O105    1.219   .     D
C76    O108    1.222   .     D
C76    O109    1.396   .     S
C77    O110    1.222   .     D
C77    O111    1.396   .     S
C78    O117    1.282   .     A
C78    C80     1.365   .     S
C78    O114    1.283   .     A
C79    O116    1.282   .     A
C79    O115    1.283   .     A
C79    C81     1.365   .     S
C80    C1161   1.165   1_554 S
C81    C620    1.165   .     S
C83    C122    1.392   .     S
C84    C142    1.393   .     S
H85    O96     1.014   .     S
H86    O98     1.014   .     S
H87    O100    1.014   .     S
H88    O102    1.013   .     S
H89    O104    1.014   .     S
H90    O107    1.014   .     S
H91    O109    1.014   .     S
H92    O111    1.014   .     S
N93    Zn119   2.027   .     S
N94    Zn120   2.027   .     S
O95    Zn119   2.016   .     S
O106   Zn120   2.016   .     S
O112   Zn119   1.990   .     S
O113   Zn120   1.990   .     S
O114   Zn119   1.949   .     S
O115   Zn120   1.949   .     S
O116   Zn119   1.945   .     S
O117   Zn120   1.945   .     S
C121   C124    1.456   .     S
C121   O155    1.292   .     A
C121   O173    1.303   .     A
C122   C124    1.418   .     A
C122   C133    1.492   .     S
C123   C143    1.411   .     A
C123   C144    1.415   .     A
C123   C132    1.455   .     S
C124   C142    1.411   .     A
C125   N154    1.375   .     A
C125   C134    1.477   .     S
C125   C488    1.427   1_545 S
C126   N153    1.376   .     A
C126   C135    1.478   .     S
C126   C307    1.427   .     S
C127   C136    1.475   .     S
C127   N154    1.372   .     A
C127   C486    1.427   1_545 S
C128   C137    1.475   .     S
C128   N153    1.372   .     A
C128   C305    1.427   .     S
C129   O156    1.398   .     S
C129   C142    1.492   .     S
C129   O178    1.222   .     D
C130   C143    1.494   .     S
C130   O158    1.398   .     S
C130   O157    1.223   .     D
C131   O160    1.399   .     S
C131   O159    1.222   .     D
C131   C144    1.493   .     S
C132   O172    1.301   .     A
C132   O166    1.294   .     A
C133   O161    1.223   .     D
C133   O162    1.398   .     S
C134   O164    1.397   .     S
C134   O163    1.219   .     D
C135   O167    1.397   .     S
C135   O165    1.219   .     D
C136   O168    1.222   .     D
C136   O169    1.396   .     S
C137   O170    1.222   .     D
C137   O171    1.396   .     S
C138   O177    1.282   .     A
C138   C140    1.365   .     S
C138   O174    1.283   .     A
C139   O176    1.282   .     A
C139   O175    1.283   .     A
C139   C141    1.365   .     S
C140   C1221   1.165   1_554 S
C141   C680    1.165   .     S
C143   C2      1.392   1_655 S
C144   C22     1.393   1_655 S
H145   O156    1.014   .     S
H146   O158    1.014   .     S
H147   O160    1.014   .     S
H148   O162    1.013   .     S
H149   O164    1.014   .     S
H150   O167    1.014   .     S
H151   O169    1.014   .     S
H152   O171    1.014   .     S
N153   Zn179   2.027   .     S
N154   Zn180   2.027   .     S
O155   Zn179   2.016   .     S
O166   Zn180   2.016   .     S
O172   Zn179   1.990   .     S
O173   Zn180   1.990   .     S
O174   Zn179   1.949   .     S
O175   Zn180   1.949   .     S
O176   Zn179   1.945   .     S
O177   Zn180   1.945   .     S
C181   C184    1.456   .     S
C181   O215    1.292   .     A
C181   O233    1.303   .     A
C182   C184    1.418   .     A
C182   C193    1.492   .     S
C182   C323    1.392   1_455 S
C183   C203    1.411   .     A
C183   C204    1.415   .     A
C183   C192    1.455   .     S
C184   C202    1.411   .     A
C185   N214    1.375   .     A
C185   C194    1.477   .     S
C186   N213    1.376   .     A
C186   C195    1.478   .     S
C186   C367    1.427   .     S
C187   C196    1.475   .     S
C187   N214    1.372   .     A
C188   C197    1.475   .     S
C188   N213    1.372   .     A
C188   C365    1.427   .     S
C189   O216    1.398   .     S
C189   C202    1.492   .     S
C189   O238    1.222   .     D
C190   C203    1.494   .     S
C190   O218    1.398   .     S
C190   O217    1.223   .     D
C191   O220    1.399   .     S
C191   O219    1.222   .     D
C191   C204    1.493   .     S
C192   O232    1.301   .     A
C192   O226    1.294   .     A
C193   O221    1.223   .     D
C193   O222    1.398   .     S
C194   O224    1.397   .     S
C194   O223    1.219   .     D
C195   O227    1.397   .     S
C195   O225    1.219   .     D
C196   O228    1.222   .     D
C196   O229    1.396   .     S
C197   O230    1.222   .     D
C197   O231    1.396   .     S
C198   O237    1.282   .     A
C198   C200    1.365   .     S
C198   O234    1.283   .     A
C199   O236    1.282   .     A
C199   O235    1.283   .     A
C199   C201    1.365   .     S
C200   C1281   1.165   1_554 S
C201   C740    1.165   .     S
C202   C324    1.393   1_455 S
C203   C242    1.392   .     S
C204   C262    1.393   .     S
H205   O216    1.014   .     S
H206   O218    1.014   .     S
H207   O220    1.014   .     S
H208   O222    1.013   .     S
H209   O224    1.014   .     S
H210   O227    1.014   .     S
H211   O229    1.014   .     S
H212   O231    1.014   .     S
N213   Zn239   2.027   .     S
N214   Zn240   2.027   .     S
O215   Zn239   2.016   .     S
O226   Zn240   2.016   .     S
O232   Zn239   1.990   .     S
O233   Zn240   1.990   .     S
O234   Zn239   1.949   .     S
O235   Zn240   1.949   .     S
O236   Zn239   1.945   .     S
O237   Zn240   1.945   .     S
C241   C244    1.456   .     S
C241   O275    1.292   .     A
C241   O293    1.303   .     A
C242   C244    1.418   .     A
C242   C253    1.492   .     S
C243   C263    1.411   .     A
C243   C264    1.415   .     A
C243   C252    1.455   .     S
C244   C262    1.411   .     A
C245   N274    1.375   .     A
C245   C254    1.477   .     S
C246   N273    1.376   .     A
C246   C255    1.478   .     S
C246   C427    1.427   .     S
C247   C256    1.475   .     S
C247   N274    1.372   .     A
C248   C257    1.475   .     S
C248   N273    1.372   .     A
C248   C425    1.427   .     S
C249   O276    1.398   .     S
C249   C262    1.492   .     S
C249   O298    1.222   .     D
C250   C263    1.494   .     S
C250   O278    1.398   .     S
C250   O277    1.223   .     D
C251   O280    1.399   .     S
C251   O279    1.222   .     D
C251   C264    1.493   .     S
C252   O292    1.301   .     A
C252   O286    1.294   .     A
C253   O281    1.223   .     D
C253   O282    1.398   .     S
C254   O284    1.397   .     S
C254   O283    1.219   .     D
C255   O287    1.397   .     S
C255   O285    1.219   .     D
C256   O288    1.222   .     D
C256   O289    1.396   .     S
C257   O290    1.222   .     D
C257   O291    1.396   .     S
C258   O297    1.282   .     A
C258   C260    1.365   .     S
C258   O294    1.283   .     A
C259   O296    1.282   .     A
C259   O295    1.283   .     A
C259   C261    1.365   .     S
C260   C1341   1.165   1_554 S
C261   C800    1.165   .     S
C263   C302    1.392   .     S
C264   C322    1.393   .     S
H265   O276    1.014   .     S
H266   O278    1.014   .     S
H267   O280    1.014   .     S
H268   O282    1.013   .     S
H269   O284    1.014   .     S
H270   O287    1.014   .     S
H271   O289    1.014   .     S
H272   O291    1.014   .     S
N273   Zn299   2.027   .     S
N274   Zn300   2.027   .     S
O275   Zn299   2.016   .     S
O286   Zn300   2.016   .     S
O292   Zn299   1.990   .     S
O293   Zn300   1.990   .     S
O294   Zn299   1.949   .     S
O295   Zn300   1.949   .     S
O296   Zn299   1.945   .     S
O297   Zn300   1.945   .     S
C301   C304    1.456   .     S
C301   O335    1.292   .     A
C301   O353    1.303   .     A
C302   C304    1.418   .     A
C302   C313    1.492   .     S
C303   C323    1.411   .     A
C303   C324    1.415   .     A
C303   C312    1.455   .     S
C304   C322    1.411   .     A
C305   N334    1.375   .     A
C305   C314    1.477   .     S
C306   N333    1.376   .     A
C306   C315    1.478   .     S
C306   C487    1.427   .     S
C307   C316    1.475   .     S
C307   N334    1.372   .     A
C308   C317    1.475   .     S
C308   N333    1.372   .     A
C308   C485    1.427   .     S
C309   O336    1.398   .     S
C309   C322    1.492   .     S
C309   O358    1.222   .     D
C310   C323    1.494   .     S
C310   O338    1.398   .     S
C310   O337    1.223   .     D
C311   O340    1.399   .     S
C311   O339    1.222   .     D
C311   C324    1.493   .     S
C312   O352    1.301   .     A
C312   O346    1.294   .     A
C313   O341    1.223   .     D
C313   O342    1.398   .     S
C314   O344    1.397   .     S
C314   O343    1.219   .     D
C315   O347    1.397   .     S
C315   O345    1.219   .     D
C316   O348    1.222   .     D
C316   O349    1.396   .     S
C317   O350    1.222   .     D
C317   O351    1.396   .     S
C318   O357    1.282   .     A
C318   C320    1.365   .     S
C318   O354    1.283   .     A
C319   O356    1.282   .     A
C319   O355    1.283   .     A
C319   C321    1.365   .     S
C320   C1401   1.165   1_554 S
C321   C860    1.165   .     S
C323   C182    1.392   1_655 S
C324   C202    1.393   1_655 S
H325   O336    1.014   .     S
H326   O338    1.014   .     S
H327   O340    1.014   .     S
H328   O342    1.013   .     S
H329   O344    1.014   .     S
H330   O347    1.014   .     S
H331   O349    1.014   .     S
H332   O351    1.014   .     S
N333   Zn359   2.027   .     S
N334   Zn360   2.027   .     S
O335   Zn359   2.016   .     S
O346   Zn360   2.016   .     S
O352   Zn359   1.990   .     S
O353   Zn360   1.990   .     S
O354   Zn359   1.949   .     S
O355   Zn360   1.949   .     S
O356   Zn359   1.945   .     S
O357   Zn360   1.945   .     S
C361   C364    1.456   .     S
C361   O395    1.292   .     A
C361   O413    1.303   .     A
C362   C364    1.418   .     A
C362   C373    1.492   .     S
C362   C503    1.392   1_455 S
C363   C383    1.411   .     A
C363   C384    1.415   .     A
C363   C372    1.455   .     S
C364   C382    1.411   .     A
C365   N394    1.375   .     A
C365   C374    1.477   .     S
C366   N393    1.376   .     A
C366   C375    1.478   .     S
C366   C7      1.427   1_565 S
C367   C376    1.475   .     S
C367   N394    1.372   .     A
C368   C377    1.475   .     S
C368   N393    1.372   .     A
C368   C5      1.427   1_565 S
C369   O396    1.398   .     S
C369   C382    1.492   .     S
C369   O418    1.222   .     D
C370   C383    1.494   .     S
C370   O398    1.398   .     S
C370   O397    1.223   .     D
C371   O400    1.399   .     S
C371   O399    1.222   .     D
C371   C384    1.493   .     S
C372   O412    1.301   .     A
C372   O406    1.294   .     A
C373   O401    1.223   .     D
C373   O402    1.398   .     S
C374   O404    1.397   .     S
C374   O403    1.219   .     D
C375   O407    1.397   .     S
C375   O405    1.219   .     D
C376   O408    1.222   .     D
C376   O409    1.396   .     S
C377   O410    1.222   .     D
C377   O411    1.396   .     S
C378   O417    1.282   .     A
C378   C380    1.365   .     S
C378   O414    1.283   .     A
C379   O416    1.282   .     A
C379   O415    1.283   .     A
C379   C381    1.365   .     S
C380   C1461   1.165   1_554 S
C381   C920    1.165   .     S
C382   C504    1.393   1_455 S
C383   C422    1.392   .     S
C384   C442    1.393   .     S
H385   O396    1.014   .     S
H386   O398    1.014   .     S
H387   O400    1.014   .     S
H388   O402    1.013   .     S
H389   O404    1.014   .     S
H390   O407    1.014   .     S
H391   O409    1.014   .     S
H392   O411    1.014   .     S
N393   Zn419   2.027   .     S
N394   Zn420   2.027   .     S
O395   Zn419   2.016   .     S
O406   Zn420   2.016   .     S
O412   Zn419   1.990   .     S
O413   Zn420   1.990   .     S
O414   Zn419   1.949   .     S
O415   Zn420   1.949   .     S
O416   Zn419   1.945   .     S
O417   Zn420   1.945   .     S
C421   C424    1.456   .     S
C421   O455    1.292   .     A
C421   O473    1.303   .     A
C422   C424    1.418   .     A
C422   C433    1.492   .     S
C423   C443    1.411   .     A
C423   C444    1.415   .     A
C423   C432    1.455   .     S
C424   C442    1.411   .     A
C425   N454    1.375   .     A
C425   C434    1.477   .     S
C426   N453    1.376   .     A
C426   C435    1.478   .     S
C426   C67     1.427   1_565 S
C427   C436    1.475   .     S
C427   N454    1.372   .     A
C428   C437    1.475   .     S
C428   N453    1.372   .     A
C428   C65     1.427   1_565 S
C429   O456    1.398   .     S
C429   C442    1.492   .     S
C429   O478    1.222   .     D
C430   C443    1.494   .     S
C430   O458    1.398   .     S
C430   O457    1.223   .     D
C431   O460    1.399   .     S
C431   O459    1.222   .     D
C431   C444    1.493   .     S
C432   O472    1.301   .     A
C432   O466    1.294   .     A
C433   O461    1.223   .     D
C433   O462    1.398   .     S
C434   O464    1.397   .     S
C434   O463    1.219   .     D
C435   O467    1.397   .     S
C435   O465    1.219   .     D
C436   O468    1.222   .     D
C436   O469    1.396   .     S
C437   O470    1.222   .     D
C437   O471    1.396   .     S
C438   O477    1.282   .     A
C438   C440    1.365   .     S
C438   O474    1.283   .     A
C439   O476    1.282   .     A
C439   O475    1.283   .     A
C439   C441    1.365   .     S
C440   C1521   1.165   1_554 S
C441   C980    1.165   .     S
C443   C482    1.392   .     S
C444   C502    1.393   .     S
H445   O456    1.014   .     S
H446   O458    1.014   .     S
H447   O460    1.014   .     S
H448   O462    1.013   .     S
H449   O464    1.014   .     S
H450   O467    1.014   .     S
H451   O469    1.014   .     S
H452   O471    1.014   .     S
N453   Zn479   2.027   .     S
N454   Zn480   2.027   .     S
O455   Zn479   2.016   .     S
O466   Zn480   2.016   .     S
O472   Zn479   1.990   .     S
O473   Zn480   1.990   .     S
O474   Zn479   1.949   .     S
O475   Zn480   1.949   .     S
O476   Zn479   1.945   .     S
O477   Zn480   1.945   .     S
C481   C484    1.456   .     S
C481   O515    1.292   .     A
C481   O533    1.303   .     A
C482   C484    1.418   .     A
C482   C493    1.492   .     S
C483   C503    1.411   .     A
C483   C504    1.415   .     A
C483   C492    1.455   .     S
C484   C502    1.411   .     A
C485   N514    1.375   .     A
C485   C494    1.477   .     S
C486   N513    1.376   .     A
C486   C495    1.478   .     S
C486   C127    1.427   1_565 S
C487   C496    1.475   .     S
C487   N514    1.372   .     A
C488   C497    1.475   .     S
C488   N513    1.372   .     A
C488   C125    1.427   1_565 S
C489   O516    1.398   .     S
C489   C502    1.492   .     S
C489   O538    1.222   .     D
C490   C503    1.494   .     S
C490   O518    1.398   .     S
C490   O517    1.223   .     D
C491   O520    1.399   .     S
C491   O519    1.222   .     D
C491   C504    1.493   .     S
C492   O532    1.301   .     A
C492   O526    1.294   .     A
C493   O521    1.223   .     D
C493   O522    1.398   .     S
C494   O524    1.397   .     S
C494   O523    1.219   .     D
C495   O527    1.397   .     S
C495   O525    1.219   .     D
C496   O528    1.222   .     D
C496   O529    1.396   .     S
C497   O530    1.222   .     D
C497   O531    1.396   .     S
C498   O537    1.282   .     A
C498   C500    1.365   .     S
C498   O534    1.283   .     A
C499   O536    1.282   .     A
C499   O535    1.283   .     A
C499   C501    1.365   .     S
C500   C1581   1.165   1_554 S
C501   C1040   1.165   .     S
C503   C362    1.392   1_655 S
C504   C382    1.393   1_655 S
H505   O516    1.014   .     S
H506   O518    1.014   .     S
H507   O520    1.014   .     S
H508   O522    1.013   .     S
H509   O524    1.014   .     S
H510   O527    1.014   .     S
H511   O529    1.014   .     S
H512   O531    1.014   .     S
N513   Zn539   2.027   .     S
N514   Zn540   2.027   .     S
O515   Zn539   2.016   .     S
O526   Zn540   2.016   .     S
O532   Zn539   1.990   .     S
O533   Zn540   1.990   .     S
O534   Zn539   1.949   .     S
O535   Zn540   1.949   .     S
O536   Zn539   1.945   .     S
O537   Zn540   1.945   .     S
C541   C544    1.456   .     S
C541   O575    1.292   .     A
C541   O593    1.303   .     A
C542   C544    1.418   .     A
C542   C553    1.492   .     S
C542   C683    1.392   1_455 S
C543   C563    1.411   .     A
C543   C564    1.415   .     A
C543   C552    1.455   .     S
C544   C562    1.411   .     A
C545   N574    1.375   .     A
C545   C554    1.477   .     S
C545   C908    1.427   1_545 S
C546   N573    1.376   .     A
C546   C555    1.478   .     S
C546   C727    1.427   .     S
C547   C556    1.475   .     S
C547   N574    1.372   .     A
C547   C906    1.427   1_545 S
C548   C557    1.475   .     S
C548   N573    1.372   .     A
C548   C725    1.427   .     S
C549   O576    1.398   .     S
C549   C562    1.492   .     S
C549   O598    1.222   .     D
C550   C563    1.494   .     S
C550   O578    1.398   .     S
C550   O577    1.223   .     D
C551   O580    1.399   .     S
C551   O579    1.222   .     D
C551   C564    1.493   .     S
C552   O592    1.301   .     A
C552   O586    1.294   .     A
C553   O581    1.223   .     D
C553   O582    1.398   .     S
C554   O584    1.397   .     S
C554   O583    1.219   .     D
C555   O587    1.397   .     S
C555   O585    1.219   .     D
C556   O588    1.222   .     D
C556   O589    1.396   .     S
C557   O590    1.222   .     D
C557   O591    1.396   .     S
C558   O597    1.282   .     A
C558   C560    1.365   .     S
C558   O594    1.283   .     A
C559   O596    1.282   .     A
C559   O595    1.283   .     A
C559   C561    1.365   .     S
C561   C1100   1.165   .     S
C562   C684    1.393   1_455 S
C563   C602    1.392   .     S
C564   C622    1.393   .     S
H565   O576    1.014   .     S
H566   O578    1.014   .     S
H567   O580    1.014   .     S
H568   O582    1.013   .     S
H569   O584    1.014   .     S
H570   O587    1.014   .     S
H571   O589    1.014   .     S
H572   O591    1.014   .     S
N573   Zn599   2.027   .     S
N574   Zn600   2.027   .     S
O575   Zn599   2.016   .     S
O586   Zn600   2.016   .     S
O592   Zn599   1.990   .     S
O593   Zn600   1.990   .     S
O594   Zn599   1.949   .     S
O595   Zn600   1.949   .     S
O596   Zn599   1.945   .     S
O597   Zn600   1.945   .     S
C601   C604    1.456   .     S
C601   O635    1.292   .     A
C601   O653    1.303   .     A
C602   C604    1.418   .     A
C602   C613    1.492   .     S
C603   C623    1.411   .     A
C603   C624    1.415   .     A
C603   C612    1.455   .     S
C604   C622    1.411   .     A
C605   N634    1.375   .     A
C605   C614    1.477   .     S
C605   C968    1.427   1_545 S
C606   N633    1.376   .     A
C606   C615    1.478   .     S
C606   C787    1.427   .     S
C607   C616    1.475   .     S
C607   N634    1.372   .     A
C607   C966    1.427   1_545 S
C608   C617    1.475   .     S
C608   N633    1.372   .     A
C608   C785    1.427   .     S
C609   O636    1.398   .     S
C609   C622    1.492   .     S
C609   O658    1.222   .     D
C610   C623    1.494   .     S
C610   O638    1.398   .     S
C610   O637    1.223   .     D
C611   O640    1.399   .     S
C611   O639    1.222   .     D
C611   C624    1.493   .     S
C612   O652    1.301   .     A
C612   O646    1.294   .     A
C613   O641    1.223   .     D
C613   O642    1.398   .     S
C614   O644    1.397   .     S
C614   O643    1.219   .     D
C615   O647    1.397   .     S
C615   O645    1.219   .     D
C616   O648    1.222   .     D
C616   O649    1.396   .     S
C617   O650    1.222   .     D
C617   O651    1.396   .     S
C618   O657    1.282   .     A
C618   C620    1.365   .     S
C618   O654    1.283   .     A
C619   O656    1.282   .     A
C619   O655    1.283   .     A
C619   C621    1.365   .     S
C621   C1160   1.165   .     S
C623   C662    1.392   .     S
C624   C682    1.393   .     S
H625   O636    1.014   .     S
H626   O638    1.014   .     S
H627   O640    1.014   .     S
H628   O642    1.013   .     S
H629   O644    1.014   .     S
H630   O647    1.014   .     S
H631   O649    1.014   .     S
H632   O651    1.014   .     S
N633   Zn659   2.027   .     S
N634   Zn660   2.027   .     S
O635   Zn659   2.016   .     S
O646   Zn660   2.016   .     S
O652   Zn659   1.990   .     S
O653   Zn660   1.990   .     S
O654   Zn659   1.949   .     S
O655   Zn660   1.949   .     S
O656   Zn659   1.945   .     S
O657   Zn660   1.945   .     S
C661   C664    1.456   .     S
C661   O695    1.292   .     A
C661   O713    1.303   .     A
C662   C664    1.418   .     A
C662   C673    1.492   .     S
C663   C683    1.411   .     A
C663   C684    1.415   .     A
C663   C672    1.455   .     S
C664   C682    1.411   .     A
C665   N694    1.375   .     A
C665   C674    1.477   .     S
C665   C1028   1.427   1_545 S
C666   N693    1.376   .     A
C666   C675    1.478   .     S
C666   C847    1.427   .     S
C667   C676    1.475   .     S
C667   N694    1.372   .     A
C667   C1026   1.427   1_545 S
C668   C677    1.475   .     S
C668   N693    1.372   .     A
C668   C845    1.427   .     S
C669   O696    1.398   .     S
C669   C682    1.492   .     S
C669   O718    1.222   .     D
C670   C683    1.494   .     S
C670   O698    1.398   .     S
C670   O697    1.223   .     D
C671   O700    1.399   .     S
C671   O699    1.222   .     D
C671   C684    1.493   .     S
C672   O712    1.301   .     A
C672   O706    1.294   .     A
C673   O701    1.223   .     D
C673   O702    1.398   .     S
C674   O704    1.397   .     S
C674   O703    1.219   .     D
C675   O707    1.397   .     S
C675   O705    1.219   .     D
C676   O708    1.222   .     D
C676   O709    1.396   .     S
C677   O710    1.222   .     D
C677   O711    1.396   .     S
C678   O717    1.282   .     A
C678   C680    1.365   .     S
C678   O714    1.283   .     A
C679   O716    1.282   .     A
C679   O715    1.283   .     A
C679   C681    1.365   .     S
C681   C1220   1.165   .     S
C683   C542    1.392   1_655 S
C684   C562    1.393   1_655 S
H685   O696    1.014   .     S
H686   O698    1.014   .     S
H687   O700    1.014   .     S
H688   O702    1.013   .     S
H689   O704    1.014   .     S
H690   O707    1.014   .     S
H691   O709    1.014   .     S
H692   O711    1.014   .     S
N693   Zn719   2.027   .     S
N694   Zn720   2.027   .     S
O695   Zn719   2.016   .     S
O706   Zn720   2.016   .     S
O712   Zn719   1.990   .     S
O713   Zn720   1.990   .     S
O714   Zn719   1.949   .     S
O715   Zn720   1.949   .     S
O716   Zn719   1.945   .     S
O717   Zn720   1.945   .     S
C721   C724    1.456   .     S
C721   O755    1.292   .     A
C721   O773    1.303   .     A
C722   C724    1.418   .     A
C722   C733    1.492   .     S
C722   C863    1.392   1_455 S
C723   C743    1.411   .     A
C723   C744    1.415   .     A
C723   C732    1.455   .     S
C724   C742    1.411   .     A
C725   N754    1.375   .     A
C725   C734    1.477   .     S
C726   N753    1.376   .     A
C726   C735    1.478   .     S
C726   C907    1.427   .     S
C727   C736    1.475   .     S
C727   N754    1.372   .     A
C728   C737    1.475   .     S
C728   N753    1.372   .     A
C728   C905    1.427   .     S
C729   O756    1.398   .     S
C729   C742    1.492   .     S
C729   O778    1.222   .     D
C730   C743    1.494   .     S
C730   O758    1.398   .     S
C730   O757    1.223   .     D
C731   O760    1.399   .     S
C731   O759    1.222   .     D
C731   C744    1.493   .     S
C732   O772    1.301   .     A
C732   O766    1.294   .     A
C733   O761    1.223   .     D
C733   O762    1.398   .     S
C734   O764    1.397   .     S
C734   O763    1.219   .     D
C735   O767    1.397   .     S
C735   O765    1.219   .     D
C736   O768    1.222   .     D
C736   O769    1.396   .     S
C737   O770    1.222   .     D
C737   O771    1.396   .     S
C738   O777    1.282   .     A
C738   C740    1.365   .     S
C738   O774    1.283   .     A
C739   O776    1.282   .     A
C739   O775    1.283   .     A
C739   C741    1.365   .     S
C741   C1280   1.165   .     S
C742   C864    1.393   1_455 S
C743   C782    1.392   .     S
C744   C802    1.393   .     S
H745   O756    1.014   .     S
H746   O758    1.014   .     S
H747   O760    1.014   .     S
H748   O762    1.013   .     S
H749   O764    1.014   .     S
H750   O767    1.014   .     S
H751   O769    1.014   .     S
H752   O771    1.014   .     S
N753   Zn779   2.027   .     S
N754   Zn780   2.027   .     S
O755   Zn779   2.016   .     S
O766   Zn780   2.016   .     S
O772   Zn779   1.990   .     S
O773   Zn780   1.990   .     S
O774   Zn779   1.949   .     S
O775   Zn780   1.949   .     S
O776   Zn779   1.945   .     S
O777   Zn780   1.945   .     S
C781   C784    1.456   .     S
C781   O815    1.292   .     A
C781   O833    1.303   .     A
C782   C784    1.418   .     A
C782   C793    1.492   .     S
C783   C803    1.411   .     A
C783   C804    1.415   .     A
C783   C792    1.455   .     S
C784   C802    1.411   .     A
C785   N814    1.375   .     A
C785   C794    1.477   .     S
C786   N813    1.376   .     A
C786   C795    1.478   .     S
C786   C967    1.427   .     S
C787   C796    1.475   .     S
C787   N814    1.372   .     A
C788   C797    1.475   .     S
C788   N813    1.372   .     A
C788   C965    1.427   .     S
C789   O816    1.398   .     S
C789   C802    1.492   .     S
C789   O838    1.222   .     D
C790   C803    1.494   .     S
C790   O818    1.398   .     S
C790   O817    1.223   .     D
C791   O820    1.399   .     S
C791   O819    1.222   .     D
C791   C804    1.493   .     S
C792   O832    1.301   .     A
C792   O826    1.294   .     A
C793   O821    1.223   .     D
C793   O822    1.398   .     S
C794   O824    1.397   .     S
C794   O823    1.219   .     D
C795   O827    1.397   .     S
C795   O825    1.219   .     D
C796   O828    1.222   .     D
C796   O829    1.396   .     S
C797   O830    1.222   .     D
C797   O831    1.396   .     S
C798   O837    1.282   .     A
C798   C800    1.365   .     S
C798   O834    1.283   .     A
C799   O836    1.282   .     A
C799   O835    1.283   .     A
C799   C801    1.365   .     S
C801   C1340   1.165   .     S
C803   C842    1.392   .     S
C804   C862    1.393   .     S
H805   O816    1.014   .     S
H806   O818    1.014   .     S
H807   O820    1.014   .     S
H808   O822    1.013   .     S
H809   O824    1.014   .     S
H810   O827    1.014   .     S
H811   O829    1.014   .     S
H812   O831    1.014   .     S
N813   Zn839   2.027   .     S
N814   Zn840   2.027   .     S
O815   Zn839   2.016   .     S
O826   Zn840   2.016   .     S
O832   Zn839   1.990   .     S
O833   Zn840   1.990   .     S
O834   Zn839   1.949   .     S
O835   Zn840   1.949   .     S
O836   Zn839   1.945   .     S
O837   Zn840   1.945   .     S
C841   C844    1.456   .     S
C841   O875    1.292   .     A
C841   O893    1.303   .     A
C842   C844    1.418   .     A
C842   C853    1.492   .     S
C843   C863    1.411   .     A
C843   C864    1.415   .     A
C843   C852    1.455   .     S
C844   C862    1.411   .     A
C845   N874    1.375   .     A
C845   C854    1.477   .     S
C846   N873    1.376   .     A
C846   C855    1.478   .     S
C846   C1027   1.427   .     S
C847   C856    1.475   .     S
C847   N874    1.372   .     A
C848   C857    1.475   .     S
C848   N873    1.372   .     A
C848   C1025   1.427   .     S
C849   O876    1.398   .     S
C849   C862    1.492   .     S
C849   O898    1.222   .     D
C850   C863    1.494   .     S
C850   O878    1.398   .     S
C850   O877    1.223   .     D
C851   O880    1.399   .     S
C851   O879    1.222   .     D
C851   C864    1.493   .     S
C852   O892    1.301   .     A
C852   O886    1.294   .     A
C853   O881    1.223   .     D
C853   O882    1.398   .     S
C854   O884    1.397   .     S
C854   O883    1.219   .     D
C855   O887    1.397   .     S
C855   O885    1.219   .     D
C856   O888    1.222   .     D
C856   O889    1.396   .     S
C857   O890    1.222   .     D
C857   O891    1.396   .     S
C858   O897    1.282   .     A
C858   C860    1.365   .     S
C858   O894    1.283   .     A
C859   O896    1.282   .     A
C859   O895    1.283   .     A
C859   C861    1.365   .     S
C861   C1400   1.165   .     S
C863   C722    1.392   1_655 S
C864   C742    1.393   1_655 S
H865   O876    1.014   .     S
H866   O878    1.014   .     S
H867   O880    1.014   .     S
H868   O882    1.013   .     S
H869   O884    1.014   .     S
H870   O887    1.014   .     S
H871   O889    1.014   .     S
H872   O891    1.014   .     S
N873   Zn899   2.027   .     S
N874   Zn900   2.027   .     S
O875   Zn899   2.016   .     S
O886   Zn900   2.016   .     S
O892   Zn899   1.990   .     S
O893   Zn900   1.990   .     S
O894   Zn899   1.949   .     S
O895   Zn900   1.949   .     S
O896   Zn899   1.945   .     S
O897   Zn900   1.945   .     S
C901   C904    1.456   .     S
C901   O935    1.292   .     A
C901   O953    1.303   .     A
C902   C904    1.418   .     A
C902   C913    1.492   .     S
C902   C1043   1.392   1_455 S
C903   C923    1.411   .     A
C903   C924    1.415   .     A
C903   C912    1.455   .     S
C904   C922    1.411   .     A
C905   N934    1.375   .     A
C905   C914    1.477   .     S
C906   N933    1.376   .     A
C906   C915    1.478   .     S
C906   C547    1.427   1_565 S
C907   C916    1.475   .     S
C907   N934    1.372   .     A
C908   C917    1.475   .     S
C908   N933    1.372   .     A
C908   C545    1.427   1_565 S
C909   O936    1.398   .     S
C909   C922    1.492   .     S
C909   O958    1.222   .     D
C910   C923    1.494   .     S
C910   O938    1.398   .     S
C910   O937    1.223   .     D
C911   O940    1.399   .     S
C911   O939    1.222   .     D
C911   C924    1.493   .     S
C912   O952    1.301   .     A
C912   O946    1.294   .     A
C913   O941    1.223   .     D
C913   O942    1.398   .     S
C914   O944    1.397   .     S
C914   O943    1.219   .     D
C915   O947    1.397   .     S
C915   O945    1.219   .     D
C916   O948    1.222   .     D
C916   O949    1.396   .     S
C917   O950    1.222   .     D
C917   O951    1.396   .     S
C918   O957    1.282   .     A
C918   C920    1.365   .     S
C918   O954    1.283   .     A
C919   O956    1.282   .     A
C919   O955    1.283   .     A
C919   C921    1.365   .     S
C921   C1460   1.165   .     S
C922   C1044   1.393   1_455 S
C923   C962    1.392   .     S
C924   C982    1.393   .     S
H925   O936    1.014   .     S
H926   O938    1.014   .     S
H927   O940    1.014   .     S
H928   O942    1.013   .     S
H929   O944    1.014   .     S
H930   O947    1.014   .     S
H931   O949    1.014   .     S
H932   O951    1.014   .     S
N933   Zn959   2.027   .     S
N934   Zn960   2.027   .     S
O935   Zn959   2.016   .     S
O946   Zn960   2.016   .     S
O952   Zn959   1.990   .     S
O953   Zn960   1.990   .     S
O954   Zn959   1.949   .     S
O955   Zn960   1.949   .     S
O956   Zn959   1.945   .     S
O957   Zn960   1.945   .     S
C961   C964    1.456   .     S
C961   O995    1.292   .     A
C961   O1013   1.303   .     A
C962   C964    1.418   .     A
C962   C973    1.492   .     S
C963   C983    1.411   .     A
C963   C984    1.415   .     A
C963   C972    1.455   .     S
C964   C982    1.411   .     A
C965   N994    1.375   .     A
C965   C974    1.477   .     S
C966   N993    1.376   .     A
C966   C975    1.478   .     S
C966   C607    1.427   1_565 S
C967   C976    1.475   .     S
C967   N994    1.372   .     A
C968   C977    1.475   .     S
C968   N993    1.372   .     A
C968   C605    1.427   1_565 S
C969   O996    1.398   .     S
C969   C982    1.492   .     S
C969   O1018   1.222   .     D
C970   C983    1.494   .     S
C970   O998    1.398   .     S
C970   O997    1.223   .     D
C971   O1000   1.399   .     S
C971   O999    1.222   .     D
C971   C984    1.493   .     S
C972   O1012   1.301   .     A
C972   O1006   1.294   .     A
C973   O1001   1.223   .     D
C973   O1002   1.398   .     S
C974   O1004   1.397   .     S
C974   O1003   1.219   .     D
C975   O1007   1.397   .     S
C975   O1005   1.219   .     D
C976   O1008   1.222   .     D
C976   O1009   1.396   .     S
C977   O1010   1.222   .     D
C977   O1011   1.396   .     S
C978   O1017   1.282   .     A
C978   C980    1.365   .     S
C978   O1014   1.283   .     A
C979   O1016   1.282   .     A
C979   O1015   1.283   .     A
C979   C981    1.365   .     S
C981   C1520   1.165   .     S
C983   C1022   1.392   .     S
C984   C1042   1.393   .     S
H985   O996    1.014   .     S
H986   O998    1.014   .     S
H987   O1000   1.014   .     S
H988   O1002   1.013   .     S
H989   O1004   1.014   .     S
H990   O1007   1.014   .     S
H991   O1009   1.014   .     S
H992   O1011   1.014   .     S
N993   Zn1019  2.027   .     S
N994   Zn1020  2.027   .     S
O995   Zn1019  2.016   .     S
O1006  Zn1020  2.016   .     S
O1012  Zn1019  1.990   .     S
O1013  Zn1020  1.990   .     S
O1014  Zn1019  1.949   .     S
O1015  Zn1020  1.949   .     S
O1016  Zn1019  1.945   .     S
O1017  Zn1020  1.945   .     S
C1021  C1024   1.456   .     S
C1021  O1055   1.292   .     A
C1021  O1073   1.303   .     A
C1022  C1024   1.418   .     A
C1022  C1033   1.492   .     S
C1023  C1043   1.411   .     A
C1023  C1044   1.415   .     A
C1023  C1032   1.455   .     S
C1024  C1042   1.411   .     A
C1025  N1054   1.375   .     A
C1025  C1034   1.477   .     S
C1026  N1053   1.376   .     A
C1026  C1035   1.478   .     S
C1026  C667    1.427   1_565 S
C1027  C1036   1.475   .     S
C1027  N1054   1.372   .     A
C1028  C1037   1.475   .     S
C1028  N1053   1.372   .     A
C1028  C665    1.427   1_565 S
C1029  O1056   1.398   .     S
C1029  C1042   1.492   .     S
C1029  O1078   1.222   .     D
C1030  C1043   1.494   .     S
C1030  O1058   1.398   .     S
C1030  O1057   1.223   .     D
C1031  O1060   1.399   .     S
C1031  O1059   1.222   .     D
C1031  C1044   1.493   .     S
C1032  O1072   1.301   .     A
C1032  O1066   1.294   .     A
C1033  O1061   1.223   .     D
C1033  O1062   1.398   .     S
C1034  O1064   1.397   .     S
C1034  O1063   1.219   .     D
C1035  O1067   1.397   .     S
C1035  O1065   1.219   .     D
C1036  O1068   1.222   .     D
C1036  O1069   1.396   .     S
C1037  O1070   1.222   .     D
C1037  O1071   1.396   .     S
C1038  O1077   1.282   .     A
C1038  C1040   1.365   .     S
C1038  O1074   1.283   .     A
C1039  O1076   1.282   .     A
C1039  O1075   1.283   .     A
C1039  C1041   1.365   .     S
C1041  C1580   1.165   .     S
C1043  C902    1.392   1_655 S
C1044  C922    1.393   1_655 S
H1045  O1056   1.014   .     S
H1046  O1058   1.014   .     S
H1047  O1060   1.014   .     S
H1048  O1062   1.013   .     S
H1049  O1064   1.014   .     S
H1050  O1067   1.014   .     S
H1051  O1069   1.014   .     S
H1052  O1071   1.014   .     S
N1053  Zn1079  2.027   .     S
N1054  Zn1080  2.027   .     S
O1055  Zn1079  2.016   .     S
O1066  Zn1080  2.016   .     S
O1072  Zn1079  1.990   .     S
O1073  Zn1080  1.990   .     S
O1074  Zn1079  1.949   .     S
O1075  Zn1080  1.949   .     S
O1076  Zn1079  1.945   .     S
O1077  Zn1080  1.945   .     S
C1081  C1084   1.456   .     S
C1081  O1115   1.292   .     A
C1081  O1133   1.303   .     A
C1082  C1084   1.418   .     A
C1082  C1093   1.492   .     S
C1082  C1223   1.392   1_455 S
C1083  C1103   1.411   .     A
C1083  C1104   1.415   .     A
C1083  C1092   1.455   .     S
C1084  C1102   1.411   .     A
C1085  N1114   1.375   .     A
C1085  C1094   1.477   .     S
C1085  C1448   1.427   1_545 S
C1086  N1113   1.376   .     A
C1086  C1095   1.478   .     S
C1086  C1267   1.427   .     S
C1087  C1096   1.475   .     S
C1087  N1114   1.372   .     A
C1087  C1446   1.427   1_545 S
C1088  C1097   1.475   .     S
C1088  N1113   1.372   .     A
C1088  C1265   1.427   .     S
C1089  O1116   1.398   .     S
C1089  C1102   1.492   .     S
C1089  O1138   1.222   .     D
C1090  C1103   1.494   .     S
C1090  O1118   1.398   .     S
C1090  O1117   1.223   .     D
C1091  O1120   1.399   .     S
C1091  O1119   1.222   .     D
C1091  C1104   1.493   .     S
C1092  O1132   1.301   .     A
C1092  O1126   1.294   .     A
C1093  O1121   1.223   .     D
C1093  O1122   1.398   .     S
C1094  O1124   1.397   .     S
C1094  O1123   1.219   .     D
C1095  O1127   1.397   .     S
C1095  O1125   1.219   .     D
C1096  O1128   1.222   .     D
C1096  O1129   1.396   .     S
C1097  O1130   1.222   .     D
C1097  O1131   1.396   .     S
C1098  O1137   1.282   .     A
C1098  C1100   1.365   .     S
C1098  O1134   1.283   .     A
C1099  O1136   1.282   .     A
C1099  O1135   1.283   .     A
C1099  C1101   1.365   .     S
C1101  C20     1.165   1_556 S
C1102  C1224   1.393   1_455 S
C1103  C1142   1.392   .     S
C1104  C1162   1.393   .     S
H1105  O1116   1.014   .     S
H1106  O1118   1.014   .     S
H1107  O1120   1.014   .     S
H1108  O1122   1.013   .     S
H1109  O1124   1.014   .     S
H1110  O1127   1.014   .     S
H1111  O1129   1.014   .     S
H1112  O1131   1.014   .     S
N1113  Zn1139  2.027   .     S
N1114  Zn1140  2.027   .     S
O1115  Zn1139  2.016   .     S
O1126  Zn1140  2.016   .     S
O1132  Zn1139  1.990   .     S
O1133  Zn1140  1.990   .     S
O1134  Zn1139  1.949   .     S
O1135  Zn1140  1.949   .     S
O1136  Zn1139  1.945   .     S
O1137  Zn1140  1.945   .     S
C1141  C1144   1.456   .     S
C1141  O1175   1.292   .     A
C1141  O1193   1.303   .     A
C1142  C1144   1.418   .     A
C1142  C1153   1.492   .     S
C1143  C1163   1.411   .     A
C1143  C1164   1.415   .     A
C1143  C1152   1.455   .     S
C1144  C1162   1.411   .     A
C1145  N1174   1.375   .     A
C1145  C1154   1.477   .     S
C1145  C1508   1.427   1_545 S
C1146  N1173   1.376   .     A
C1146  C1155   1.478   .     S
C1146  C1327   1.427   .     S
C1147  C1156   1.475   .     S
C1147  N1174   1.372   .     A
C1147  C1506   1.427   1_545 S
C1148  C1157   1.475   .     S
C1148  N1173   1.372   .     A
C1148  C1325   1.427   .     S
C1149  O1176   1.398   .     S
C1149  C1162   1.492   .     S
C1149  O1198   1.222   .     D
C1150  C1163   1.494   .     S
C1150  O1178   1.398   .     S
C1150  O1177   1.223   .     D
C1151  O1180   1.399   .     S
C1151  O1179   1.222   .     D
C1151  C1164   1.493   .     S
C1152  O1192   1.301   .     A
C1152  O1186   1.294   .     A
C1153  O1181   1.223   .     D
C1153  O1182   1.398   .     S
C1154  O1184   1.397   .     S
C1154  O1183   1.219   .     D
C1155  O1187   1.397   .     S
C1155  O1185   1.219   .     D
C1156  O1188   1.222   .     D
C1156  O1189   1.396   .     S
C1157  O1190   1.222   .     D
C1157  O1191   1.396   .     S
C1158  O1197   1.282   .     A
C1158  C1160   1.365   .     S
C1158  O1194   1.283   .     A
C1159  O1196   1.282   .     A
C1159  O1195   1.283   .     A
C1159  C1161   1.365   .     S
C1161  C80     1.165   1_556 S
C1163  C1202   1.392   .     S
C1164  C1222   1.393   .     S
H1165  O1176   1.014   .     S
H1166  O1178   1.014   .     S
H1167  O1180   1.014   .     S
H1168  O1182   1.013   .     S
H1169  O1184   1.014   .     S
H1170  O1187   1.014   .     S
H1171  O1189   1.014   .     S
H1172  O1191   1.014   .     S
N1173  Zn1199  2.027   .     S
N1174  Zn1200  2.027   .     S
O1175  Zn1199  2.016   .     S
O1186  Zn1200  2.016   .     S
O1192  Zn1199  1.990   .     S
O1193  Zn1200  1.990   .     S
O1194  Zn1199  1.949   .     S
O1195  Zn1200  1.949   .     S
O1196  Zn1199  1.945   .     S
O1197  Zn1200  1.945   .     S
C1201  C1204   1.456   .     S
C1201  O1235   1.292   .     A
C1201  O1253   1.303   .     A
C1202  C1204   1.418   .     A
C1202  C1213   1.492   .     S
C1203  C1223   1.411   .     A
C1203  C1224   1.415   .     A
C1203  C1212   1.455   .     S
C1204  C1222   1.411   .     A
C1205  N1234   1.375   .     A
C1205  C1214   1.477   .     S
C1205  C1568   1.427   1_545 S
C1206  N1233   1.376   .     A
C1206  C1215   1.478   .     S
C1206  C1387   1.427   .     S
C1207  C1216   1.475   .     S
C1207  N1234   1.372   .     A
C1207  C1566   1.427   1_545 S
C1208  C1217   1.475   .     S
C1208  N1233   1.372   .     A
C1208  C1385   1.427   .     S
C1209  O1236   1.398   .     S
C1209  C1222   1.492   .     S
C1209  O1258   1.222   .     D
C1210  C1223   1.494   .     S
C1210  O1238   1.398   .     S
C1210  O1237   1.223   .     D
C1211  O1240   1.399   .     S
C1211  O1239   1.222   .     D
C1211  C1224   1.493   .     S
C1212  O1252   1.301   .     A
C1212  O1246   1.294   .     A
C1213  O1241   1.223   .     D
C1213  O1242   1.398   .     S
C1214  O1244   1.397   .     S
C1214  O1243   1.219   .     D
C1215  O1247   1.397   .     S
C1215  O1245   1.219   .     D
C1216  O1248   1.222   .     D
C1216  O1249   1.396   .     S
C1217  O1250   1.222   .     D
C1217  O1251   1.396   .     S
C1218  O1257   1.282   .     A
C1218  C1220   1.365   .     S
C1218  O1254   1.283   .     A
C1219  O1256   1.282   .     A
C1219  O1255   1.283   .     A
C1219  C1221   1.365   .     S
C1221  C140    1.165   1_556 S
C1223  C1082   1.392   1_655 S
C1224  C1102   1.393   1_655 S
H1225  O1236   1.014   .     S
H1226  O1238   1.014   .     S
H1227  O1240   1.014   .     S
H1228  O1242   1.013   .     S
H1229  O1244   1.014   .     S
H1230  O1247   1.014   .     S
H1231  O1249   1.014   .     S
H1232  O1251   1.014   .     S
N1233  Zn1259  2.027   .     S
N1234  Zn1260  2.027   .     S
O1235  Zn1259  2.016   .     S
O1246  Zn1260  2.016   .     S
O1252  Zn1259  1.990   .     S
O1253  Zn1260  1.990   .     S
O1254  Zn1259  1.949   .     S
O1255  Zn1260  1.949   .     S
O1256  Zn1259  1.945   .     S
O1257  Zn1260  1.945   .     S
C1261  C1264   1.456   .     S
C1261  O1295   1.292   .     A
C1261  O1313   1.303   .     A
C1262  C1264   1.418   .     A
C1262  C1273   1.492   .     S
C1262  C1403   1.392   1_455 S
C1263  C1283   1.411   .     A
C1263  C1284   1.415   .     A
C1263  C1272   1.455   .     S
C1264  C1282   1.411   .     A
C1265  N1294   1.375   .     A
C1265  C1274   1.477   .     S
C1266  N1293   1.376   .     A
C1266  C1275   1.478   .     S
C1266  C1447   1.427   .     S
C1267  C1276   1.475   .     S
C1267  N1294   1.372   .     A
C1268  C1277   1.475   .     S
C1268  N1293   1.372   .     A
C1268  C1445   1.427   .     S
C1269  O1296   1.398   .     S
C1269  C1282   1.492   .     S
C1269  O1318   1.222   .     D
C1270  C1283   1.494   .     S
C1270  O1298   1.398   .     S
C1270  O1297   1.223   .     D
C1271  O1300   1.399   .     S
C1271  O1299   1.222   .     D
C1271  C1284   1.493   .     S
C1272  O1312   1.301   .     A
C1272  O1306   1.294   .     A
C1273  O1301   1.223   .     D
C1273  O1302   1.398   .     S
C1274  O1304   1.397   .     S
C1274  O1303   1.219   .     D
C1275  O1307   1.397   .     S
C1275  O1305   1.219   .     D
C1276  O1308   1.222   .     D
C1276  O1309   1.396   .     S
C1277  O1310   1.222   .     D
C1277  O1311   1.396   .     S
C1278  O1317   1.282   .     A
C1278  C1280   1.365   .     S
C1278  O1314   1.283   .     A
C1279  O1316   1.282   .     A
C1279  O1315   1.283   .     A
C1279  C1281   1.365   .     S
C1281  C200    1.165   1_556 S
C1282  C1404   1.393   1_455 S
C1283  C1322   1.392   .     S
C1284  C1342   1.393   .     S
H1285  O1296   1.014   .     S
H1286  O1298   1.014   .     S
H1287  O1300   1.014   .     S
H1288  O1302   1.013   .     S
H1289  O1304   1.014   .     S
H1290  O1307   1.014   .     S
H1291  O1309   1.014   .     S
H1292  O1311   1.014   .     S
N1293  Zn1319  2.027   .     S
N1294  Zn1320  2.027   .     S
O1295  Zn1319  2.016   .     S
O1306  Zn1320  2.016   .     S
O1312  Zn1319  1.990   .     S
O1313  Zn1320  1.990   .     S
O1314  Zn1319  1.949   .     S
O1315  Zn1320  1.949   .     S
O1316  Zn1319  1.945   .     S
O1317  Zn1320  1.945   .     S
C1321  C1324   1.456   .     S
C1321  O1355   1.292   .     A
C1321  O1373   1.303   .     A
C1322  C1324   1.418   .     A
C1322  C1333   1.492   .     S
C1323  C1343   1.411   .     A
C1323  C1344   1.415   .     A
C1323  C1332   1.455   .     S
C1324  C1342   1.411   .     A
C1325  N1354   1.375   .     A
C1325  C1334   1.477   .     S
C1326  N1353   1.376   .     A
C1326  C1335   1.478   .     S
C1326  C1507   1.427   .     S
C1327  C1336   1.475   .     S
C1327  N1354   1.372   .     A
C1328  C1337   1.475   .     S
C1328  N1353   1.372   .     A
C1328  C1505   1.427   .     S
C1329  O1356   1.398   .     S
C1329  C1342   1.492   .     S
C1329  O1378   1.222   .     D
C1330  C1343   1.494   .     S
C1330  O1358   1.398   .     S
C1330  O1357   1.223   .     D
C1331  O1360   1.399   .     S
C1331  O1359   1.222   .     D
C1331  C1344   1.493   .     S
C1332  O1372   1.301   .     A
C1332  O1366   1.294   .     A
C1333  O1361   1.223   .     D
C1333  O1362   1.398   .     S
C1334  O1364   1.397   .     S
C1334  O1363   1.219   .     D
C1335  O1367   1.397   .     S
C1335  O1365   1.219   .     D
C1336  O1368   1.222   .     D
C1336  O1369   1.396   .     S
C1337  O1370   1.222   .     D
C1337  O1371   1.396   .     S
C1338  O1377   1.282   .     A
C1338  C1340   1.365   .     S
C1338  O1374   1.283   .     A
C1339  O1376   1.282   .     A
C1339  O1375   1.283   .     A
C1339  C1341   1.365   .     S
C1341  C260    1.165   1_556 S
C1343  C1382   1.392   .     S
C1344  C1402   1.393   .     S
H1345  O1356   1.014   .     S
H1346  O1358   1.014   .     S
H1347  O1360   1.014   .     S
H1348  O1362   1.013   .     S
H1349  O1364   1.014   .     S
H1350  O1367   1.014   .     S
H1351  O1369   1.014   .     S
H1352  O1371   1.014   .     S
N1353  Zn1379  2.027   .     S
N1354  Zn1380  2.027   .     S
O1355  Zn1379  2.016   .     S
O1366  Zn1380  2.016   .     S
O1372  Zn1379  1.990   .     S
O1373  Zn1380  1.990   .     S
O1374  Zn1379  1.949   .     S
O1375  Zn1380  1.949   .     S
O1376  Zn1379  1.945   .     S
O1377  Zn1380  1.945   .     S
C1381  C1384   1.456   .     S
C1381  O1415   1.292   .     A
C1381  O1433   1.303   .     A
C1382  C1384   1.418   .     A
C1382  C1393   1.492   .     S
C1383  C1403   1.411   .     A
C1383  C1404   1.415   .     A
C1383  C1392   1.455   .     S
C1384  C1402   1.411   .     A
C1385  N1414   1.375   .     A
C1385  C1394   1.477   .     S
C1386  N1413   1.376   .     A
C1386  C1395   1.478   .     S
C1386  C1567   1.427   .     S
C1387  C1396   1.475   .     S
C1387  N1414   1.372   .     A
C1388  C1397   1.475   .     S
C1388  N1413   1.372   .     A
C1388  C1565   1.427   .     S
C1389  O1416   1.398   .     S
C1389  C1402   1.492   .     S
C1389  O1438   1.222   .     D
C1390  C1403   1.494   .     S
C1390  O1418   1.398   .     S
C1390  O1417   1.223   .     D
C1391  O1420   1.399   .     S
C1391  O1419   1.222   .     D
C1391  C1404   1.493   .     S
C1392  O1432   1.301   .     A
C1392  O1426   1.294   .     A
C1393  O1421   1.223   .     D
C1393  O1422   1.398   .     S
C1394  O1424   1.397   .     S
C1394  O1423   1.219   .     D
C1395  O1427   1.397   .     S
C1395  O1425   1.219   .     D
C1396  O1428   1.222   .     D
C1396  O1429   1.396   .     S
C1397  O1430   1.222   .     D
C1397  O1431   1.396   .     S
C1398  O1437   1.282   .     A
C1398  C1400   1.365   .     S
C1398  O1434   1.283   .     A
C1399  O1436   1.282   .     A
C1399  O1435   1.283   .     A
C1399  C1401   1.365   .     S
C1401  C320    1.165   1_556 S
C1403  C1262   1.392   1_655 S
C1404  C1282   1.393   1_655 S
H1405  O1416   1.014   .     S
H1406  O1418   1.014   .     S
H1407  O1420   1.014   .     S
H1408  O1422   1.013   .     S
H1409  O1424   1.014   .     S
H1410  O1427   1.014   .     S
H1411  O1429   1.014   .     S
H1412  O1431   1.014   .     S
N1413  Zn1439  2.027   .     S
N1414  Zn1440  2.027   .     S
O1415  Zn1439  2.016   .     S
O1426  Zn1440  2.016   .     S
O1432  Zn1439  1.990   .     S
O1433  Zn1440  1.990   .     S
O1434  Zn1439  1.949   .     S
O1435  Zn1440  1.949   .     S
O1436  Zn1439  1.945   .     S
O1437  Zn1440  1.945   .     S
C1441  C1444   1.456   .     S
C1441  O1475   1.292   .     A
C1441  O1493   1.303   .     A
C1442  C1444   1.418   .     A
C1442  C1453   1.492   .     S
C1442  C1583   1.392   1_455 S
C1443  C1463   1.411   .     A
C1443  C1464   1.415   .     A
C1443  C1452   1.455   .     S
C1444  C1462   1.411   .     A
C1445  N1474   1.375   .     A
C1445  C1454   1.477   .     S
C1446  N1473   1.376   .     A
C1446  C1455   1.478   .     S
C1446  C1087   1.427   1_565 S
C1447  C1456   1.475   .     S
C1447  N1474   1.372   .     A
C1448  C1457   1.475   .     S
C1448  N1473   1.372   .     A
C1448  C1085   1.427   1_565 S
C1449  O1476   1.398   .     S
C1449  C1462   1.492   .     S
C1449  O1498   1.222   .     D
C1450  C1463   1.494   .     S
C1450  O1478   1.398   .     S
C1450  O1477   1.223   .     D
C1451  O1480   1.399   .     S
C1451  O1479   1.222   .     D
C1451  C1464   1.493   .     S
C1452  O1492   1.301   .     A
C1452  O1486   1.294   .     A
C1453  O1481   1.223   .     D
C1453  O1482   1.398   .     S
C1454  O1484   1.397   .     S
C1454  O1483   1.219   .     D
C1455  O1487   1.397   .     S
C1455  O1485   1.219   .     D
C1456  O1488   1.222   .     D
C1456  O1489   1.396   .     S
C1457  O1490   1.222   .     D
C1457  O1491   1.396   .     S
C1458  O1497   1.282   .     A
C1458  C1460   1.365   .     S
C1458  O1494   1.283   .     A
C1459  O1496   1.282   .     A
C1459  O1495   1.283   .     A
C1459  C1461   1.365   .     S
C1461  C380    1.165   1_556 S
C1462  C1584   1.393   1_455 S
C1463  C1502   1.392   .     S
C1464  C1522   1.393   .     S
H1465  O1476   1.014   .     S
H1466  O1478   1.014   .     S
H1467  O1480   1.014   .     S
H1468  O1482   1.013   .     S
H1469  O1484   1.014   .     S
H1470  O1487   1.014   .     S
H1471  O1489   1.014   .     S
H1472  O1491   1.014   .     S
N1473  Zn1499  2.027   .     S
N1474  Zn1500  2.027   .     S
O1475  Zn1499  2.016   .     S
O1486  Zn1500  2.016   .     S
O1492  Zn1499  1.990   .     S
O1493  Zn1500  1.990   .     S
O1494  Zn1499  1.949   .     S
O1495  Zn1500  1.949   .     S
O1496  Zn1499  1.945   .     S
O1497  Zn1500  1.945   .     S
C1501  C1504   1.456   .     S
C1501  O1535   1.292   .     A
C1501  O1553   1.303   .     A
C1502  C1504   1.418   .     A
C1502  C1513   1.492   .     S
C1503  C1523   1.411   .     A
C1503  C1524   1.415   .     A
C1503  C1512   1.455   .     S
C1504  C1522   1.411   .     A
C1505  N1534   1.375   .     A
C1505  C1514   1.477   .     S
C1506  N1533   1.376   .     A
C1506  C1515   1.478   .     S
C1506  C1147   1.427   1_565 S
C1507  C1516   1.475   .     S
C1507  N1534   1.372   .     A
C1508  C1517   1.475   .     S
C1508  N1533   1.372   .     A
C1508  C1145   1.427   1_565 S
C1509  O1536   1.398   .     S
C1509  C1522   1.492   .     S
C1509  O1558   1.222   .     D
C1510  C1523   1.494   .     S
C1510  O1538   1.398   .     S
C1510  O1537   1.223   .     D
C1511  O1540   1.399   .     S
C1511  O1539   1.222   .     D
C1511  C1524   1.493   .     S
C1512  O1552   1.301   .     A
C1512  O1546   1.294   .     A
C1513  O1541   1.223   .     D
C1513  O1542   1.398   .     S
C1514  O1544   1.397   .     S
C1514  O1543   1.219   .     D
C1515  O1547   1.397   .     S
C1515  O1545   1.219   .     D
C1516  O1548   1.222   .     D
C1516  O1549   1.396   .     S
C1517  O1550   1.222   .     D
C1517  O1551   1.396   .     S
C1518  O1557   1.282   .     A
C1518  C1520   1.365   .     S
C1518  O1554   1.283   .     A
C1519  O1556   1.282   .     A
C1519  O1555   1.283   .     A
C1519  C1521   1.365   .     S
C1521  C440    1.165   1_556 S
C1523  C1562   1.392   .     S
C1524  C1582   1.393   .     S
H1525  O1536   1.014   .     S
H1526  O1538   1.014   .     S
H1527  O1540   1.014   .     S
H1528  O1542   1.013   .     S
H1529  O1544   1.014   .     S
H1530  O1547   1.014   .     S
H1531  O1549   1.014   .     S
H1532  O1551   1.014   .     S
N1533  Zn1559  2.027   .     S
N1534  Zn1560  2.027   .     S
O1535  Zn1559  2.016   .     S
O1546  Zn1560  2.016   .     S
O1552  Zn1559  1.990   .     S
O1553  Zn1560  1.990   .     S
O1554  Zn1559  1.949   .     S
O1555  Zn1560  1.949   .     S
O1556  Zn1559  1.945   .     S
O1557  Zn1560  1.945   .     S
C1561  C1564   1.456   .     S
C1561  O1595   1.292   .     A
C1561  O1613   1.303   .     A
C1562  C1564   1.418   .     A
C1562  C1573   1.492   .     S
C1563  C1583   1.411   .     A
C1563  C1584   1.415   .     A
C1563  C1572   1.455   .     S
C1564  C1582   1.411   .     A
C1565  N1594   1.375   .     A
C1565  C1574   1.477   .     S
C1566  N1593   1.376   .     A
C1566  C1575   1.478   .     S
C1566  C1207   1.427   1_565 S
C1567  C1576   1.475   .     S
C1567  N1594   1.372   .     A
C1568  C1577   1.475   .     S
C1568  N1593   1.372   .     A
C1568  C1205   1.427   1_565 S
C1569  O1596   1.398   .     S
C1569  C1582   1.492   .     S
C1569  O1618   1.222   .     D
C1570  C1583   1.494   .     S
C1570  O1598   1.398   .     S
C1570  O1597   1.223   .     D
C1571  O1600   1.399   .     S
C1571  O1599   1.222   .     D
C1571  C1584   1.493   .     S
C1572  O1612   1.301   .     A
C1572  O1606   1.294   .     A
C1573  O1601   1.223   .     D
C1573  O1602   1.398   .     S
C1574  O1604   1.397   .     S
C1574  O1603   1.219   .     D
C1575  O1607   1.397   .     S
C1575  O1605   1.219   .     D
C1576  O1608   1.222   .     D
C1576  O1609   1.396   .     S
C1577  O1610   1.222   .     D
C1577  O1611   1.396   .     S
C1578  O1617   1.282   .     A
C1578  C1580   1.365   .     S
C1578  O1614   1.283   .     A
C1579  O1616   1.282   .     A
C1579  O1615   1.283   .     A
C1579  C1581   1.365   .     S
C1581  C500    1.165   1_556 S
C1583  C1442   1.392   1_655 S
C1584  C1462   1.393   1_655 S
H1585  O1596   1.014   .     S
H1586  O1598   1.014   .     S
H1587  O1600   1.014   .     S
H1588  O1602   1.013   .     S
H1589  O1604   1.014   .     S
H1590  O1607   1.014   .     S
H1591  O1609   1.014   .     S
H1592  O1611   1.014   .     S
N1593  Zn1619  2.027   .     S
N1594  Zn1620  2.027   .     S
O1595  Zn1619  2.016   .     S
O1606  Zn1620  2.016   .     S
O1612  Zn1619  1.990   .     S
O1613  Zn1620  1.990   .     S
O1614  Zn1619  1.949   .     S
O1615  Zn1620  1.949   .     S
O1616  Zn1619  1.945   .     S
O1617  Zn1620  1.945   .     S
