data_str_m1_o10_o16_pcu_sym.7
_audit_creation_date              2020-01-03
_audit_creation_method            'Materials Studio'
_symmetry_space_group_name_H-M    'P1'
_symmetry_Int_Tables_number       1
_symmetry_cell_setting            triclinic
loop_
_symmetry_equiv_pos_as_xyz
  x,y,z
_cell_length_a                    32.7266
_cell_length_b                    32.6488
_cell_length_c                    30.9875
_cell_angle_alpha                 97.0298
_cell_angle_beta                  74.5510
_cell_angle_gamma                 98.3275
loop_
_atom_site_label
_atom_site_type_symbol
_atom_site_fract_x
_atom_site_fract_y
_atom_site_fract_z
_atom_site_U_iso_or_equiv
_atom_site_adp_type
_atom_site_occupancy
C1     C     0.05301   0.15990   0.25995   0.00000  Uiso   1.00
C2     C     0.17140   0.16410   0.05945   0.00000  Uiso   1.00
C3     C     0.21272   0.10712   0.05697   0.00000  Uiso   1.00
C4     C     0.28064   0.17366   0.24016   0.00000  Uiso   1.00
C5     C     0.14446   0.19666   0.41977   0.00000  Uiso   1.00
C6     C     0.32652   0.17515   0.23589   0.00000  Uiso   1.00
C7     C     0.00800   0.15745   0.26519   0.00000  Uiso   1.00
C8     C     0.17996   0.32255   0.23887   0.00000  Uiso   1.00
C9     C     0.15024   0.01254   0.26436   0.00000  Uiso   1.00
C10    C     0.15641   0.05609   0.25976   0.00000  Uiso   1.00
C11    C     0.17630   0.27785   0.24054   0.00000  Uiso   1.00
C12    C     0.15517   0.25428   0.47534   0.00000  Uiso   1.00
C13    C     0.18532   0.14786   0.12944   0.00000  Uiso   1.00
C14    C     0.14843   0.18493   0.37110   0.00000  Uiso   1.00
C15    C     0.21001   0.09450   0.01274   0.00000  Uiso   1.00
C16    C     0.19119   0.14048   0.08096   0.00000  Uiso   1.00
C17    C     0.14126   0.23882   0.43675   0.00000  Uiso   1.00
C18    C     0.31519   0.13789   0.30457   0.00000  Uiso   1.00
C19    C     0.10996   0.32998   0.29341   0.00000  Uiso   1.00
C20    C     0.23242   0.06000   0.48897   0.00000  Uiso   1.00
C21    C     0.14039   0.19073   0.08667   0.00000  Uiso   1.00
C22    C     0.12795   0.26795   0.41292   0.00000  Uiso   1.00
C23    C     0.17065   0.22780   0.49787   0.00000  Uiso   1.00
C24    C     0.12338   0.10401   0.40705   0.00000  Uiso   1.00
C25    C     0.16531   0.18417   0.48692   0.00000  Uiso   1.00
C26    C     0.15290   0.16837   0.44700   0.00000  Uiso   1.00
C27    C     0.17551   0.15598   0.01281   0.00000  Uiso   1.00
C28    C     0.18735   0.11682   0.49200   0.00000  Uiso   1.00
C29    C     0.17240   0.10023   0.45389   0.00000  Uiso   1.00
C30    C     0.15065   0.12476   0.43515   0.00000  Uiso   1.00
H31    H     0.20815   0.00386   0.21613   0.00000  Uiso   1.00
H32    H     0.01705   0.18114   0.16935   0.00000  Uiso   1.00
H33    H     0.01660   0.22641   0.20237   0.00000  Uiso   1.00
H34    H     0.25819   0.10509   0.08977   0.00000  Uiso   1.00
H35    H     0.21362   0.07124   0.10570   0.00000  Uiso   1.00
H36    H     0.14435   0.04171   0.44195   0.00000  Uiso   1.00
H37    H     0.18993   0.05605   0.40284   0.00000  Uiso   1.00
H38    H     0.17858   0.26560   0.05298   0.00000  Uiso   1.00
H39    H     0.22293   0.26361   0.01017   0.00000  Uiso   1.00
H40    H     0.17659   0.31431   0.46423   0.00000  Uiso   1.00
H41    H     0.12618   0.30650   0.49734   0.00000  Uiso   1.00
N42    N     0.23525   0.08427   0.07809   0.00000  Uiso   1.00
N43    N     0.10160   0.08734   0.38475   0.00000  Uiso   1.00
N44    N     0.02284   0.19555   0.19953   0.00000  Uiso   1.00
N45    N     0.29448   0.12228   0.33605   0.00000  Uiso   1.00
N46    N     0.07770   0.31747   0.31659   0.00000  Uiso   1.00
N47    N     0.17519   0.05743   0.43728   0.00000  Uiso   1.00
N48    N     0.25060   0.03255   0.47008   0.00000  Uiso   1.00
N49    N     0.11559   0.21171   0.10846   0.00000  Uiso   1.00
N50    N     0.11738   0.29136   0.39407   0.00000  Uiso   1.00
N51    N     0.19617   0.24568   0.02823   0.00000  Uiso   1.00
N52    N     0.15692   0.29773   0.49033   0.00000  Uiso   1.00
O53    O     0.16667   0.16667   0.25000   0.00000  Uiso   1.00
O54    O     0.15451   0.12637   0.15459   0.00000  Uiso   1.00
O55    O     0.12940   0.20391   0.34968   0.00000  Uiso   1.00
O56    O     0.20824   0.17759   0.14606   0.00000  Uiso   1.00
O57    O     0.17451   0.15880   0.34968   0.00000  Uiso   1.00
O58    O     0.17930   0.08019   0.28214   0.00000  Uiso   1.00
O59    O     0.14632   0.26085   0.27014   0.00000  Uiso   1.00
O60    O     0.07412   0.13291   0.23413   0.00000  Uiso   1.00
O61    O     0.26693   0.19272   0.21361   0.00000  Uiso   1.00
O62    O     0.07071   0.18878   0.28213   0.00000  Uiso   1.00
O63    O     0.25491   0.15226   0.27014   0.00000  Uiso   1.00
O64    O     0.13760   0.06944   0.23413   0.00000  Uiso   1.00
O65    O     0.20345   0.25620   0.21361   0.00000  Uiso   1.00
Zn66   Zn    0.19338   0.13994   0.28734   0.00000  Uiso   1.00
Zn67   Zn    0.13379   0.12458   0.21876   0.00000  Uiso   1.00
Zn68   Zn    0.21056   0.19775   0.20657   0.00000  Uiso   1.00
Zn69   Zn    0.12893   0.20439   0.28734   0.00000  Uiso   1.00
C70    C     0.38635   0.15990   0.25995   0.00000  Uiso   1.00
C71    C     0.50473   0.16410   0.05945   0.00000  Uiso   1.00
C72    C     0.54606   0.10712   0.05697   0.00000  Uiso   1.00
C73    C     0.61398   0.17366   0.24016   0.00000  Uiso   1.00
C74    C     0.47779   0.19666   0.41977   0.00000  Uiso   1.00
C75    C     0.65986   0.17515   0.23589   0.00000  Uiso   1.00
C76    C     0.34134   0.15745   0.26519   0.00000  Uiso   1.00
C77    C     0.51329   0.32255   0.23887   0.00000  Uiso   1.00
C78    C     0.48358   0.01254   0.26436   0.00000  Uiso   1.00
C79    C     0.48974   0.05609   0.25976   0.00000  Uiso   1.00
C80    C     0.50964   0.27785   0.24054   0.00000  Uiso   1.00
C81    C     0.48850   0.25428   0.47534   0.00000  Uiso   1.00
C82    C     0.51866   0.14786   0.12944   0.00000  Uiso   1.00
C83    C     0.48176   0.18493   0.37110   0.00000  Uiso   1.00
C84    C     0.54335   0.09450   0.01274   0.00000  Uiso   1.00
C85    C     0.52452   0.14048   0.08096   0.00000  Uiso   1.00
C86    C     0.47459   0.23882   0.43675   0.00000  Uiso   1.00
C87    C     0.64852   0.13789   0.30457   0.00000  Uiso   1.00
C88    C     0.44329   0.32998   0.29341   0.00000  Uiso   1.00
C89    C     0.56575   0.06000   0.48897   0.00000  Uiso   1.00
C90    C     0.47372   0.19073   0.08667   0.00000  Uiso   1.00
C91    C     0.46129   0.26795   0.41292   0.00000  Uiso   1.00
C92    C     0.50398   0.22780   0.49787   0.00000  Uiso   1.00
C93    C     0.45672   0.10401   0.40705   0.00000  Uiso   1.00
C94    C     0.49864   0.18417   0.48692   0.00000  Uiso   1.00
C95    C     0.48623   0.16837   0.44700   0.00000  Uiso   1.00
C96    C     0.50884   0.15598   0.01281   0.00000  Uiso   1.00
C97    C     0.52068   0.11682   0.49200   0.00000  Uiso   1.00
C98    C     0.50573   0.10023   0.45389   0.00000  Uiso   1.00
C99    C     0.48399   0.12476   0.43515   0.00000  Uiso   1.00
H100   H     0.54148   0.00386   0.21613   0.00000  Uiso   1.00
H101   H     0.35039   0.18114   0.16935   0.00000  Uiso   1.00
H102   H     0.34994   0.22641   0.20237   0.00000  Uiso   1.00
H103   H     0.59152   0.10509   0.08977   0.00000  Uiso   1.00
H104   H     0.54695   0.07124   0.10570   0.00000  Uiso   1.00
H105   H     0.47769   0.04171   0.44195   0.00000  Uiso   1.00
H106   H     0.52327   0.05605   0.40284   0.00000  Uiso   1.00
H107   H     0.51192   0.26560   0.05298   0.00000  Uiso   1.00
H108   H     0.55626   0.26361   0.01017   0.00000  Uiso   1.00
H109   H     0.50993   0.31431   0.46423   0.00000  Uiso   1.00
H110   H     0.45951   0.30650   0.49734   0.00000  Uiso   1.00
N111   N     0.56858   0.08427   0.07809   0.00000  Uiso   1.00
N112   N     0.43493   0.08734   0.38475   0.00000  Uiso   1.00
N113   N     0.35617   0.19555   0.19953   0.00000  Uiso   1.00
N114   N     0.62781   0.12228   0.33605   0.00000  Uiso   1.00
N115   N     0.41104   0.31747   0.31659   0.00000  Uiso   1.00
N116   N     0.50852   0.05743   0.43728   0.00000  Uiso   1.00
N117   N     0.58393   0.03255   0.47008   0.00000  Uiso   1.00
N118   N     0.44892   0.21171   0.10846   0.00000  Uiso   1.00
N119   N     0.45071   0.29136   0.39407   0.00000  Uiso   1.00
N120   N     0.52950   0.24568   0.02823   0.00000  Uiso   1.00
N121   N     0.49025   0.29773   0.49033   0.00000  Uiso   1.00
O122   O     0.50000   0.16667   0.25000   0.00000  Uiso   1.00
O123   O     0.48784   0.12637   0.15459   0.00000  Uiso   1.00
O124   O     0.46274   0.20391   0.34968   0.00000  Uiso   1.00
O125   O     0.54157   0.17759   0.14606   0.00000  Uiso   1.00
O126   O     0.50785   0.15880   0.34968   0.00000  Uiso   1.00
O127   O     0.51264   0.08019   0.28214   0.00000  Uiso   1.00
O128   O     0.47965   0.26085   0.27014   0.00000  Uiso   1.00
O129   O     0.40745   0.13291   0.23413   0.00000  Uiso   1.00
O130   O     0.60026   0.19272   0.21361   0.00000  Uiso   1.00
O131   O     0.40405   0.18878   0.28213   0.00000  Uiso   1.00
O132   O     0.58824   0.15226   0.27014   0.00000  Uiso   1.00
O133   O     0.47093   0.06944   0.23413   0.00000  Uiso   1.00
O134   O     0.53678   0.25620   0.21361   0.00000  Uiso   1.00
Zn135  Zn    0.52672   0.13994   0.28734   0.00000  Uiso   1.00
Zn136  Zn    0.46713   0.12458   0.21876   0.00000  Uiso   1.00
Zn137  Zn    0.54389   0.19775   0.20657   0.00000  Uiso   1.00
Zn138  Zn    0.46226   0.20439   0.28734   0.00000  Uiso   1.00
C139   C     0.71968   0.15990   0.25995   0.00000  Uiso   1.00
C140   C     0.83806   0.16410   0.05945   0.00000  Uiso   1.00
C141   C     0.87939   0.10712   0.05697   0.00000  Uiso   1.00
C142   C     0.94731   0.17366   0.24016   0.00000  Uiso   1.00
C143   C     0.81112   0.19666   0.41977   0.00000  Uiso   1.00
C144   C     0.99319   0.17515   0.23589   0.00000  Uiso   1.00
C145   C     0.67467   0.15745   0.26519   0.00000  Uiso   1.00
C146   C     0.84663   0.32255   0.23887   0.00000  Uiso   1.00
C147   C     0.81691   0.01254   0.26436   0.00000  Uiso   1.00
C148   C     0.82307   0.05609   0.25976   0.00000  Uiso   1.00
C149   C     0.84297   0.27785   0.24054   0.00000  Uiso   1.00
C150   C     0.82183   0.25428   0.47534   0.00000  Uiso   1.00
C151   C     0.85199   0.14786   0.12944   0.00000  Uiso   1.00
C152   C     0.81510   0.18493   0.37110   0.00000  Uiso   1.00
C153   C     0.87668   0.09450   0.01274   0.00000  Uiso   1.00
C154   C     0.85786   0.14048   0.08096   0.00000  Uiso   1.00
C155   C     0.80793   0.23882   0.43675   0.00000  Uiso   1.00
C156   C     0.98185   0.13789   0.30457   0.00000  Uiso   1.00
C157   C     0.77663   0.32998   0.29341   0.00000  Uiso   1.00
C158   C     0.89909   0.06000   0.48897   0.00000  Uiso   1.00
C159   C     0.80705   0.19073   0.08667   0.00000  Uiso   1.00
C160   C     0.79462   0.26795   0.41292   0.00000  Uiso   1.00
C161   C     0.83731   0.22780   0.49787   0.00000  Uiso   1.00
C162   C     0.79005   0.10401   0.40705   0.00000  Uiso   1.00
C163   C     0.83197   0.18417   0.48692   0.00000  Uiso   1.00
C164   C     0.81957   0.16837   0.44700   0.00000  Uiso   1.00
C165   C     0.84218   0.15598   0.01281   0.00000  Uiso   1.00
C166   C     0.85402   0.11682   0.49200   0.00000  Uiso   1.00
C167   C     0.83907   0.10023   0.45389   0.00000  Uiso   1.00
C168   C     0.81732   0.12476   0.43515   0.00000  Uiso   1.00
H169   H     0.87481   0.00386   0.21613   0.00000  Uiso   1.00
H170   H     0.68372   0.18114   0.16935   0.00000  Uiso   1.00
H171   H     0.68327   0.22641   0.20237   0.00000  Uiso   1.00
H172   H     0.92486   0.10509   0.08977   0.00000  Uiso   1.00
H173   H     0.88029   0.07124   0.10570   0.00000  Uiso   1.00
H174   H     0.81102   0.04171   0.44195   0.00000  Uiso   1.00
H175   H     0.85660   0.05605   0.40284   0.00000  Uiso   1.00
H176   H     0.84525   0.26560   0.05298   0.00000  Uiso   1.00
H177   H     0.88960   0.26361   0.01017   0.00000  Uiso   1.00
H178   H     0.84326   0.31431   0.46423   0.00000  Uiso   1.00
H179   H     0.79284   0.30650   0.49734   0.00000  Uiso   1.00
N180   N     0.90192   0.08427   0.07809   0.00000  Uiso   1.00
N181   N     0.76826   0.08734   0.38475   0.00000  Uiso   1.00
N182   N     0.68951   0.19555   0.19953   0.00000  Uiso   1.00
N183   N     0.96114   0.12228   0.33605   0.00000  Uiso   1.00
N184   N     0.74437   0.31747   0.31659   0.00000  Uiso   1.00
N185   N     0.84186   0.05743   0.43728   0.00000  Uiso   1.00
N186   N     0.91726   0.03255   0.47008   0.00000  Uiso   1.00
N187   N     0.78226   0.21171   0.10846   0.00000  Uiso   1.00
N188   N     0.78404   0.29136   0.39407   0.00000  Uiso   1.00
N189   N     0.86284   0.24568   0.02823   0.00000  Uiso   1.00
N190   N     0.82358   0.29773   0.49033   0.00000  Uiso   1.00
O191   O     0.83333   0.16667   0.25000   0.00000  Uiso   1.00
O192   O     0.82118   0.12637   0.15459   0.00000  Uiso   1.00
O193   O     0.79607   0.20391   0.34968   0.00000  Uiso   1.00
O194   O     0.87491   0.17759   0.14606   0.00000  Uiso   1.00
O195   O     0.84118   0.15880   0.34968   0.00000  Uiso   1.00
O196   O     0.84597   0.08019   0.28214   0.00000  Uiso   1.00
O197   O     0.81298   0.26085   0.27014   0.00000  Uiso   1.00
O198   O     0.74078   0.13291   0.23413   0.00000  Uiso   1.00
O199   O     0.93360   0.19272   0.21361   0.00000  Uiso   1.00
O200   O     0.73738   0.18878   0.28213   0.00000  Uiso   1.00
O201   O     0.92158   0.15226   0.27014   0.00000  Uiso   1.00
O202   O     0.80426   0.06944   0.23413   0.00000  Uiso   1.00
O203   O     0.87012   0.25620   0.21361   0.00000  Uiso   1.00
Zn204  Zn    0.86005   0.13994   0.28734   0.00000  Uiso   1.00
Zn205  Zn    0.80046   0.12458   0.21876   0.00000  Uiso   1.00
Zn206  Zn    0.87723   0.19775   0.20657   0.00000  Uiso   1.00
Zn207  Zn    0.79560   0.20439   0.28734   0.00000  Uiso   1.00
C208   C     0.05301   0.49323   0.25995   0.00000  Uiso   1.00
C209   C     0.17140   0.49743   0.05945   0.00000  Uiso   1.00
C210   C     0.21272   0.44045   0.05697   0.00000  Uiso   1.00
C211   C     0.28064   0.50699   0.24016   0.00000  Uiso   1.00
C212   C     0.14446   0.52999   0.41977   0.00000  Uiso   1.00
C213   C     0.32652   0.50848   0.23589   0.00000  Uiso   1.00
C214   C     0.00800   0.49078   0.26519   0.00000  Uiso   1.00
C215   C     0.17996   0.65588   0.23887   0.00000  Uiso   1.00
C216   C     0.15024   0.34587   0.26436   0.00000  Uiso   1.00
C217   C     0.15641   0.38942   0.25976   0.00000  Uiso   1.00
C218   C     0.17630   0.61119   0.24054   0.00000  Uiso   1.00
C219   C     0.15517   0.58761   0.47534   0.00000  Uiso   1.00
C220   C     0.18532   0.48119   0.12944   0.00000  Uiso   1.00
C221   C     0.14843   0.51826   0.37110   0.00000  Uiso   1.00
C222   C     0.21001   0.42783   0.01274   0.00000  Uiso   1.00
C223   C     0.19119   0.47381   0.08096   0.00000  Uiso   1.00
C224   C     0.14126   0.57215   0.43675   0.00000  Uiso   1.00
C225   C     0.31519   0.47122   0.30457   0.00000  Uiso   1.00
C226   C     0.10996   0.66331   0.29341   0.00000  Uiso   1.00
C227   C     0.23242   0.39333   0.48897   0.00000  Uiso   1.00
C228   C     0.14039   0.52406   0.08667   0.00000  Uiso   1.00
C229   C     0.12795   0.60128   0.41292   0.00000  Uiso   1.00
C230   C     0.17065   0.56114   0.49787   0.00000  Uiso   1.00
C231   C     0.12338   0.43734   0.40705   0.00000  Uiso   1.00
C232   C     0.16531   0.51750   0.48692   0.00000  Uiso   1.00
C233   C     0.15290   0.50170   0.44700   0.00000  Uiso   1.00
C234   C     0.17551   0.48931   0.01281   0.00000  Uiso   1.00
C235   C     0.18735   0.45015   0.49200   0.00000  Uiso   1.00
C236   C     0.17240   0.43357   0.45389   0.00000  Uiso   1.00
C237   C     0.15065   0.45809   0.43515   0.00000  Uiso   1.00
H238   H     0.20815   0.33719   0.21613   0.00000  Uiso   1.00
H239   H     0.01705   0.51447   0.16935   0.00000  Uiso   1.00
H240   H     0.01660   0.55974   0.20237   0.00000  Uiso   1.00
H241   H     0.25819   0.43842   0.08977   0.00000  Uiso   1.00
H242   H     0.21362   0.40458   0.10570   0.00000  Uiso   1.00
H243   H     0.14435   0.37505   0.44195   0.00000  Uiso   1.00
H244   H     0.18993   0.38938   0.40284   0.00000  Uiso   1.00
H245   H     0.17858   0.59893   0.05298   0.00000  Uiso   1.00
H246   H     0.22293   0.59694   0.01017   0.00000  Uiso   1.00
H247   H     0.17659   0.64764   0.46423   0.00000  Uiso   1.00
H248   H     0.12618   0.63984   0.49734   0.00000  Uiso   1.00
N249   N     0.23525   0.41760   0.07809   0.00000  Uiso   1.00
N250   N     0.10160   0.42067   0.38475   0.00000  Uiso   1.00
N251   N     0.02284   0.52888   0.19953   0.00000  Uiso   1.00
N252   N     0.29448   0.45561   0.33605   0.00000  Uiso   1.00
N253   N     0.07770   0.65080   0.31659   0.00000  Uiso   1.00
N254   N     0.17519   0.39076   0.43728   0.00000  Uiso   1.00
N255   N     0.25060   0.36589   0.47008   0.00000  Uiso   1.00
N256   N     0.11559   0.54505   0.10846   0.00000  Uiso   1.00
N257   N     0.11738   0.62469   0.39407   0.00000  Uiso   1.00
N258   N     0.19617   0.57901   0.02823   0.00000  Uiso   1.00
N259   N     0.15692   0.63106   0.49033   0.00000  Uiso   1.00
O260   O     0.16667   0.50000   0.25000   0.00000  Uiso   1.00
O261   O     0.15451   0.45970   0.15459   0.00000  Uiso   1.00
O262   O     0.12940   0.53724   0.34968   0.00000  Uiso   1.00
O263   O     0.20824   0.51092   0.14606   0.00000  Uiso   1.00
O264   O     0.17451   0.49213   0.34968   0.00000  Uiso   1.00
O265   O     0.17930   0.41352   0.28214   0.00000  Uiso   1.00
O266   O     0.14632   0.59418   0.27014   0.00000  Uiso   1.00
O267   O     0.07412   0.46625   0.23413   0.00000  Uiso   1.00
O268   O     0.26693   0.52605   0.21361   0.00000  Uiso   1.00
O269   O     0.07071   0.52211   0.28213   0.00000  Uiso   1.00
O270   O     0.25491   0.48559   0.27014   0.00000  Uiso   1.00
O271   O     0.13760   0.40277   0.23413   0.00000  Uiso   1.00
O272   O     0.20345   0.58953   0.21361   0.00000  Uiso   1.00
Zn273  Zn    0.19338   0.47327   0.28734   0.00000  Uiso   1.00
Zn274  Zn    0.13379   0.45791   0.21876   0.00000  Uiso   1.00
Zn275  Zn    0.21056   0.53109   0.20657   0.00000  Uiso   1.00
Zn276  Zn    0.12893   0.53773   0.28734   0.00000  Uiso   1.00
C277   C     0.38635   0.49323   0.25995   0.00000  Uiso   1.00
C278   C     0.50473   0.49743   0.05945   0.00000  Uiso   1.00
C279   C     0.54606   0.44045   0.05697   0.00000  Uiso   1.00
C280   C     0.61398   0.50699   0.24016   0.00000  Uiso   1.00
C281   C     0.47779   0.52999   0.41977   0.00000  Uiso   1.00
C282   C     0.65986   0.50848   0.23589   0.00000  Uiso   1.00
C283   C     0.34134   0.49078   0.26519   0.00000  Uiso   1.00
C284   C     0.51329   0.65588   0.23887   0.00000  Uiso   1.00
C285   C     0.48358   0.34587   0.26436   0.00000  Uiso   1.00
C286   C     0.48974   0.38942   0.25976   0.00000  Uiso   1.00
C287   C     0.50964   0.61119   0.24054   0.00000  Uiso   1.00
C288   C     0.48850   0.58761   0.47534   0.00000  Uiso   1.00
C289   C     0.51866   0.48119   0.12944   0.00000  Uiso   1.00
C290   C     0.48176   0.51826   0.37110   0.00000  Uiso   1.00
C291   C     0.54335   0.42783   0.01274   0.00000  Uiso   1.00
C292   C     0.52452   0.47381   0.08096   0.00000  Uiso   1.00
C293   C     0.47459   0.57215   0.43675   0.00000  Uiso   1.00
C294   C     0.64852   0.47122   0.30457   0.00000  Uiso   1.00
C295   C     0.44329   0.66331   0.29341   0.00000  Uiso   1.00
C296   C     0.56575   0.39333   0.48897   0.00000  Uiso   1.00
C297   C     0.47372   0.52406   0.08667   0.00000  Uiso   1.00
C298   C     0.46129   0.60128   0.41292   0.00000  Uiso   1.00
C299   C     0.50398   0.56114   0.49787   0.00000  Uiso   1.00
C300   C     0.45672   0.43734   0.40705   0.00000  Uiso   1.00
C301   C     0.49864   0.51750   0.48692   0.00000  Uiso   1.00
C302   C     0.48623   0.50170   0.44700   0.00000  Uiso   1.00
C303   C     0.50884   0.48931   0.01281   0.00000  Uiso   1.00
C304   C     0.52068   0.45015   0.49200   0.00000  Uiso   1.00
C305   C     0.50573   0.43357   0.45389   0.00000  Uiso   1.00
C306   C     0.48399   0.45809   0.43515   0.00000  Uiso   1.00
H307   H     0.54148   0.33719   0.21613   0.00000  Uiso   1.00
H308   H     0.35039   0.51447   0.16935   0.00000  Uiso   1.00
H309   H     0.34994   0.55974   0.20237   0.00000  Uiso   1.00
H310   H     0.59152   0.43842   0.08977   0.00000  Uiso   1.00
H311   H     0.54695   0.40458   0.10570   0.00000  Uiso   1.00
H312   H     0.47769   0.37505   0.44195   0.00000  Uiso   1.00
H313   H     0.52327   0.38938   0.40284   0.00000  Uiso   1.00
H314   H     0.51192   0.59893   0.05298   0.00000  Uiso   1.00
H315   H     0.55626   0.59694   0.01017   0.00000  Uiso   1.00
H316   H     0.50993   0.64764   0.46423   0.00000  Uiso   1.00
H317   H     0.45951   0.63984   0.49734   0.00000  Uiso   1.00
N318   N     0.56858   0.41760   0.07809   0.00000  Uiso   1.00
N319   N     0.43493   0.42067   0.38475   0.00000  Uiso   1.00
N320   N     0.35617   0.52888   0.19953   0.00000  Uiso   1.00
N321   N     0.62781   0.45561   0.33605   0.00000  Uiso   1.00
N322   N     0.41104   0.65080   0.31659   0.00000  Uiso   1.00
N323   N     0.50852   0.39076   0.43728   0.00000  Uiso   1.00
N324   N     0.58393   0.36589   0.47008   0.00000  Uiso   1.00
N325   N     0.44892   0.54505   0.10846   0.00000  Uiso   1.00
N326   N     0.45071   0.62469   0.39407   0.00000  Uiso   1.00
N327   N     0.52950   0.57901   0.02823   0.00000  Uiso   1.00
N328   N     0.49025   0.63106   0.49033   0.00000  Uiso   1.00
O329   O     0.50000   0.50000   0.25000   0.00000  Uiso   1.00
O330   O     0.48784   0.45970   0.15459   0.00000  Uiso   1.00
O331   O     0.46274   0.53724   0.34968   0.00000  Uiso   1.00
O332   O     0.54157   0.51092   0.14606   0.00000  Uiso   1.00
O333   O     0.50785   0.49213   0.34968   0.00000  Uiso   1.00
O334   O     0.51264   0.41352   0.28214   0.00000  Uiso   1.00
O335   O     0.47965   0.59418   0.27014   0.00000  Uiso   1.00
O336   O     0.40745   0.46625   0.23413   0.00000  Uiso   1.00
O337   O     0.60026   0.52605   0.21361   0.00000  Uiso   1.00
O338   O     0.40405   0.52211   0.28213   0.00000  Uiso   1.00
O339   O     0.58824   0.48559   0.27014   0.00000  Uiso   1.00
O340   O     0.47093   0.40277   0.23413   0.00000  Uiso   1.00
O341   O     0.53678   0.58953   0.21361   0.00000  Uiso   1.00
Zn342  Zn    0.52672   0.47327   0.28734   0.00000  Uiso   1.00
Zn343  Zn    0.46713   0.45791   0.21876   0.00000  Uiso   1.00
Zn344  Zn    0.54389   0.53109   0.20657   0.00000  Uiso   1.00
Zn345  Zn    0.46226   0.53773   0.28734   0.00000  Uiso   1.00
C346   C     0.71968   0.49323   0.25995   0.00000  Uiso   1.00
C347   C     0.83806   0.49743   0.05945   0.00000  Uiso   1.00
C348   C     0.87939   0.44045   0.05697   0.00000  Uiso   1.00
C349   C     0.94731   0.50699   0.24016   0.00000  Uiso   1.00
C350   C     0.81112   0.52999   0.41977   0.00000  Uiso   1.00
C351   C     0.99319   0.50848   0.23589   0.00000  Uiso   1.00
C352   C     0.67467   0.49078   0.26519   0.00000  Uiso   1.00
C353   C     0.84663   0.65588   0.23887   0.00000  Uiso   1.00
C354   C     0.81691   0.34587   0.26436   0.00000  Uiso   1.00
C355   C     0.82307   0.38942   0.25976   0.00000  Uiso   1.00
C356   C     0.84297   0.61119   0.24054   0.00000  Uiso   1.00
C357   C     0.82183   0.58761   0.47534   0.00000  Uiso   1.00
C358   C     0.85199   0.48119   0.12944   0.00000  Uiso   1.00
C359   C     0.81510   0.51826   0.37110   0.00000  Uiso   1.00
C360   C     0.87668   0.42783   0.01274   0.00000  Uiso   1.00
C361   C     0.85786   0.47381   0.08096   0.00000  Uiso   1.00
C362   C     0.80793   0.57215   0.43675   0.00000  Uiso   1.00
C363   C     0.98185   0.47122   0.30457   0.00000  Uiso   1.00
C364   C     0.77663   0.66331   0.29341   0.00000  Uiso   1.00
C365   C     0.89909   0.39333   0.48897   0.00000  Uiso   1.00
C366   C     0.80705   0.52406   0.08667   0.00000  Uiso   1.00
C367   C     0.79462   0.60128   0.41292   0.00000  Uiso   1.00
C368   C     0.83731   0.56114   0.49787   0.00000  Uiso   1.00
C369   C     0.79005   0.43734   0.40705   0.00000  Uiso   1.00
C370   C     0.83197   0.51750   0.48692   0.00000  Uiso   1.00
C371   C     0.81957   0.50170   0.44700   0.00000  Uiso   1.00
C372   C     0.84218   0.48931   0.01281   0.00000  Uiso   1.00
C373   C     0.85402   0.45015   0.49200   0.00000  Uiso   1.00
C374   C     0.83907   0.43357   0.45389   0.00000  Uiso   1.00
C375   C     0.81732   0.45809   0.43515   0.00000  Uiso   1.00
H376   H     0.87481   0.33719   0.21613   0.00000  Uiso   1.00
H377   H     0.68372   0.51447   0.16935   0.00000  Uiso   1.00
H378   H     0.68327   0.55974   0.20237   0.00000  Uiso   1.00
H379   H     0.92486   0.43842   0.08977   0.00000  Uiso   1.00
H380   H     0.88029   0.40458   0.10570   0.00000  Uiso   1.00
H381   H     0.81102   0.37505   0.44195   0.00000  Uiso   1.00
H382   H     0.85660   0.38938   0.40284   0.00000  Uiso   1.00
H383   H     0.84525   0.59893   0.05298   0.00000  Uiso   1.00
H384   H     0.88960   0.59694   0.01017   0.00000  Uiso   1.00
H385   H     0.84326   0.64764   0.46423   0.00000  Uiso   1.00
H386   H     0.79284   0.63984   0.49734   0.00000  Uiso   1.00
N387   N     0.90192   0.41760   0.07809   0.00000  Uiso   1.00
N388   N     0.76826   0.42067   0.38475   0.00000  Uiso   1.00
N389   N     0.68951   0.52888   0.19953   0.00000  Uiso   1.00
N390   N     0.96114   0.45561   0.33605   0.00000  Uiso   1.00
N391   N     0.74437   0.65080   0.31659   0.00000  Uiso   1.00
N392   N     0.84186   0.39076   0.43728   0.00000  Uiso   1.00
N393   N     0.91726   0.36589   0.47008   0.00000  Uiso   1.00
N394   N     0.78226   0.54505   0.10846   0.00000  Uiso   1.00
N395   N     0.78404   0.62469   0.39407   0.00000  Uiso   1.00
N396   N     0.86284   0.57901   0.02823   0.00000  Uiso   1.00
N397   N     0.82358   0.63106   0.49033   0.00000  Uiso   1.00
O398   O     0.83333   0.50000   0.25000   0.00000  Uiso   1.00
O399   O     0.82118   0.45970   0.15459   0.00000  Uiso   1.00
O400   O     0.79607   0.53724   0.34968   0.00000  Uiso   1.00
O401   O     0.87491   0.51092   0.14606   0.00000  Uiso   1.00
O402   O     0.84118   0.49213   0.34968   0.00000  Uiso   1.00
O403   O     0.84597   0.41352   0.28214   0.00000  Uiso   1.00
O404   O     0.81298   0.59418   0.27014   0.00000  Uiso   1.00
O405   O     0.74078   0.46625   0.23413   0.00000  Uiso   1.00
O406   O     0.93360   0.52605   0.21361   0.00000  Uiso   1.00
O407   O     0.73738   0.52211   0.28213   0.00000  Uiso   1.00
O408   O     0.92158   0.48559   0.27014   0.00000  Uiso   1.00
O409   O     0.80426   0.40277   0.23413   0.00000  Uiso   1.00
O410   O     0.87012   0.58953   0.21361   0.00000  Uiso   1.00
Zn411  Zn    0.86005   0.47327   0.28734   0.00000  Uiso   1.00
Zn412  Zn    0.80046   0.45791   0.21876   0.00000  Uiso   1.00
Zn413  Zn    0.87723   0.53109   0.20657   0.00000  Uiso   1.00
Zn414  Zn    0.79560   0.53773   0.28734   0.00000  Uiso   1.00
C415   C     0.05301   0.82656   0.25995   0.00000  Uiso   1.00
C416   C     0.17140   0.83076   0.05945   0.00000  Uiso   1.00
C417   C     0.21272   0.77379   0.05697   0.00000  Uiso   1.00
C418   C     0.28064   0.84033   0.24016   0.00000  Uiso   1.00
C419   C     0.14446   0.86332   0.41977   0.00000  Uiso   1.00
C420   C     0.32652   0.84181   0.23589   0.00000  Uiso   1.00
C421   C     0.00800   0.82412   0.26519   0.00000  Uiso   1.00
C422   C     0.17996   0.98922   0.23887   0.00000  Uiso   1.00
C423   C     0.15024   0.67920   0.26436   0.00000  Uiso   1.00
C424   C     0.15641   0.72276   0.25976   0.00000  Uiso   1.00
C425   C     0.17630   0.94452   0.24054   0.00000  Uiso   1.00
C426   C     0.15517   0.92095   0.47534   0.00000  Uiso   1.00
C427   C     0.18532   0.81453   0.12944   0.00000  Uiso   1.00
C428   C     0.14843   0.85159   0.37110   0.00000  Uiso   1.00
C429   C     0.21001   0.76116   0.01274   0.00000  Uiso   1.00
C430   C     0.19119   0.80715   0.08096   0.00000  Uiso   1.00
C431   C     0.14126   0.90549   0.43675   0.00000  Uiso   1.00
C432   C     0.31519   0.80456   0.30457   0.00000  Uiso   1.00
C433   C     0.10996   0.99665   0.29341   0.00000  Uiso   1.00
C434   C     0.23242   0.72666   0.48897   0.00000  Uiso   1.00
C435   C     0.14039   0.85739   0.08667   0.00000  Uiso   1.00
C436   C     0.12795   0.93461   0.41292   0.00000  Uiso   1.00
C437   C     0.17065   0.89447   0.49787   0.00000  Uiso   1.00
C438   C     0.12338   0.77067   0.40705   0.00000  Uiso   1.00
C439   C     0.16531   0.85084   0.48692   0.00000  Uiso   1.00
C440   C     0.15290   0.83504   0.44700   0.00000  Uiso   1.00
C441   C     0.17551   0.82264   0.01281   0.00000  Uiso   1.00
C442   C     0.18735   0.78348   0.49200   0.00000  Uiso   1.00
C443   C     0.17240   0.76690   0.45389   0.00000  Uiso   1.00
C444   C     0.15065   0.79142   0.43515   0.00000  Uiso   1.00
H445   H     0.20815   0.67053   0.21613   0.00000  Uiso   1.00
H446   H     0.01705   0.84780   0.16935   0.00000  Uiso   1.00
H447   H     0.01660   0.89308   0.20237   0.00000  Uiso   1.00
H448   H     0.25819   0.77176   0.08977   0.00000  Uiso   1.00
H449   H     0.21362   0.73791   0.10570   0.00000  Uiso   1.00
H450   H     0.14435   0.70838   0.44195   0.00000  Uiso   1.00
H451   H     0.18993   0.72271   0.40284   0.00000  Uiso   1.00
H452   H     0.17858   0.93226   0.05298   0.00000  Uiso   1.00
H453   H     0.22293   0.93028   0.01017   0.00000  Uiso   1.00
H454   H     0.17659   0.98097   0.46423   0.00000  Uiso   1.00
H455   H     0.12618   0.97317   0.49734   0.00000  Uiso   1.00
N456   N     0.23525   0.75094   0.07809   0.00000  Uiso   1.00
N457   N     0.10160   0.75400   0.38475   0.00000  Uiso   1.00
N458   N     0.02284   0.86222   0.19953   0.00000  Uiso   1.00
N459   N     0.29448   0.78894   0.33605   0.00000  Uiso   1.00
N460   N     0.07770   0.98413   0.31659   0.00000  Uiso   1.00
N461   N     0.17519   0.72409   0.43728   0.00000  Uiso   1.00
N462   N     0.25060   0.69922   0.47008   0.00000  Uiso   1.00
N463   N     0.11559   0.87838   0.10846   0.00000  Uiso   1.00
N464   N     0.11738   0.95803   0.39407   0.00000  Uiso   1.00
N465   N     0.19617   0.91235   0.02823   0.00000  Uiso   1.00
N466   N     0.15692   0.96440   0.49033   0.00000  Uiso   1.00
O467   O     0.16667   0.83333   0.25000   0.00000  Uiso   1.00
O468   O     0.15451   0.79304   0.15459   0.00000  Uiso   1.00
O469   O     0.12940   0.87058   0.34968   0.00000  Uiso   1.00
O470   O     0.20824   0.84425   0.14606   0.00000  Uiso   1.00
O471   O     0.17451   0.82546   0.34968   0.00000  Uiso   1.00
O472   O     0.17930   0.74686   0.28214   0.00000  Uiso   1.00
O473   O     0.14632   0.92751   0.27014   0.00000  Uiso   1.00
O474   O     0.07412   0.79958   0.23413   0.00000  Uiso   1.00
O475   O     0.26693   0.85939   0.21361   0.00000  Uiso   1.00
O476   O     0.07071   0.85544   0.28213   0.00000  Uiso   1.00
O477   O     0.25491   0.81892   0.27014   0.00000  Uiso   1.00
O478   O     0.13760   0.73610   0.23413   0.00000  Uiso   1.00
O479   O     0.20345   0.92286   0.21361   0.00000  Uiso   1.00
Zn480  Zn    0.19338   0.80661   0.28734   0.00000  Uiso   1.00
Zn481  Zn    0.13379   0.79124   0.21876   0.00000  Uiso   1.00
Zn482  Zn    0.21056   0.86442   0.20657   0.00000  Uiso   1.00
Zn483  Zn    0.12893   0.87106   0.28734   0.00000  Uiso   1.00
C484   C     0.38635   0.82656   0.25995   0.00000  Uiso   1.00
C485   C     0.50473   0.83076   0.05945   0.00000  Uiso   1.00
C486   C     0.54606   0.77379   0.05697   0.00000  Uiso   1.00
C487   C     0.61398   0.84033   0.24016   0.00000  Uiso   1.00
C488   C     0.47779   0.86332   0.41977   0.00000  Uiso   1.00
C489   C     0.65986   0.84181   0.23589   0.00000  Uiso   1.00
C490   C     0.34134   0.82412   0.26519   0.00000  Uiso   1.00
C491   C     0.51329   0.98922   0.23887   0.00000  Uiso   1.00
C492   C     0.48358   0.67920   0.26436   0.00000  Uiso   1.00
C493   C     0.48974   0.72276   0.25976   0.00000  Uiso   1.00
C494   C     0.50964   0.94452   0.24054   0.00000  Uiso   1.00
C495   C     0.48850   0.92095   0.47534   0.00000  Uiso   1.00
C496   C     0.51866   0.81453   0.12944   0.00000  Uiso   1.00
C497   C     0.48176   0.85159   0.37110   0.00000  Uiso   1.00
C498   C     0.54335   0.76116   0.01274   0.00000  Uiso   1.00
C499   C     0.52452   0.80715   0.08096   0.00000  Uiso   1.00
C500   C     0.47459   0.90549   0.43675   0.00000  Uiso   1.00
C501   C     0.64852   0.80456   0.30457   0.00000  Uiso   1.00
C502   C     0.44329   0.99665   0.29341   0.00000  Uiso   1.00
C503   C     0.56575   0.72666   0.48897   0.00000  Uiso   1.00
C504   C     0.47372   0.85739   0.08667   0.00000  Uiso   1.00
C505   C     0.46129   0.93461   0.41292   0.00000  Uiso   1.00
C506   C     0.50398   0.89447   0.49787   0.00000  Uiso   1.00
C507   C     0.45672   0.77067   0.40705   0.00000  Uiso   1.00
C508   C     0.49864   0.85084   0.48692   0.00000  Uiso   1.00
C509   C     0.48623   0.83504   0.44700   0.00000  Uiso   1.00
C510   C     0.50884   0.82264   0.01281   0.00000  Uiso   1.00
C511   C     0.52068   0.78348   0.49200   0.00000  Uiso   1.00
C512   C     0.50573   0.76690   0.45389   0.00000  Uiso   1.00
C513   C     0.48399   0.79142   0.43515   0.00000  Uiso   1.00
H514   H     0.54148   0.67053   0.21613   0.00000  Uiso   1.00
H515   H     0.35039   0.84780   0.16935   0.00000  Uiso   1.00
H516   H     0.34994   0.89308   0.20237   0.00000  Uiso   1.00
H517   H     0.59152   0.77176   0.08977   0.00000  Uiso   1.00
H518   H     0.54695   0.73791   0.10570   0.00000  Uiso   1.00
H519   H     0.47769   0.70838   0.44195   0.00000  Uiso   1.00
H520   H     0.52327   0.72271   0.40284   0.00000  Uiso   1.00
H521   H     0.51192   0.93226   0.05298   0.00000  Uiso   1.00
H522   H     0.55626   0.93028   0.01017   0.00000  Uiso   1.00
H523   H     0.50993   0.98097   0.46423   0.00000  Uiso   1.00
H524   H     0.45951   0.97317   0.49734   0.00000  Uiso   1.00
N525   N     0.56858   0.75094   0.07809   0.00000  Uiso   1.00
N526   N     0.43493   0.75400   0.38475   0.00000  Uiso   1.00
N527   N     0.35617   0.86222   0.19953   0.00000  Uiso   1.00
N528   N     0.62781   0.78894   0.33605   0.00000  Uiso   1.00
N529   N     0.41104   0.98413   0.31659   0.00000  Uiso   1.00
N530   N     0.50852   0.72409   0.43728   0.00000  Uiso   1.00
N531   N     0.58393   0.69922   0.47008   0.00000  Uiso   1.00
N532   N     0.44892   0.87838   0.10846   0.00000  Uiso   1.00
N533   N     0.45071   0.95803   0.39407   0.00000  Uiso   1.00
N534   N     0.52950   0.91235   0.02823   0.00000  Uiso   1.00
N535   N     0.49025   0.96440   0.49033   0.00000  Uiso   1.00
O536   O     0.50000   0.83333   0.25000   0.00000  Uiso   1.00
O537   O     0.48784   0.79304   0.15459   0.00000  Uiso   1.00
O538   O     0.46274   0.87058   0.34968   0.00000  Uiso   1.00
O539   O     0.54157   0.84425   0.14606   0.00000  Uiso   1.00
O540   O     0.50785   0.82546   0.34968   0.00000  Uiso   1.00
O541   O     0.51264   0.74686   0.28214   0.00000  Uiso   1.00
O542   O     0.47965   0.92751   0.27014   0.00000  Uiso   1.00
O543   O     0.40745   0.79958   0.23413   0.00000  Uiso   1.00
O544   O     0.60026   0.85939   0.21361   0.00000  Uiso   1.00
O545   O     0.40405   0.85544   0.28213   0.00000  Uiso   1.00
O546   O     0.58824   0.81892   0.27014   0.00000  Uiso   1.00
O547   O     0.47093   0.73610   0.23413   0.00000  Uiso   1.00
O548   O     0.53678   0.92286   0.21361   0.00000  Uiso   1.00
Zn549  Zn    0.52672   0.80661   0.28734   0.00000  Uiso   1.00
Zn550  Zn    0.46713   0.79124   0.21876   0.00000  Uiso   1.00
Zn551  Zn    0.54389   0.86442   0.20657   0.00000  Uiso   1.00
Zn552  Zn    0.46226   0.87106   0.28734   0.00000  Uiso   1.00
C553   C     0.71968   0.82656   0.25995   0.00000  Uiso   1.00
C554   C     0.83806   0.83076   0.05945   0.00000  Uiso   1.00
C555   C     0.87939   0.77379   0.05697   0.00000  Uiso   1.00
C556   C     0.94731   0.84033   0.24016   0.00000  Uiso   1.00
C557   C     0.81112   0.86332   0.41977   0.00000  Uiso   1.00
C558   C     0.99319   0.84181   0.23589   0.00000  Uiso   1.00
C559   C     0.67467   0.82412   0.26519   0.00000  Uiso   1.00
C560   C     0.84663   0.98922   0.23887   0.00000  Uiso   1.00
C561   C     0.81691   0.67920   0.26436   0.00000  Uiso   1.00
C562   C     0.82307   0.72276   0.25976   0.00000  Uiso   1.00
C563   C     0.84297   0.94452   0.24054   0.00000  Uiso   1.00
C564   C     0.82183   0.92095   0.47534   0.00000  Uiso   1.00
C565   C     0.85199   0.81453   0.12944   0.00000  Uiso   1.00
C566   C     0.81510   0.85159   0.37110   0.00000  Uiso   1.00
C567   C     0.87668   0.76116   0.01274   0.00000  Uiso   1.00
C568   C     0.85786   0.80715   0.08096   0.00000  Uiso   1.00
C569   C     0.80793   0.90549   0.43675   0.00000  Uiso   1.00
C570   C     0.98185   0.80456   0.30457   0.00000  Uiso   1.00
C571   C     0.77663   0.99665   0.29341   0.00000  Uiso   1.00
C572   C     0.89909   0.72666   0.48897   0.00000  Uiso   1.00
C573   C     0.80705   0.85739   0.08667   0.00000  Uiso   1.00
C574   C     0.79462   0.93461   0.41292   0.00000  Uiso   1.00
C575   C     0.83731   0.89447   0.49787   0.00000  Uiso   1.00
C576   C     0.79005   0.77067   0.40705   0.00000  Uiso   1.00
C577   C     0.83197   0.85084   0.48692   0.00000  Uiso   1.00
C578   C     0.81957   0.83504   0.44700   0.00000  Uiso   1.00
C579   C     0.84218   0.82264   0.01281   0.00000  Uiso   1.00
C580   C     0.85402   0.78348   0.49200   0.00000  Uiso   1.00
C581   C     0.83907   0.76690   0.45389   0.00000  Uiso   1.00
C582   C     0.81732   0.79142   0.43515   0.00000  Uiso   1.00
H583   H     0.87481   0.67053   0.21613   0.00000  Uiso   1.00
H584   H     0.68372   0.84780   0.16935   0.00000  Uiso   1.00
H585   H     0.68327   0.89308   0.20237   0.00000  Uiso   1.00
H586   H     0.92486   0.77176   0.08977   0.00000  Uiso   1.00
H587   H     0.88029   0.73791   0.10570   0.00000  Uiso   1.00
H588   H     0.81102   0.70838   0.44195   0.00000  Uiso   1.00
H589   H     0.85660   0.72271   0.40284   0.00000  Uiso   1.00
H590   H     0.84525   0.93226   0.05298   0.00000  Uiso   1.00
H591   H     0.88960   0.93028   0.01017   0.00000  Uiso   1.00
H592   H     0.84326   0.98097   0.46423   0.00000  Uiso   1.00
H593   H     0.79284   0.97317   0.49734   0.00000  Uiso   1.00
N594   N     0.90192   0.75094   0.07809   0.00000  Uiso   1.00
N595   N     0.76826   0.75400   0.38475   0.00000  Uiso   1.00
N596   N     0.68951   0.86222   0.19953   0.00000  Uiso   1.00
N597   N     0.96114   0.78894   0.33605   0.00000  Uiso   1.00
N598   N     0.74437   0.98413   0.31659   0.00000  Uiso   1.00
N599   N     0.84186   0.72409   0.43728   0.00000  Uiso   1.00
N600   N     0.91726   0.69922   0.47008   0.00000  Uiso   1.00
N601   N     0.78226   0.87838   0.10846   0.00000  Uiso   1.00
N602   N     0.78404   0.95803   0.39407   0.00000  Uiso   1.00
N603   N     0.86284   0.91235   0.02823   0.00000  Uiso   1.00
N604   N     0.82358   0.96440   0.49033   0.00000  Uiso   1.00
O605   O     0.83333   0.83333   0.25000   0.00000  Uiso   1.00
O606   O     0.82118   0.79304   0.15459   0.00000  Uiso   1.00
O607   O     0.79607   0.87058   0.34968   0.00000  Uiso   1.00
O608   O     0.87491   0.84425   0.14606   0.00000  Uiso   1.00
O609   O     0.84118   0.82546   0.34968   0.00000  Uiso   1.00
O610   O     0.84597   0.74686   0.28214   0.00000  Uiso   1.00
O611   O     0.81298   0.92751   0.27014   0.00000  Uiso   1.00
O612   O     0.74078   0.79958   0.23413   0.00000  Uiso   1.00
O613   O     0.93360   0.85939   0.21361   0.00000  Uiso   1.00
O614   O     0.73738   0.85544   0.28213   0.00000  Uiso   1.00
O615   O     0.92158   0.81892   0.27014   0.00000  Uiso   1.00
O616   O     0.80426   0.73610   0.23413   0.00000  Uiso   1.00
O617   O     0.87012   0.92286   0.21361   0.00000  Uiso   1.00
Zn618  Zn    0.86005   0.80661   0.28734   0.00000  Uiso   1.00
Zn619  Zn    0.80046   0.79124   0.21876   0.00000  Uiso   1.00
Zn620  Zn    0.87723   0.86442   0.20657   0.00000  Uiso   1.00
Zn621  Zn    0.79560   0.87106   0.28734   0.00000  Uiso   1.00
C622   C     0.05301   0.15990   0.75995   0.00000  Uiso   1.00
C623   C     0.17140   0.16410   0.55945   0.00000  Uiso   1.00
C624   C     0.21272   0.10712   0.55697   0.00000  Uiso   1.00
C625   C     0.28064   0.17366   0.74016   0.00000  Uiso   1.00
C626   C     0.14446   0.19666   0.91977   0.00000  Uiso   1.00
C627   C     0.32652   0.17515   0.73589   0.00000  Uiso   1.00
C628   C     0.00800   0.15745   0.76519   0.00000  Uiso   1.00
C629   C     0.17996   0.32255   0.73887   0.00000  Uiso   1.00
C630   C     0.15024   0.01254   0.76436   0.00000  Uiso   1.00
C631   C     0.15641   0.05609   0.75976   0.00000  Uiso   1.00
C632   C     0.17630   0.27785   0.74054   0.00000  Uiso   1.00
C633   C     0.15517   0.25428   0.97534   0.00000  Uiso   1.00
C634   C     0.18532   0.14786   0.62944   0.00000  Uiso   1.00
C635   C     0.14843   0.18493   0.87110   0.00000  Uiso   1.00
C636   C     0.21001   0.09450   0.51274   0.00000  Uiso   1.00
C637   C     0.19119   0.14048   0.58096   0.00000  Uiso   1.00
C638   C     0.14126   0.23882   0.93675   0.00000  Uiso   1.00
C639   C     0.31519   0.13789   0.80457   0.00000  Uiso   1.00
C640   C     0.10996   0.32998   0.79341   0.00000  Uiso   1.00
C641   C     0.23242   0.06000   0.98897   0.00000  Uiso   1.00
C642   C     0.14039   0.19073   0.58667   0.00000  Uiso   1.00
C643   C     0.12795   0.26795   0.91292   0.00000  Uiso   1.00
C644   C     0.17065   0.22780   0.99787   0.00000  Uiso   1.00
C645   C     0.12338   0.10401   0.90705   0.00000  Uiso   1.00
C646   C     0.16531   0.18417   0.98692   0.00000  Uiso   1.00
C647   C     0.15290   0.16837   0.94700   0.00000  Uiso   1.00
C648   C     0.17551   0.15598   0.51281   0.00000  Uiso   1.00
C649   C     0.18735   0.11682   0.99200   0.00000  Uiso   1.00
C650   C     0.17240   0.10023   0.95389   0.00000  Uiso   1.00
C651   C     0.15065   0.12476   0.93515   0.00000  Uiso   1.00
H652   H     0.20815   0.00386   0.71613   0.00000  Uiso   1.00
H653   H     0.01705   0.18114   0.66935   0.00000  Uiso   1.00
H654   H     0.01660   0.22641   0.70237   0.00000  Uiso   1.00
H655   H     0.25819   0.10509   0.58977   0.00000  Uiso   1.00
H656   H     0.21362   0.07124   0.60570   0.00000  Uiso   1.00
H657   H     0.14435   0.04171   0.94195   0.00000  Uiso   1.00
H658   H     0.18993   0.05605   0.90284   0.00000  Uiso   1.00
H659   H     0.17858   0.26560   0.55298   0.00000  Uiso   1.00
H660   H     0.22293   0.26361   0.51017   0.00000  Uiso   1.00
H661   H     0.17659   0.31431   0.96423   0.00000  Uiso   1.00
H662   H     0.12618   0.30650   0.99734   0.00000  Uiso   1.00
N663   N     0.23525   0.08427   0.57809   0.00000  Uiso   1.00
N664   N     0.10160   0.08734   0.88475   0.00000  Uiso   1.00
N665   N     0.02284   0.19555   0.69953   0.00000  Uiso   1.00
N666   N     0.29448   0.12228   0.83605   0.00000  Uiso   1.00
N667   N     0.07770   0.31747   0.81659   0.00000  Uiso   1.00
N668   N     0.17519   0.05743   0.93728   0.00000  Uiso   1.00
N669   N     0.25060   0.03255   0.97008   0.00000  Uiso   1.00
N670   N     0.11559   0.21171   0.60846   0.00000  Uiso   1.00
N671   N     0.11738   0.29136   0.89407   0.00000  Uiso   1.00
N672   N     0.19617   0.24568   0.52823   0.00000  Uiso   1.00
N673   N     0.15692   0.29773   0.99033   0.00000  Uiso   1.00
O674   O     0.16667   0.16667   0.75000   0.00000  Uiso   1.00
O675   O     0.15451   0.12637   0.65459   0.00000  Uiso   1.00
O676   O     0.12940   0.20391   0.84968   0.00000  Uiso   1.00
O677   O     0.20824   0.17759   0.64606   0.00000  Uiso   1.00
O678   O     0.17451   0.15880   0.84968   0.00000  Uiso   1.00
O679   O     0.17930   0.08019   0.78214   0.00000  Uiso   1.00
O680   O     0.14632   0.26085   0.77014   0.00000  Uiso   1.00
O681   O     0.07412   0.13291   0.73413   0.00000  Uiso   1.00
O682   O     0.26693   0.19272   0.71361   0.00000  Uiso   1.00
O683   O     0.07071   0.18878   0.78213   0.00000  Uiso   1.00
O684   O     0.25491   0.15226   0.77014   0.00000  Uiso   1.00
O685   O     0.13760   0.06944   0.73413   0.00000  Uiso   1.00
O686   O     0.20345   0.25620   0.71361   0.00000  Uiso   1.00
Zn687  Zn    0.19338   0.13994   0.78734   0.00000  Uiso   1.00
Zn688  Zn    0.13379   0.12458   0.71876   0.00000  Uiso   1.00
Zn689  Zn    0.21056   0.19775   0.70657   0.00000  Uiso   1.00
Zn690  Zn    0.12893   0.20439   0.78734   0.00000  Uiso   1.00
C691   C     0.38635   0.15990   0.75995   0.00000  Uiso   1.00
C692   C     0.50473   0.16410   0.55945   0.00000  Uiso   1.00
C693   C     0.54606   0.10712   0.55697   0.00000  Uiso   1.00
C694   C     0.61398   0.17366   0.74016   0.00000  Uiso   1.00
C695   C     0.47779   0.19666   0.91977   0.00000  Uiso   1.00
C696   C     0.65986   0.17515   0.73589   0.00000  Uiso   1.00
C697   C     0.34134   0.15745   0.76519   0.00000  Uiso   1.00
C698   C     0.51329   0.32255   0.73887   0.00000  Uiso   1.00
C699   C     0.48358   0.01254   0.76436   0.00000  Uiso   1.00
C700   C     0.48974   0.05609   0.75976   0.00000  Uiso   1.00
C701   C     0.50964   0.27785   0.74054   0.00000  Uiso   1.00
C702   C     0.48850   0.25428   0.97534   0.00000  Uiso   1.00
C703   C     0.51866   0.14786   0.62944   0.00000  Uiso   1.00
C704   C     0.48176   0.18493   0.87110   0.00000  Uiso   1.00
C705   C     0.54335   0.09450   0.51274   0.00000  Uiso   1.00
C706   C     0.52452   0.14048   0.58096   0.00000  Uiso   1.00
C707   C     0.47459   0.23882   0.93675   0.00000  Uiso   1.00
C708   C     0.64852   0.13789   0.80457   0.00000  Uiso   1.00
C709   C     0.44329   0.32998   0.79341   0.00000  Uiso   1.00
C710   C     0.56575   0.06000   0.98897   0.00000  Uiso   1.00
C711   C     0.47372   0.19073   0.58667   0.00000  Uiso   1.00
C712   C     0.46129   0.26795   0.91292   0.00000  Uiso   1.00
C713   C     0.50398   0.22780   0.99787   0.00000  Uiso   1.00
C714   C     0.45672   0.10401   0.90705   0.00000  Uiso   1.00
C715   C     0.49864   0.18417   0.98692   0.00000  Uiso   1.00
C716   C     0.48623   0.16837   0.94700   0.00000  Uiso   1.00
C717   C     0.50884   0.15598   0.51281   0.00000  Uiso   1.00
C718   C     0.52068   0.11682   0.99200   0.00000  Uiso   1.00
C719   C     0.50573   0.10023   0.95389   0.00000  Uiso   1.00
C720   C     0.48399   0.12476   0.93515   0.00000  Uiso   1.00
H721   H     0.54148   0.00386   0.71613   0.00000  Uiso   1.00
H722   H     0.35039   0.18114   0.66935   0.00000  Uiso   1.00
H723   H     0.34994   0.22641   0.70237   0.00000  Uiso   1.00
H724   H     0.59152   0.10509   0.58977   0.00000  Uiso   1.00
H725   H     0.54695   0.07124   0.60570   0.00000  Uiso   1.00
H726   H     0.47769   0.04171   0.94195   0.00000  Uiso   1.00
H727   H     0.52327   0.05605   0.90284   0.00000  Uiso   1.00
H728   H     0.51192   0.26560   0.55298   0.00000  Uiso   1.00
H729   H     0.55626   0.26361   0.51017   0.00000  Uiso   1.00
H730   H     0.50993   0.31431   0.96423   0.00000  Uiso   1.00
H731   H     0.45951   0.30650   0.99734   0.00000  Uiso   1.00
N732   N     0.56858   0.08427   0.57809   0.00000  Uiso   1.00
N733   N     0.43493   0.08734   0.88475   0.00000  Uiso   1.00
N734   N     0.35617   0.19555   0.69953   0.00000  Uiso   1.00
N735   N     0.62781   0.12228   0.83605   0.00000  Uiso   1.00
N736   N     0.41104   0.31747   0.81659   0.00000  Uiso   1.00
N737   N     0.50852   0.05743   0.93728   0.00000  Uiso   1.00
N738   N     0.58393   0.03255   0.97008   0.00000  Uiso   1.00
N739   N     0.44892   0.21171   0.60846   0.00000  Uiso   1.00
N740   N     0.45071   0.29136   0.89407   0.00000  Uiso   1.00
N741   N     0.52950   0.24568   0.52823   0.00000  Uiso   1.00
N742   N     0.49025   0.29773   0.99033   0.00000  Uiso   1.00
O743   O     0.50000   0.16667   0.75000   0.00000  Uiso   1.00
O744   O     0.48784   0.12637   0.65459   0.00000  Uiso   1.00
O745   O     0.46274   0.20391   0.84968   0.00000  Uiso   1.00
O746   O     0.54157   0.17759   0.64606   0.00000  Uiso   1.00
O747   O     0.50785   0.15880   0.84968   0.00000  Uiso   1.00
O748   O     0.51264   0.08019   0.78214   0.00000  Uiso   1.00
O749   O     0.47965   0.26085   0.77014   0.00000  Uiso   1.00
O750   O     0.40745   0.13291   0.73413   0.00000  Uiso   1.00
O751   O     0.60026   0.19272   0.71361   0.00000  Uiso   1.00
O752   O     0.40405   0.18878   0.78213   0.00000  Uiso   1.00
O753   O     0.58824   0.15226   0.77014   0.00000  Uiso   1.00
O754   O     0.47093   0.06944   0.73413   0.00000  Uiso   1.00
O755   O     0.53678   0.25620   0.71361   0.00000  Uiso   1.00
Zn756  Zn    0.52672   0.13994   0.78734   0.00000  Uiso   1.00
Zn757  Zn    0.46713   0.12458   0.71876   0.00000  Uiso   1.00
Zn758  Zn    0.54389   0.19775   0.70657   0.00000  Uiso   1.00
Zn759  Zn    0.46226   0.20439   0.78734   0.00000  Uiso   1.00
C760   C     0.71968   0.15990   0.75995   0.00000  Uiso   1.00
C761   C     0.83806   0.16410   0.55945   0.00000  Uiso   1.00
C762   C     0.87939   0.10712   0.55697   0.00000  Uiso   1.00
C763   C     0.94731   0.17366   0.74016   0.00000  Uiso   1.00
C764   C     0.81112   0.19666   0.91977   0.00000  Uiso   1.00
C765   C     0.99319   0.17515   0.73589   0.00000  Uiso   1.00
C766   C     0.67467   0.15745   0.76519   0.00000  Uiso   1.00
C767   C     0.84663   0.32255   0.73887   0.00000  Uiso   1.00
C768   C     0.81691   0.01254   0.76436   0.00000  Uiso   1.00
C769   C     0.82307   0.05609   0.75976   0.00000  Uiso   1.00
C770   C     0.84297   0.27785   0.74054   0.00000  Uiso   1.00
C771   C     0.82183   0.25428   0.97534   0.00000  Uiso   1.00
C772   C     0.85199   0.14786   0.62944   0.00000  Uiso   1.00
C773   C     0.81510   0.18493   0.87110   0.00000  Uiso   1.00
C774   C     0.87668   0.09450   0.51274   0.00000  Uiso   1.00
C775   C     0.85786   0.14048   0.58096   0.00000  Uiso   1.00
C776   C     0.80793   0.23882   0.93675   0.00000  Uiso   1.00
C777   C     0.98185   0.13789   0.80457   0.00000  Uiso   1.00
C778   C     0.77663   0.32998   0.79341   0.00000  Uiso   1.00
C779   C     0.89909   0.06000   0.98897   0.00000  Uiso   1.00
C780   C     0.80705   0.19073   0.58667   0.00000  Uiso   1.00
C781   C     0.79462   0.26795   0.91292   0.00000  Uiso   1.00
C782   C     0.83731   0.22780   0.99787   0.00000  Uiso   1.00
C783   C     0.79005   0.10401   0.90705   0.00000  Uiso   1.00
C784   C     0.83197   0.18417   0.98692   0.00000  Uiso   1.00
C785   C     0.81957   0.16837   0.94700   0.00000  Uiso   1.00
C786   C     0.84218   0.15598   0.51281   0.00000  Uiso   1.00
C787   C     0.85402   0.11682   0.99200   0.00000  Uiso   1.00
C788   C     0.83907   0.10023   0.95389   0.00000  Uiso   1.00
C789   C     0.81732   0.12476   0.93515   0.00000  Uiso   1.00
H790   H     0.87481   0.00386   0.71613   0.00000  Uiso   1.00
H791   H     0.68372   0.18114   0.66935   0.00000  Uiso   1.00
H792   H     0.68327   0.22641   0.70237   0.00000  Uiso   1.00
H793   H     0.92486   0.10509   0.58977   0.00000  Uiso   1.00
H794   H     0.88029   0.07124   0.60570   0.00000  Uiso   1.00
H795   H     0.81102   0.04171   0.94195   0.00000  Uiso   1.00
H796   H     0.85660   0.05605   0.90284   0.00000  Uiso   1.00
H797   H     0.84525   0.26560   0.55298   0.00000  Uiso   1.00
H798   H     0.88960   0.26361   0.51017   0.00000  Uiso   1.00
H799   H     0.84326   0.31431   0.96423   0.00000  Uiso   1.00
H800   H     0.79284   0.30650   0.99734   0.00000  Uiso   1.00
N801   N     0.90192   0.08427   0.57809   0.00000  Uiso   1.00
N802   N     0.76826   0.08734   0.88475   0.00000  Uiso   1.00
N803   N     0.68951   0.19555   0.69953   0.00000  Uiso   1.00
N804   N     0.96114   0.12228   0.83605   0.00000  Uiso   1.00
N805   N     0.74437   0.31747   0.81659   0.00000  Uiso   1.00
N806   N     0.84186   0.05743   0.93728   0.00000  Uiso   1.00
N807   N     0.91726   0.03255   0.97008   0.00000  Uiso   1.00
N808   N     0.78226   0.21171   0.60846   0.00000  Uiso   1.00
N809   N     0.78404   0.29136   0.89407   0.00000  Uiso   1.00
N810   N     0.86284   0.24568   0.52823   0.00000  Uiso   1.00
N811   N     0.82358   0.29773   0.99033   0.00000  Uiso   1.00
O812   O     0.83333   0.16667   0.75000   0.00000  Uiso   1.00
O813   O     0.82118   0.12637   0.65459   0.00000  Uiso   1.00
O814   O     0.79607   0.20391   0.84968   0.00000  Uiso   1.00
O815   O     0.87491   0.17759   0.64606   0.00000  Uiso   1.00
O816   O     0.84118   0.15880   0.84968   0.00000  Uiso   1.00
O817   O     0.84597   0.08019   0.78214   0.00000  Uiso   1.00
O818   O     0.81298   0.26085   0.77014   0.00000  Uiso   1.00
O819   O     0.74078   0.13291   0.73413   0.00000  Uiso   1.00
O820   O     0.93360   0.19272   0.71361   0.00000  Uiso   1.00
O821   O     0.73738   0.18878   0.78213   0.00000  Uiso   1.00
O822   O     0.92158   0.15226   0.77014   0.00000  Uiso   1.00
O823   O     0.80426   0.06944   0.73413   0.00000  Uiso   1.00
O824   O     0.87012   0.25620   0.71361   0.00000  Uiso   1.00
Zn825  Zn    0.86005   0.13994   0.78734   0.00000  Uiso   1.00
Zn826  Zn    0.80046   0.12458   0.71876   0.00000  Uiso   1.00
Zn827  Zn    0.87723   0.19775   0.70657   0.00000  Uiso   1.00
Zn828  Zn    0.79560   0.20439   0.78734   0.00000  Uiso   1.00
C829   C     0.05301   0.49323   0.75995   0.00000  Uiso   1.00
C830   C     0.17140   0.49743   0.55945   0.00000  Uiso   1.00
C831   C     0.21272   0.44045   0.55697   0.00000  Uiso   1.00
C832   C     0.28064   0.50699   0.74016   0.00000  Uiso   1.00
C833   C     0.14446   0.52999   0.91977   0.00000  Uiso   1.00
C834   C     0.32652   0.50848   0.73589   0.00000  Uiso   1.00
C835   C     0.00800   0.49078   0.76519   0.00000  Uiso   1.00
C836   C     0.17996   0.65588   0.73887   0.00000  Uiso   1.00
C837   C     0.15024   0.34587   0.76436   0.00000  Uiso   1.00
C838   C     0.15641   0.38942   0.75976   0.00000  Uiso   1.00
C839   C     0.17630   0.61119   0.74054   0.00000  Uiso   1.00
C840   C     0.15517   0.58761   0.97534   0.00000  Uiso   1.00
C841   C     0.18532   0.48119   0.62944   0.00000  Uiso   1.00
C842   C     0.14843   0.51826   0.87110   0.00000  Uiso   1.00
C843   C     0.21001   0.42783   0.51274   0.00000  Uiso   1.00
C844   C     0.19119   0.47381   0.58096   0.00000  Uiso   1.00
C845   C     0.14126   0.57215   0.93675   0.00000  Uiso   1.00
C846   C     0.31519   0.47122   0.80457   0.00000  Uiso   1.00
C847   C     0.10996   0.66331   0.79341   0.00000  Uiso   1.00
C848   C     0.23242   0.39333   0.98897   0.00000  Uiso   1.00
C849   C     0.14039   0.52406   0.58667   0.00000  Uiso   1.00
C850   C     0.12795   0.60128   0.91292   0.00000  Uiso   1.00
C851   C     0.17065   0.56114   0.99787   0.00000  Uiso   1.00
C852   C     0.12338   0.43734   0.90705   0.00000  Uiso   1.00
C853   C     0.16531   0.51750   0.98692   0.00000  Uiso   1.00
C854   C     0.15290   0.50170   0.94700   0.00000  Uiso   1.00
C855   C     0.17551   0.48931   0.51281   0.00000  Uiso   1.00
C856   C     0.18735   0.45015   0.99200   0.00000  Uiso   1.00
C857   C     0.17240   0.43357   0.95389   0.00000  Uiso   1.00
C858   C     0.15065   0.45809   0.93515   0.00000  Uiso   1.00
H859   H     0.20815   0.33719   0.71613   0.00000  Uiso   1.00
H860   H     0.01705   0.51447   0.66935   0.00000  Uiso   1.00
H861   H     0.01660   0.55974   0.70237   0.00000  Uiso   1.00
H862   H     0.25819   0.43842   0.58977   0.00000  Uiso   1.00
H863   H     0.21362   0.40458   0.60570   0.00000  Uiso   1.00
H864   H     0.14435   0.37505   0.94195   0.00000  Uiso   1.00
H865   H     0.18993   0.38938   0.90284   0.00000  Uiso   1.00
H866   H     0.17858   0.59893   0.55298   0.00000  Uiso   1.00
H867   H     0.22293   0.59694   0.51017   0.00000  Uiso   1.00
H868   H     0.17659   0.64764   0.96423   0.00000  Uiso   1.00
H869   H     0.12618   0.63984   0.99734   0.00000  Uiso   1.00
N870   N     0.23525   0.41760   0.57809   0.00000  Uiso   1.00
N871   N     0.10160   0.42067   0.88475   0.00000  Uiso   1.00
N872   N     0.02284   0.52888   0.69953   0.00000  Uiso   1.00
N873   N     0.29448   0.45561   0.83605   0.00000  Uiso   1.00
N874   N     0.07770   0.65080   0.81659   0.00000  Uiso   1.00
N875   N     0.17519   0.39076   0.93728   0.00000  Uiso   1.00
N876   N     0.25060   0.36589   0.97008   0.00000  Uiso   1.00
N877   N     0.11559   0.54505   0.60846   0.00000  Uiso   1.00
N878   N     0.11738   0.62469   0.89407   0.00000  Uiso   1.00
N879   N     0.19617   0.57901   0.52823   0.00000  Uiso   1.00
N880   N     0.15692   0.63106   0.99033   0.00000  Uiso   1.00
O881   O     0.16667   0.50000   0.75000   0.00000  Uiso   1.00
O882   O     0.15451   0.45970   0.65459   0.00000  Uiso   1.00
O883   O     0.12940   0.53724   0.84968   0.00000  Uiso   1.00
O884   O     0.20824   0.51092   0.64606   0.00000  Uiso   1.00
O885   O     0.17451   0.49213   0.84968   0.00000  Uiso   1.00
O886   O     0.17930   0.41352   0.78214   0.00000  Uiso   1.00
O887   O     0.14632   0.59418   0.77014   0.00000  Uiso   1.00
O888   O     0.07412   0.46625   0.73413   0.00000  Uiso   1.00
O889   O     0.26693   0.52605   0.71361   0.00000  Uiso   1.00
O890   O     0.07071   0.52211   0.78213   0.00000  Uiso   1.00
O891   O     0.25491   0.48559   0.77014   0.00000  Uiso   1.00
O892   O     0.13760   0.40277   0.73413   0.00000  Uiso   1.00
O893   O     0.20345   0.58953   0.71361   0.00000  Uiso   1.00
Zn894  Zn    0.19338   0.47327   0.78734   0.00000  Uiso   1.00
Zn895  Zn    0.13379   0.45791   0.71876   0.00000  Uiso   1.00
Zn896  Zn    0.21056   0.53109   0.70657   0.00000  Uiso   1.00
Zn897  Zn    0.12893   0.53773   0.78734   0.00000  Uiso   1.00
C898   C     0.38635   0.49323   0.75995   0.00000  Uiso   1.00
C899   C     0.50473   0.49743   0.55945   0.00000  Uiso   1.00
C900   C     0.54606   0.44045   0.55697   0.00000  Uiso   1.00
C901   C     0.61398   0.50699   0.74016   0.00000  Uiso   1.00
C902   C     0.47779   0.52999   0.91977   0.00000  Uiso   1.00
C903   C     0.65986   0.50848   0.73589   0.00000  Uiso   1.00
C904   C     0.34134   0.49078   0.76519   0.00000  Uiso   1.00
C905   C     0.51329   0.65588   0.73887   0.00000  Uiso   1.00
C906   C     0.48358   0.34587   0.76436   0.00000  Uiso   1.00
C907   C     0.48974   0.38942   0.75976   0.00000  Uiso   1.00
C908   C     0.50964   0.61119   0.74054   0.00000  Uiso   1.00
C909   C     0.48850   0.58761   0.97534   0.00000  Uiso   1.00
C910   C     0.51866   0.48119   0.62944   0.00000  Uiso   1.00
C911   C     0.48176   0.51826   0.87110   0.00000  Uiso   1.00
C912   C     0.54335   0.42783   0.51274   0.00000  Uiso   1.00
C913   C     0.52452   0.47381   0.58096   0.00000  Uiso   1.00
C914   C     0.47459   0.57215   0.93675   0.00000  Uiso   1.00
C915   C     0.64852   0.47122   0.80457   0.00000  Uiso   1.00
C916   C     0.44329   0.66331   0.79341   0.00000  Uiso   1.00
C917   C     0.56575   0.39333   0.98897   0.00000  Uiso   1.00
C918   C     0.47372   0.52406   0.58667   0.00000  Uiso   1.00
C919   C     0.46129   0.60128   0.91292   0.00000  Uiso   1.00
C920   C     0.50398   0.56114   0.99787   0.00000  Uiso   1.00
C921   C     0.45672   0.43734   0.90705   0.00000  Uiso   1.00
C922   C     0.49864   0.51750   0.98692   0.00000  Uiso   1.00
C923   C     0.48623   0.50170   0.94700   0.00000  Uiso   1.00
C924   C     0.50884   0.48931   0.51281   0.00000  Uiso   1.00
C925   C     0.52068   0.45015   0.99200   0.00000  Uiso   1.00
C926   C     0.50573   0.43357   0.95389   0.00000  Uiso   1.00
C927   C     0.48399   0.45809   0.93515   0.00000  Uiso   1.00
H928   H     0.54148   0.33719   0.71613   0.00000  Uiso   1.00
H929   H     0.35039   0.51447   0.66935   0.00000  Uiso   1.00
H930   H     0.34994   0.55974   0.70237   0.00000  Uiso   1.00
H931   H     0.59152   0.43842   0.58977   0.00000  Uiso   1.00
H932   H     0.54695   0.40458   0.60570   0.00000  Uiso   1.00
H933   H     0.47769   0.37505   0.94195   0.00000  Uiso   1.00
H934   H     0.52327   0.38938   0.90284   0.00000  Uiso   1.00
H935   H     0.51192   0.59893   0.55298   0.00000  Uiso   1.00
H936   H     0.55626   0.59694   0.51017   0.00000  Uiso   1.00
H937   H     0.50993   0.64764   0.96423   0.00000  Uiso   1.00
H938   H     0.45951   0.63984   0.99734   0.00000  Uiso   1.00
N939   N     0.56858   0.41760   0.57809   0.00000  Uiso   1.00
N940   N     0.43493   0.42067   0.88475   0.00000  Uiso   1.00
N941   N     0.35617   0.52888   0.69953   0.00000  Uiso   1.00
N942   N     0.62781   0.45561   0.83605   0.00000  Uiso   1.00
N943   N     0.41104   0.65080   0.81659   0.00000  Uiso   1.00
N944   N     0.50852   0.39076   0.93728   0.00000  Uiso   1.00
N945   N     0.58393   0.36589   0.97008   0.00000  Uiso   1.00
N946   N     0.44892   0.54505   0.60846   0.00000  Uiso   1.00
N947   N     0.45071   0.62469   0.89407   0.00000  Uiso   1.00
N948   N     0.52950   0.57901   0.52823   0.00000  Uiso   1.00
N949   N     0.49025   0.63106   0.99033   0.00000  Uiso   1.00
O950   O     0.50000   0.50000   0.75000   0.00000  Uiso   1.00
O951   O     0.48784   0.45970   0.65459   0.00000  Uiso   1.00
O952   O     0.46274   0.53724   0.84968   0.00000  Uiso   1.00
O953   O     0.54157   0.51092   0.64606   0.00000  Uiso   1.00
O954   O     0.50785   0.49213   0.84968   0.00000  Uiso   1.00
O955   O     0.51264   0.41352   0.78214   0.00000  Uiso   1.00
O956   O     0.47965   0.59418   0.77014   0.00000  Uiso   1.00
O957   O     0.40745   0.46625   0.73413   0.00000  Uiso   1.00
O958   O     0.60026   0.52605   0.71361   0.00000  Uiso   1.00
O959   O     0.40405   0.52211   0.78213   0.00000  Uiso   1.00
O960   O     0.58824   0.48559   0.77014   0.00000  Uiso   1.00
O961   O     0.47093   0.40277   0.73413   0.00000  Uiso   1.00
O962   O     0.53678   0.58953   0.71361   0.00000  Uiso   1.00
Zn963  Zn    0.52672   0.47327   0.78734   0.00000  Uiso   1.00
Zn964  Zn    0.46713   0.45791   0.71876   0.00000  Uiso   1.00
Zn965  Zn    0.54389   0.53109   0.70657   0.00000  Uiso   1.00
Zn966  Zn    0.46226   0.53773   0.78734   0.00000  Uiso   1.00
C967   C     0.71968   0.49323   0.75995   0.00000  Uiso   1.00
C968   C     0.83806   0.49743   0.55945   0.00000  Uiso   1.00
C969   C     0.87939   0.44045   0.55697   0.00000  Uiso   1.00
C970   C     0.94731   0.50699   0.74016   0.00000  Uiso   1.00
C971   C     0.81112   0.52999   0.91977   0.00000  Uiso   1.00
C972   C     0.99319   0.50848   0.73589   0.00000  Uiso   1.00
C973   C     0.67467   0.49078   0.76519   0.00000  Uiso   1.00
C974   C     0.84663   0.65588   0.73887   0.00000  Uiso   1.00
C975   C     0.81691   0.34587   0.76436   0.00000  Uiso   1.00
C976   C     0.82307   0.38942   0.75976   0.00000  Uiso   1.00
C977   C     0.84297   0.61119   0.74054   0.00000  Uiso   1.00
C978   C     0.82183   0.58761   0.97534   0.00000  Uiso   1.00
C979   C     0.85199   0.48119   0.62944   0.00000  Uiso   1.00
C980   C     0.81510   0.51826   0.87110   0.00000  Uiso   1.00
C981   C     0.87668   0.42783   0.51274   0.00000  Uiso   1.00
C982   C     0.85786   0.47381   0.58096   0.00000  Uiso   1.00
C983   C     0.80793   0.57215   0.93675   0.00000  Uiso   1.00
C984   C     0.98185   0.47122   0.80457   0.00000  Uiso   1.00
C985   C     0.77663   0.66331   0.79341   0.00000  Uiso   1.00
C986   C     0.89909   0.39333   0.98897   0.00000  Uiso   1.00
C987   C     0.80705   0.52406   0.58667   0.00000  Uiso   1.00
C988   C     0.79462   0.60128   0.91292   0.00000  Uiso   1.00
C989   C     0.83731   0.56114   0.99787   0.00000  Uiso   1.00
C990   C     0.79005   0.43734   0.90705   0.00000  Uiso   1.00
C991   C     0.83197   0.51750   0.98692   0.00000  Uiso   1.00
C992   C     0.81957   0.50170   0.94700   0.00000  Uiso   1.00
C993   C     0.84218   0.48931   0.51281   0.00000  Uiso   1.00
C994   C     0.85402   0.45015   0.99200   0.00000  Uiso   1.00
C995   C     0.83907   0.43357   0.95389   0.00000  Uiso   1.00
C996   C     0.81732   0.45809   0.93515   0.00000  Uiso   1.00
H997   H     0.87481   0.33719   0.71613   0.00000  Uiso   1.00
H998   H     0.68372   0.51447   0.66935   0.00000  Uiso   1.00
H999   H     0.68327   0.55974   0.70237   0.00000  Uiso   1.00
H1000  H     0.92486   0.43842   0.58977   0.00000  Uiso   1.00
H1001  H     0.88029   0.40458   0.60570   0.00000  Uiso   1.00
H1002  H     0.81102   0.37505   0.94195   0.00000  Uiso   1.00
H1003  H     0.85660   0.38938   0.90284   0.00000  Uiso   1.00
H1004  H     0.84525   0.59893   0.55298   0.00000  Uiso   1.00
H1005  H     0.88960   0.59694   0.51017   0.00000  Uiso   1.00
H1006  H     0.84326   0.64764   0.96423   0.00000  Uiso   1.00
H1007  H     0.79284   0.63984   0.99734   0.00000  Uiso   1.00
N1008  N     0.90192   0.41760   0.57809   0.00000  Uiso   1.00
N1009  N     0.76826   0.42067   0.88475   0.00000  Uiso   1.00
N1010  N     0.68951   0.52888   0.69953   0.00000  Uiso   1.00
N1011  N     0.96114   0.45561   0.83605   0.00000  Uiso   1.00
N1012  N     0.74437   0.65080   0.81659   0.00000  Uiso   1.00
N1013  N     0.84186   0.39076   0.93728   0.00000  Uiso   1.00
N1014  N     0.91726   0.36589   0.97008   0.00000  Uiso   1.00
N1015  N     0.78226   0.54505   0.60846   0.00000  Uiso   1.00
N1016  N     0.78404   0.62469   0.89407   0.00000  Uiso   1.00
N1017  N     0.86284   0.57901   0.52823   0.00000  Uiso   1.00
N1018  N     0.82358   0.63106   0.99033   0.00000  Uiso   1.00
O1019  O     0.83333   0.50000   0.75000   0.00000  Uiso   1.00
O1020  O     0.82118   0.45970   0.65459   0.00000  Uiso   1.00
O1021  O     0.79607   0.53724   0.84968   0.00000  Uiso   1.00
O1022  O     0.87491   0.51092   0.64606   0.00000  Uiso   1.00
O1023  O     0.84118   0.49213   0.84968   0.00000  Uiso   1.00
O1024  O     0.84597   0.41352   0.78214   0.00000  Uiso   1.00
O1025  O     0.81298   0.59418   0.77014   0.00000  Uiso   1.00
O1026  O     0.74078   0.46625   0.73413   0.00000  Uiso   1.00
O1027  O     0.93360   0.52605   0.71361   0.00000  Uiso   1.00
O1028  O     0.73738   0.52211   0.78213   0.00000  Uiso   1.00
O1029  O     0.92158   0.48559   0.77014   0.00000  Uiso   1.00
O1030  O     0.80426   0.40277   0.73413   0.00000  Uiso   1.00
O1031  O     0.87012   0.58953   0.71361   0.00000  Uiso   1.00
Zn1032 Zn    0.86005   0.47327   0.78734   0.00000  Uiso   1.00
Zn1033 Zn    0.80046   0.45791   0.71876   0.00000  Uiso   1.00
Zn1034 Zn    0.87723   0.53109   0.70657   0.00000  Uiso   1.00
Zn1035 Zn    0.79560   0.53773   0.78734   0.00000  Uiso   1.00
C1036  C     0.05301   0.82656   0.75995   0.00000  Uiso   1.00
C1037  C     0.17140   0.83076   0.55945   0.00000  Uiso   1.00
C1038  C     0.21272   0.77379   0.55697   0.00000  Uiso   1.00
C1039  C     0.28064   0.84033   0.74016   0.00000  Uiso   1.00
C1040  C     0.14446   0.86332   0.91977   0.00000  Uiso   1.00
C1041  C     0.32652   0.84181   0.73589   0.00000  Uiso   1.00
C1042  C     0.00800   0.82412   0.76519   0.00000  Uiso   1.00
C1043  C     0.17996   0.98922   0.73887   0.00000  Uiso   1.00
C1044  C     0.15024   0.67920   0.76436   0.00000  Uiso   1.00
C1045  C     0.15641   0.72276   0.75976   0.00000  Uiso   1.00
C1046  C     0.17630   0.94452   0.74054   0.00000  Uiso   1.00
C1047  C     0.15517   0.92095   0.97534   0.00000  Uiso   1.00
C1048  C     0.18532   0.81453   0.62944   0.00000  Uiso   1.00
C1049  C     0.14843   0.85159   0.87110   0.00000  Uiso   1.00
C1050  C     0.21001   0.76116   0.51274   0.00000  Uiso   1.00
C1051  C     0.19119   0.80715   0.58096   0.00000  Uiso   1.00
C1052  C     0.14126   0.90549   0.93675   0.00000  Uiso   1.00
C1053  C     0.31519   0.80456   0.80457   0.00000  Uiso   1.00
C1054  C     0.10996   0.99665   0.79341   0.00000  Uiso   1.00
C1055  C     0.23242   0.72666   0.98897   0.00000  Uiso   1.00
C1056  C     0.14039   0.85739   0.58667   0.00000  Uiso   1.00
C1057  C     0.12795   0.93461   0.91292   0.00000  Uiso   1.00
C1058  C     0.17065   0.89447   0.99787   0.00000  Uiso   1.00
C1059  C     0.12338   0.77067   0.90705   0.00000  Uiso   1.00
C1060  C     0.16531   0.85084   0.98692   0.00000  Uiso   1.00
C1061  C     0.15290   0.83504   0.94700   0.00000  Uiso   1.00
C1062  C     0.17551   0.82264   0.51281   0.00000  Uiso   1.00
C1063  C     0.18735   0.78348   0.99200   0.00000  Uiso   1.00
C1064  C     0.17240   0.76690   0.95389   0.00000  Uiso   1.00
C1065  C     0.15065   0.79142   0.93515   0.00000  Uiso   1.00
H1066  H     0.20815   0.67053   0.71613   0.00000  Uiso   1.00
H1067  H     0.01705   0.84780   0.66935   0.00000  Uiso   1.00
H1068  H     0.01660   0.89308   0.70237   0.00000  Uiso   1.00
H1069  H     0.25819   0.77176   0.58977   0.00000  Uiso   1.00
H1070  H     0.21362   0.73791   0.60570   0.00000  Uiso   1.00
H1071  H     0.14435   0.70838   0.94195   0.00000  Uiso   1.00
H1072  H     0.18993   0.72271   0.90284   0.00000  Uiso   1.00
H1073  H     0.17858   0.93226   0.55298   0.00000  Uiso   1.00
H1074  H     0.22293   0.93028   0.51017   0.00000  Uiso   1.00
H1075  H     0.17659   0.98097   0.96423   0.00000  Uiso   1.00
H1076  H     0.12618   0.97317   0.99734   0.00000  Uiso   1.00
N1077  N     0.23525   0.75094   0.57809   0.00000  Uiso   1.00
N1078  N     0.10160   0.75400   0.88475   0.00000  Uiso   1.00
N1079  N     0.02284   0.86222   0.69953   0.00000  Uiso   1.00
N1080  N     0.29448   0.78894   0.83605   0.00000  Uiso   1.00
N1081  N     0.07770   0.98413   0.81659   0.00000  Uiso   1.00
N1082  N     0.17519   0.72409   0.93728   0.00000  Uiso   1.00
N1083  N     0.25060   0.69922   0.97008   0.00000  Uiso   1.00
N1084  N     0.11559   0.87838   0.60846   0.00000  Uiso   1.00
N1085  N     0.11738   0.95803   0.89407   0.00000  Uiso   1.00
N1086  N     0.19617   0.91235   0.52823   0.00000  Uiso   1.00
N1087  N     0.15692   0.96440   0.99033   0.00000  Uiso   1.00
O1088  O     0.16667   0.83333   0.75000   0.00000  Uiso   1.00
O1089  O     0.15451   0.79304   0.65459   0.00000  Uiso   1.00
O1090  O     0.12940   0.87058   0.84968   0.00000  Uiso   1.00
O1091  O     0.20824   0.84425   0.64606   0.00000  Uiso   1.00
O1092  O     0.17451   0.82546   0.84968   0.00000  Uiso   1.00
O1093  O     0.17930   0.74686   0.78214   0.00000  Uiso   1.00
O1094  O     0.14632   0.92751   0.77014   0.00000  Uiso   1.00
O1095  O     0.07412   0.79958   0.73413   0.00000  Uiso   1.00
O1096  O     0.26693   0.85939   0.71361   0.00000  Uiso   1.00
O1097  O     0.07071   0.85544   0.78213   0.00000  Uiso   1.00
O1098  O     0.25491   0.81892   0.77014   0.00000  Uiso   1.00
O1099  O     0.13760   0.73610   0.73413   0.00000  Uiso   1.00
O1100  O     0.20345   0.92286   0.71361   0.00000  Uiso   1.00
Zn1101 Zn    0.19338   0.80661   0.78734   0.00000  Uiso   1.00
Zn1102 Zn    0.13379   0.79124   0.71876   0.00000  Uiso   1.00
Zn1103 Zn    0.21056   0.86442   0.70657   0.00000  Uiso   1.00
Zn1104 Zn    0.12893   0.87106   0.78734   0.00000  Uiso   1.00
C1105  C     0.38635   0.82656   0.75995   0.00000  Uiso   1.00
C1106  C     0.50473   0.83076   0.55945   0.00000  Uiso   1.00
C1107  C     0.54606   0.77379   0.55697   0.00000  Uiso   1.00
C1108  C     0.61398   0.84033   0.74016   0.00000  Uiso   1.00
C1109  C     0.47779   0.86332   0.91977   0.00000  Uiso   1.00
C1110  C     0.65986   0.84181   0.73589   0.00000  Uiso   1.00
C1111  C     0.34134   0.82412   0.76519   0.00000  Uiso   1.00
C1112  C     0.51329   0.98922   0.73887   0.00000  Uiso   1.00
C1113  C     0.48358   0.67920   0.76436   0.00000  Uiso   1.00
C1114  C     0.48974   0.72276   0.75976   0.00000  Uiso   1.00
C1115  C     0.50964   0.94452   0.74054   0.00000  Uiso   1.00
C1116  C     0.48850   0.92095   0.97534   0.00000  Uiso   1.00
C1117  C     0.51866   0.81453   0.62944   0.00000  Uiso   1.00
C1118  C     0.48176   0.85159   0.87110   0.00000  Uiso   1.00
C1119  C     0.54335   0.76116   0.51274   0.00000  Uiso   1.00
C1120  C     0.52452   0.80715   0.58096   0.00000  Uiso   1.00
C1121  C     0.47459   0.90549   0.93675   0.00000  Uiso   1.00
C1122  C     0.64852   0.80456   0.80457   0.00000  Uiso   1.00
C1123  C     0.44329   0.99665   0.79341   0.00000  Uiso   1.00
C1124  C     0.56575   0.72666   0.98897   0.00000  Uiso   1.00
C1125  C     0.47372   0.85739   0.58667   0.00000  Uiso   1.00
C1126  C     0.46129   0.93461   0.91292   0.00000  Uiso   1.00
C1127  C     0.50398   0.89447   0.99787   0.00000  Uiso   1.00
C1128  C     0.45672   0.77067   0.90705   0.00000  Uiso   1.00
C1129  C     0.49864   0.85084   0.98692   0.00000  Uiso   1.00
C1130  C     0.48623   0.83504   0.94700   0.00000  Uiso   1.00
C1131  C     0.50884   0.82264   0.51281   0.00000  Uiso   1.00
C1132  C     0.52068   0.78348   0.99200   0.00000  Uiso   1.00
C1133  C     0.50573   0.76690   0.95389   0.00000  Uiso   1.00
C1134  C     0.48399   0.79142   0.93515   0.00000  Uiso   1.00
H1135  H     0.54148   0.67053   0.71613   0.00000  Uiso   1.00
H1136  H     0.35039   0.84780   0.66935   0.00000  Uiso   1.00
H1137  H     0.34994   0.89308   0.70237   0.00000  Uiso   1.00
H1138  H     0.59152   0.77176   0.58977   0.00000  Uiso   1.00
H1139  H     0.54695   0.73791   0.60570   0.00000  Uiso   1.00
H1140  H     0.47769   0.70838   0.94195   0.00000  Uiso   1.00
H1141  H     0.52327   0.72271   0.90284   0.00000  Uiso   1.00
H1142  H     0.51192   0.93226   0.55298   0.00000  Uiso   1.00
H1143  H     0.55626   0.93028   0.51017   0.00000  Uiso   1.00
H1144  H     0.50993   0.98097   0.96423   0.00000  Uiso   1.00
H1145  H     0.45951   0.97317   0.99734   0.00000  Uiso   1.00
N1146  N     0.56858   0.75094   0.57809   0.00000  Uiso   1.00
N1147  N     0.43493   0.75400   0.88475   0.00000  Uiso   1.00
N1148  N     0.35617   0.86222   0.69953   0.00000  Uiso   1.00
N1149  N     0.62781   0.78894   0.83605   0.00000  Uiso   1.00
N1150  N     0.41104   0.98413   0.81659   0.00000  Uiso   1.00
N1151  N     0.50852   0.72409   0.93728   0.00000  Uiso   1.00
N1152  N     0.58393   0.69922   0.97008   0.00000  Uiso   1.00
N1153  N     0.44892   0.87838   0.60846   0.00000  Uiso   1.00
N1154  N     0.45071   0.95803   0.89407   0.00000  Uiso   1.00
N1155  N     0.52950   0.91235   0.52823   0.00000  Uiso   1.00
N1156  N     0.49025   0.96440   0.99033   0.00000  Uiso   1.00
O1157  O     0.50000   0.83333   0.75000   0.00000  Uiso   1.00
O1158  O     0.48784   0.79304   0.65459   0.00000  Uiso   1.00
O1159  O     0.46274   0.87058   0.84968   0.00000  Uiso   1.00
O1160  O     0.54157   0.84425   0.64606   0.00000  Uiso   1.00
O1161  O     0.50785   0.82546   0.84968   0.00000  Uiso   1.00
O1162  O     0.51264   0.74686   0.78214   0.00000  Uiso   1.00
O1163  O     0.47965   0.92751   0.77014   0.00000  Uiso   1.00
O1164  O     0.40745   0.79958   0.73413   0.00000  Uiso   1.00
O1165  O     0.60026   0.85939   0.71361   0.00000  Uiso   1.00
O1166  O     0.40405   0.85544   0.78213   0.00000  Uiso   1.00
O1167  O     0.58824   0.81892   0.77014   0.00000  Uiso   1.00
O1168  O     0.47093   0.73610   0.73413   0.00000  Uiso   1.00
O1169  O     0.53678   0.92286   0.71361   0.00000  Uiso   1.00
Zn1170 Zn    0.52672   0.80661   0.78734   0.00000  Uiso   1.00
Zn1171 Zn    0.46713   0.79124   0.71876   0.00000  Uiso   1.00
Zn1172 Zn    0.54389   0.86442   0.70657   0.00000  Uiso   1.00
Zn1173 Zn    0.46226   0.87106   0.78734   0.00000  Uiso   1.00
C1174  C     0.71968   0.82656   0.75995   0.00000  Uiso   1.00
C1175  C     0.83806   0.83076   0.55945   0.00000  Uiso   1.00
C1176  C     0.87939   0.77379   0.55697   0.00000  Uiso   1.00
C1177  C     0.94731   0.84033   0.74016   0.00000  Uiso   1.00
C1178  C     0.81112   0.86332   0.91977   0.00000  Uiso   1.00
C1179  C     0.99319   0.84181   0.73589   0.00000  Uiso   1.00
C1180  C     0.67467   0.82412   0.76519   0.00000  Uiso   1.00
C1181  C     0.84663   0.98922   0.73887   0.00000  Uiso   1.00
C1182  C     0.81691   0.67920   0.76436   0.00000  Uiso   1.00
C1183  C     0.82307   0.72276   0.75976   0.00000  Uiso   1.00
C1184  C     0.84297   0.94452   0.74054   0.00000  Uiso   1.00
C1185  C     0.82183   0.92095   0.97534   0.00000  Uiso   1.00
C1186  C     0.85199   0.81453   0.62944   0.00000  Uiso   1.00
C1187  C     0.81510   0.85159   0.87110   0.00000  Uiso   1.00
C1188  C     0.87668   0.76116   0.51274   0.00000  Uiso   1.00
C1189  C     0.85786   0.80715   0.58096   0.00000  Uiso   1.00
C1190  C     0.80793   0.90549   0.93675   0.00000  Uiso   1.00
C1191  C     0.98185   0.80456   0.80457   0.00000  Uiso   1.00
C1192  C     0.77663   0.99665   0.79341   0.00000  Uiso   1.00
C1193  C     0.89909   0.72666   0.98897   0.00000  Uiso   1.00
C1194  C     0.80705   0.85739   0.58667   0.00000  Uiso   1.00
C1195  C     0.79462   0.93461   0.91292   0.00000  Uiso   1.00
C1196  C     0.83731   0.89447   0.99787   0.00000  Uiso   1.00
C1197  C     0.79005   0.77067   0.90705   0.00000  Uiso   1.00
C1198  C     0.83197   0.85084   0.98692   0.00000  Uiso   1.00
C1199  C     0.81957   0.83504   0.94700   0.00000  Uiso   1.00
C1200  C     0.84218   0.82264   0.51281   0.00000  Uiso   1.00
C1201  C     0.85402   0.78348   0.99200   0.00000  Uiso   1.00
C1202  C     0.83907   0.76690   0.95389   0.00000  Uiso   1.00
C1203  C     0.81732   0.79142   0.93515   0.00000  Uiso   1.00
H1204  H     0.87481   0.67053   0.71613   0.00000  Uiso   1.00
H1205  H     0.68372   0.84780   0.66935   0.00000  Uiso   1.00
H1206  H     0.68327   0.89308   0.70237   0.00000  Uiso   1.00
H1207  H     0.92486   0.77176   0.58977   0.00000  Uiso   1.00
H1208  H     0.88029   0.73791   0.60570   0.00000  Uiso   1.00
H1209  H     0.81102   0.70838   0.94195   0.00000  Uiso   1.00
H1210  H     0.85660   0.72271   0.90284   0.00000  Uiso   1.00
H1211  H     0.84525   0.93226   0.55298   0.00000  Uiso   1.00
H1212  H     0.88960   0.93028   0.51017   0.00000  Uiso   1.00
H1213  H     0.84326   0.98097   0.96423   0.00000  Uiso   1.00
H1214  H     0.79284   0.97317   0.99734   0.00000  Uiso   1.00
N1215  N     0.90192   0.75094   0.57809   0.00000  Uiso   1.00
N1216  N     0.76826   0.75400   0.88475   0.00000  Uiso   1.00
N1217  N     0.68951   0.86222   0.69953   0.00000  Uiso   1.00
N1218  N     0.96114   0.78894   0.83605   0.00000  Uiso   1.00
N1219  N     0.74437   0.98413   0.81659   0.00000  Uiso   1.00
N1220  N     0.84186   0.72409   0.93728   0.00000  Uiso   1.00
N1221  N     0.91726   0.69922   0.97008   0.00000  Uiso   1.00
N1222  N     0.78226   0.87838   0.60846   0.00000  Uiso   1.00
N1223  N     0.78404   0.95803   0.89407   0.00000  Uiso   1.00
N1224  N     0.86284   0.91235   0.52823   0.00000  Uiso   1.00
N1225  N     0.82358   0.96440   0.99033   0.00000  Uiso   1.00
O1226  O     0.83333   0.83333   0.75000   0.00000  Uiso   1.00
O1227  O     0.82118   0.79304   0.65459   0.00000  Uiso   1.00
O1228  O     0.79607   0.87058   0.84968   0.00000  Uiso   1.00
O1229  O     0.87491   0.84425   0.64606   0.00000  Uiso   1.00
O1230  O     0.84118   0.82546   0.84968   0.00000  Uiso   1.00
O1231  O     0.84597   0.74686   0.78214   0.00000  Uiso   1.00
O1232  O     0.81298   0.92751   0.77014   0.00000  Uiso   1.00
O1233  O     0.74078   0.79958   0.73413   0.00000  Uiso   1.00
O1234  O     0.93360   0.85939   0.71361   0.00000  Uiso   1.00
O1235  O     0.73738   0.85544   0.78213   0.00000  Uiso   1.00
O1236  O     0.92158   0.81892   0.77014   0.00000  Uiso   1.00
O1237  O     0.80426   0.73610   0.73413   0.00000  Uiso   1.00
O1238  O     0.87012   0.92286   0.71361   0.00000  Uiso   1.00
Zn1239 Zn    0.86005   0.80661   0.78734   0.00000  Uiso   1.00
Zn1240 Zn    0.80046   0.79124   0.71876   0.00000  Uiso   1.00
Zn1241 Zn    0.87723   0.86442   0.70657   0.00000  Uiso   1.00
Zn1242 Zn    0.79560   0.87106   0.78734   0.00000  Uiso   1.00
loop_
_geom_bond_atom_site_label_1
_geom_bond_atom_site_label_2
_geom_bond_distance
_geom_bond_site_symmetry_2
_ccdc_geom_bond_type
C1     O62     1.262   .     A
C1     O60     1.266   .     A
C1     C7      1.430   .     S
C2     C16     1.400   .     A
C2     C21     1.455   .     S
C2     C27     1.411   .     A
C3     N42     1.437   .     S
C3     C15     1.404   .     A
C3     C16     1.407   .     A
C4     O63     1.277   .     A
C4     C6      1.466   .     S
C4     O61     1.292   .     A
C5     C14     1.485   .     S
C5     C26     1.425   .     A
C5     C17     1.421   .     A
C6     C76     1.356   .     S
C6     N113    1.438   .     S
C7     C144    1.356   1_455 S
C7     C156    1.451   1_455 S
C8     C11     1.453   .     S
C8     C216    1.345   .     S
C8     H238    1.088   .     S
C9     C10     1.426   .     S
C9     C422    1.345   1_545 S
C9     C433    1.450   1_545 S
C10    O64     1.274   .     A
C10    O58     1.278   .     A
C11    O59     1.265   .     A
C11    O65     1.276   .     A
C12    C17     1.403   .     A
C12    N52     1.436   .     S
C12    C23     1.398   .     A
C13    O56     1.281   .     A
C13    O54     1.275   .     A
C13    C16     1.457   .     S
C14    O55     1.283   .     A
C14    O57     1.291   .     A
C15    C641    1.448   1_554 S
C15    C649    1.421   1_554 S
C17    C22     1.450   .     S
C18    N45     1.158   .     T
C18    C76     1.451   .     S
C19    N46     1.158   .     T
C19    C216    1.450   .     S
C20    N48     1.157   .     T
C20    C636    1.448   .     S
C21    N49     1.158   .     T
C22    N50     1.157   .     T
C23    C25     1.420   .     A
C23    N672    1.438   .     S
C24    C30     1.452   .     S
C24    N43     1.158   .     T
C25    C26     1.418   .     A
C25    C648    1.419   .     S
C26    C30     1.423   .     A
C27    C646    1.419   1_554 S
C27    C649    1.417   1_554 S
C28    C29     1.415   .     A
C28    C648    1.417   .     S
C28    C636    1.421   .     S
C29    C30     1.409   .     A
C29    N47     1.436   .     S
H31    C422    1.088   1_545 S
H32    N44     1.046   .     S
H33    N44     1.045   .     S
H34    N42     1.046   .     S
H35    N42     1.045   .     S
H36    N47     1.045   .     S
H37    N47     1.046   .     S
H38    N51     1.046   .     S
H39    N51     1.046   .     S
H40    N52     1.044   .     S
H41    N52     1.046   .     S
N44    C144    1.438   1_455 S
N51    C644    1.438   1_554 S
O53    Zn69    1.927   .     S
O53    Zn66    1.968   .     S
O53    Zn68    1.946   .     S
O53    Zn67    1.945   .     S
O54    Zn67    1.928   .     S
O55    Zn69    1.938   .     S
O56    Zn68    1.927   .     S
O57    Zn66    1.917   .     S
O58    Zn66    1.935   .     S
O59    Zn69    1.944   .     S
O60    Zn67    1.934   .     S
O61    Zn68    1.946   .     S
O62    Zn69    1.944   .     S
O63    Zn66    1.936   .     S
O64    Zn67    1.947   .     S
O65    Zn68    1.934   .     S
C70    O131    1.262   .     A
C70    O129    1.266   .     A
C70    C76     1.430   .     S
C71    C85     1.400   .     A
C71    C90     1.455   .     S
C71    C96     1.411   .     A
C72    N111    1.437   .     S
C72    C84     1.404   .     A
C72    C85     1.407   .     A
C73    O132    1.277   .     A
C73    C75     1.466   .     S
C73    O130    1.292   .     A
C74    C83     1.485   .     S
C74    C95     1.425   .     A
C74    C86     1.421   .     A
C75    C145    1.356   .     S
C75    N182    1.438   .     S
C77    C80     1.453   .     S
C77    C285    1.345   .     S
C77    H307    1.088   .     S
C78    C79     1.426   .     S
C78    C491    1.345   1_545 S
C78    C502    1.450   1_545 S
C79    O133    1.274   .     A
C79    O127    1.278   .     A
C80    O128    1.265   .     A
C80    O134    1.276   .     A
C81    C86     1.403   .     A
C81    N121    1.436   .     S
C81    C92     1.398   .     A
C82    O125    1.281   .     A
C82    O123    1.275   .     A
C82    C85     1.457   .     S
C83    O124    1.283   .     A
C83    O126    1.291   .     A
C84    C710    1.448   1_554 S
C84    C718    1.421   1_554 S
C86    C91     1.450   .     S
C87    N114    1.158   .     T
C87    C145    1.451   .     S
C88    N115    1.158   .     T
C88    C285    1.450   .     S
C89    N117    1.157   .     T
C89    C705    1.448   .     S
C90    N118    1.158   .     T
C91    N119    1.157   .     T
C92    C94     1.420   .     A
C92    N741    1.438   .     S
C93    C99     1.452   .     S
C93    N112    1.158   .     T
C94    C95     1.418   .     A
C94    C717    1.419   .     S
C95    C99     1.423   .     A
C96    C715    1.419   1_554 S
C96    C718    1.417   1_554 S
C97    C98     1.415   .     A
C97    C717    1.417   .     S
C97    C705    1.421   .     S
C98    C99     1.409   .     A
C98    N116    1.436   .     S
H100   C491    1.088   1_545 S
H101   N113    1.046   .     S
H102   N113    1.045   .     S
H103   N111    1.046   .     S
H104   N111    1.045   .     S
H105   N116    1.045   .     S
H106   N116    1.046   .     S
H107   N120    1.046   .     S
H108   N120    1.046   .     S
H109   N121    1.044   .     S
H110   N121    1.046   .     S
N120   C713    1.438   1_554 S
O122   Zn138   1.927   .     S
O122   Zn135   1.968   .     S
O122   Zn137   1.946   .     S
O122   Zn136   1.945   .     S
O123   Zn136   1.928   .     S
O124   Zn138   1.938   .     S
O125   Zn137   1.927   .     S
O126   Zn135   1.917   .     S
O127   Zn135   1.935   .     S
O128   Zn138   1.944   .     S
O129   Zn136   1.934   .     S
O130   Zn137   1.946   .     S
O131   Zn138   1.944   .     S
O132   Zn135   1.936   .     S
O133   Zn136   1.947   .     S
O134   Zn137   1.934   .     S
C139   O200    1.262   .     A
C139   O198    1.266   .     A
C139   C145    1.430   .     S
C140   C154    1.400   .     A
C140   C159    1.455   .     S
C140   C165    1.411   .     A
C141   N180    1.437   .     S
C141   C153    1.404   .     A
C141   C154    1.407   .     A
C142   O201    1.277   .     A
C142   C144    1.466   .     S
C142   O199    1.292   .     A
C143   C152    1.485   .     S
C143   C164    1.425   .     A
C143   C155    1.421   .     A
C144   C7      1.356   1_655 S
C144   N44     1.438   1_655 S
C146   C149    1.453   .     S
C146   C354    1.345   .     S
C146   H376    1.088   .     S
C147   C148    1.426   .     S
C147   C560    1.345   1_545 S
C147   C571    1.450   1_545 S
C148   O202    1.274   .     A
C148   O196    1.278   .     A
C149   O197    1.265   .     A
C149   O203    1.276   .     A
C150   C155    1.403   .     A
C150   N190    1.436   .     S
C150   C161    1.398   .     A
C151   O194    1.281   .     A
C151   O192    1.275   .     A
C151   C154    1.457   .     S
C152   O193    1.283   .     A
C152   O195    1.291   .     A
C153   C779    1.448   1_554 S
C153   C787    1.421   1_554 S
C155   C160    1.450   .     S
C156   N183    1.158   .     T
C156   C7      1.451   1_655 S
C157   N184    1.158   .     T
C157   C354    1.450   .     S
C158   N186    1.157   .     T
C158   C774    1.448   .     S
C159   N187    1.158   .     T
C160   N188    1.157   .     T
C161   C163    1.420   .     A
C161   N810    1.438   .     S
C162   C168    1.452   .     S
C162   N181    1.158   .     T
C163   C164    1.418   .     A
C163   C786    1.419   .     S
C164   C168    1.423   .     A
C165   C784    1.419   1_554 S
C165   C787    1.417   1_554 S
C166   C167    1.415   .     A
C166   C786    1.417   .     S
C166   C774    1.421   .     S
C167   C168    1.409   .     A
C167   N185    1.436   .     S
H169   C560    1.088   1_545 S
H170   N182    1.046   .     S
H171   N182    1.045   .     S
H172   N180    1.046   .     S
H173   N180    1.045   .     S
H174   N185    1.045   .     S
H175   N185    1.046   .     S
H176   N189    1.046   .     S
H177   N189    1.046   .     S
H178   N190    1.044   .     S
H179   N190    1.046   .     S
N189   C782    1.438   1_554 S
O191   Zn207   1.927   .     S
O191   Zn204   1.968   .     S
O191   Zn206   1.946   .     S
O191   Zn205   1.945   .     S
O192   Zn205   1.928   .     S
O193   Zn207   1.938   .     S
O194   Zn206   1.927   .     S
O195   Zn204   1.917   .     S
O196   Zn204   1.935   .     S
O197   Zn207   1.944   .     S
O198   Zn205   1.934   .     S
O199   Zn206   1.946   .     S
O200   Zn207   1.944   .     S
O201   Zn204   1.936   .     S
O202   Zn205   1.947   .     S
O203   Zn206   1.934   .     S
C208   O269    1.262   .     A
C208   O267    1.266   .     A
C208   C214    1.430   .     S
C209   C223    1.400   .     A
C209   C228    1.455   .     S
C209   C234    1.411   .     A
C210   N249    1.437   .     S
C210   C222    1.404   .     A
C210   C223    1.407   .     A
C211   O270    1.277   .     A
C211   C213    1.466   .     S
C211   O268    1.292   .     A
C212   C221    1.485   .     S
C212   C233    1.425   .     A
C212   C224    1.421   .     A
C213   C283    1.356   .     S
C213   N320    1.438   .     S
C214   C351    1.356   1_455 S
C214   C363    1.451   1_455 S
C215   C218    1.453   .     S
C215   C423    1.345   .     S
C215   H445    1.088   .     S
C216   C217    1.426   .     S
C217   O271    1.274   .     A
C217   O265    1.278   .     A
C218   O266    1.265   .     A
C218   O272    1.276   .     A
C219   C224    1.403   .     A
C219   N259    1.436   .     S
C219   C230    1.398   .     A
C220   O263    1.281   .     A
C220   O261    1.275   .     A
C220   C223    1.457   .     S
C221   O262    1.283   .     A
C221   O264    1.291   .     A
C222   C848    1.448   1_554 S
C222   C856    1.421   1_554 S
C224   C229    1.450   .     S
C225   N252    1.158   .     T
C225   C283    1.451   .     S
C226   N253    1.158   .     T
C226   C423    1.450   .     S
C227   N255    1.157   .     T
C227   C843    1.448   .     S
C228   N256    1.158   .     T
C229   N257    1.157   .     T
C230   C232    1.420   .     A
C230   N879    1.438   .     S
C231   C237    1.452   .     S
C231   N250    1.158   .     T
C232   C233    1.418   .     A
C232   C855    1.419   .     S
C233   C237    1.423   .     A
C234   C853    1.419   1_554 S
C234   C856    1.417   1_554 S
C235   C236    1.415   .     A
C235   C855    1.417   .     S
C235   C843    1.421   .     S
C236   C237    1.409   .     A
C236   N254    1.436   .     S
H239   N251    1.046   .     S
H240   N251    1.045   .     S
H241   N249    1.046   .     S
H242   N249    1.045   .     S
H243   N254    1.045   .     S
H244   N254    1.046   .     S
H245   N258    1.046   .     S
H246   N258    1.046   .     S
H247   N259    1.044   .     S
H248   N259    1.046   .     S
N251   C351    1.438   1_455 S
N258   C851    1.438   1_554 S
O260   Zn276   1.927   .     S
O260   Zn273   1.968   .     S
O260   Zn275   1.946   .     S
O260   Zn274   1.945   .     S
O261   Zn274   1.928   .     S
O262   Zn276   1.938   .     S
O263   Zn275   1.927   .     S
O264   Zn273   1.917   .     S
O265   Zn273   1.935   .     S
O266   Zn276   1.944   .     S
O267   Zn274   1.934   .     S
O268   Zn275   1.946   .     S
O269   Zn276   1.944   .     S
O270   Zn273   1.936   .     S
O271   Zn274   1.947   .     S
O272   Zn275   1.934   .     S
C277   O338    1.262   .     A
C277   O336    1.266   .     A
C277   C283    1.430   .     S
C278   C292    1.400   .     A
C278   C297    1.455   .     S
C278   C303    1.411   .     A
C279   N318    1.437   .     S
C279   C291    1.404   .     A
C279   C292    1.407   .     A
C280   O339    1.277   .     A
C280   C282    1.466   .     S
C280   O337    1.292   .     A
C281   C290    1.485   .     S
C281   C302    1.425   .     A
C281   C293    1.421   .     A
C282   C352    1.356   .     S
C282   N389    1.438   .     S
C284   C287    1.453   .     S
C284   C492    1.345   .     S
C284   H514    1.088   .     S
C285   C286    1.426   .     S
C286   O340    1.274   .     A
C286   O334    1.278   .     A
C287   O335    1.265   .     A
C287   O341    1.276   .     A
C288   C293    1.403   .     A
C288   N328    1.436   .     S
C288   C299    1.398   .     A
C289   O332    1.281   .     A
C289   O330    1.275   .     A
C289   C292    1.457   .     S
C290   O331    1.283   .     A
C290   O333    1.291   .     A
C291   C917    1.448   1_554 S
C291   C925    1.421   1_554 S
C293   C298    1.450   .     S
C294   N321    1.158   .     T
C294   C352    1.451   .     S
C295   N322    1.158   .     T
C295   C492    1.450   .     S
C296   N324    1.157   .     T
C296   C912    1.448   .     S
C297   N325    1.158   .     T
C298   N326    1.157   .     T
C299   C301    1.420   .     A
C299   N948    1.438   .     S
C300   C306    1.452   .     S
C300   N319    1.158   .     T
C301   C302    1.418   .     A
C301   C924    1.419   .     S
C302   C306    1.423   .     A
C303   C922    1.419   1_554 S
C303   C925    1.417   1_554 S
C304   C305    1.415   .     A
C304   C924    1.417   .     S
C304   C912    1.421   .     S
C305   C306    1.409   .     A
C305   N323    1.436   .     S
H308   N320    1.046   .     S
H309   N320    1.045   .     S
H310   N318    1.046   .     S
H311   N318    1.045   .     S
H312   N323    1.045   .     S
H313   N323    1.046   .     S
H314   N327    1.046   .     S
H315   N327    1.046   .     S
H316   N328    1.044   .     S
H317   N328    1.046   .     S
N327   C920    1.438   1_554 S
O329   Zn345   1.927   .     S
O329   Zn342   1.968   .     S
O329   Zn344   1.946   .     S
O329   Zn343   1.945   .     S
O330   Zn343   1.928   .     S
O331   Zn345   1.938   .     S
O332   Zn344   1.927   .     S
O333   Zn342   1.917   .     S
O334   Zn342   1.935   .     S
O335   Zn345   1.944   .     S
O336   Zn343   1.934   .     S
O337   Zn344   1.946   .     S
O338   Zn345   1.944   .     S
O339   Zn342   1.936   .     S
O340   Zn343   1.947   .     S
O341   Zn344   1.934   .     S
C346   O407    1.262   .     A
C346   O405    1.266   .     A
C346   C352    1.430   .     S
C347   C361    1.400   .     A
C347   C366    1.455   .     S
C347   C372    1.411   .     A
C348   N387    1.437   .     S
C348   C360    1.404   .     A
C348   C361    1.407   .     A
C349   O408    1.277   .     A
C349   C351    1.466   .     S
C349   O406    1.292   .     A
C350   C359    1.485   .     S
C350   C371    1.425   .     A
C350   C362    1.421   .     A
C351   C214    1.356   1_655 S
C351   N251    1.438   1_655 S
C353   C356    1.453   .     S
C353   C561    1.345   .     S
C353   H583    1.088   .     S
C354   C355    1.426   .     S
C355   O409    1.274   .     A
C355   O403    1.278   .     A
C356   O404    1.265   .     A
C356   O410    1.276   .     A
C357   C362    1.403   .     A
C357   N397    1.436   .     S
C357   C368    1.398   .     A
C358   O401    1.281   .     A
C358   O399    1.275   .     A
C358   C361    1.457   .     S
C359   O400    1.283   .     A
C359   O402    1.291   .     A
C360   C986    1.448   1_554 S
C360   C994    1.421   1_554 S
C362   C367    1.450   .     S
C363   N390    1.158   .     T
C363   C214    1.451   1_655 S
C364   N391    1.158   .     T
C364   C561    1.450   .     S
C365   N393    1.157   .     T
C365   C981    1.448   .     S
C366   N394    1.158   .     T
C367   N395    1.157   .     T
C368   C370    1.420   .     A
C368   N1017   1.438   .     S
C369   C375    1.452   .     S
C369   N388    1.158   .     T
C370   C371    1.418   .     A
C370   C993    1.419   .     S
C371   C375    1.423   .     A
C372   C991    1.419   1_554 S
C372   C994    1.417   1_554 S
C373   C374    1.415   .     A
C373   C993    1.417   .     S
C373   C981    1.421   .     S
C374   C375    1.409   .     A
C374   N392    1.436   .     S
H377   N389    1.046   .     S
H378   N389    1.045   .     S
H379   N387    1.046   .     S
H380   N387    1.045   .     S
H381   N392    1.045   .     S
H382   N392    1.046   .     S
H383   N396    1.046   .     S
H384   N396    1.046   .     S
H385   N397    1.044   .     S
H386   N397    1.046   .     S
N396   C989    1.438   1_554 S
O398   Zn414   1.927   .     S
O398   Zn411   1.968   .     S
O398   Zn413   1.946   .     S
O398   Zn412   1.945   .     S
O399   Zn412   1.928   .     S
O400   Zn414   1.938   .     S
O401   Zn413   1.927   .     S
O402   Zn411   1.917   .     S
O403   Zn411   1.935   .     S
O404   Zn414   1.944   .     S
O405   Zn412   1.934   .     S
O406   Zn413   1.946   .     S
O407   Zn414   1.944   .     S
O408   Zn411   1.936   .     S
O409   Zn412   1.947   .     S
O410   Zn413   1.934   .     S
C415   O476    1.262   .     A
C415   O474    1.266   .     A
C415   C421    1.430   .     S
C416   C430    1.400   .     A
C416   C435    1.455   .     S
C416   C441    1.411   .     A
C417   N456    1.437   .     S
C417   C429    1.404   .     A
C417   C430    1.407   .     A
C418   O477    1.277   .     A
C418   C420    1.466   .     S
C418   O475    1.292   .     A
C419   C428    1.485   .     S
C419   C440    1.425   .     A
C419   C431    1.421   .     A
C420   C490    1.356   .     S
C420   N527    1.438   .     S
C421   C558    1.356   1_455 S
C421   C570    1.451   1_455 S
C422   C425    1.453   .     S
C422   C9      1.345   1_565 S
C422   H31     1.088   1_565 S
C423   C424    1.426   .     S
C424   O478    1.274   .     A
C424   O472    1.278   .     A
C425   O473    1.265   .     A
C425   O479    1.276   .     A
C426   C431    1.403   .     A
C426   N466    1.436   .     S
C426   C437    1.398   .     A
C427   O470    1.281   .     A
C427   O468    1.275   .     A
C427   C430    1.457   .     S
C428   O469    1.283   .     A
C428   O471    1.291   .     A
C429   C1055   1.448   1_554 S
C429   C1063   1.421   1_554 S
C431   C436    1.450   .     S
C432   N459    1.158   .     T
C432   C490    1.451   .     S
C433   N460    1.158   .     T
C433   C9      1.450   1_565 S
C434   N462    1.157   .     T
C434   C1050   1.448   .     S
C435   N463    1.158   .     T
C436   N464    1.157   .     T
C437   C439    1.420   .     A
C437   N1086   1.438   .     S
C438   C444    1.452   .     S
C438   N457    1.158   .     T
C439   C440    1.418   .     A
C439   C1062   1.419   .     S
C440   C444    1.423   .     A
C441   C1060   1.419   1_554 S
C441   C1063   1.417   1_554 S
C442   C443    1.415   .     A
C442   C1062   1.417   .     S
C442   C1050   1.421   .     S
C443   C444    1.409   .     A
C443   N461    1.436   .     S
H446   N458    1.046   .     S
H447   N458    1.045   .     S
H448   N456    1.046   .     S
H449   N456    1.045   .     S
H450   N461    1.045   .     S
H451   N461    1.046   .     S
H452   N465    1.046   .     S
H453   N465    1.046   .     S
H454   N466    1.044   .     S
H455   N466    1.046   .     S
N458   C558    1.438   1_455 S
N465   C1058   1.438   1_554 S
O467   Zn483   1.927   .     S
O467   Zn480   1.968   .     S
O467   Zn482   1.946   .     S
O467   Zn481   1.945   .     S
O468   Zn481   1.928   .     S
O469   Zn483   1.938   .     S
O470   Zn482   1.927   .     S
O471   Zn480   1.917   .     S
O472   Zn480   1.935   .     S
O473   Zn483   1.944   .     S
O474   Zn481   1.934   .     S
O475   Zn482   1.946   .     S
O476   Zn483   1.944   .     S
O477   Zn480   1.936   .     S
O478   Zn481   1.947   .     S
O479   Zn482   1.934   .     S
C484   O545    1.262   .     A
C484   O543    1.266   .     A
C484   C490    1.430   .     S
C485   C499    1.400   .     A
C485   C504    1.455   .     S
C485   C510    1.411   .     A
C486   N525    1.437   .     S
C486   C498    1.404   .     A
C486   C499    1.407   .     A
C487   O546    1.277   .     A
C487   C489    1.466   .     S
C487   O544    1.292   .     A
C488   C497    1.485   .     S
C488   C509    1.425   .     A
C488   C500    1.421   .     A
C489   C559    1.356   .     S
C489   N596    1.438   .     S
C491   C494    1.453   .     S
C491   C78     1.345   1_565 S
C491   H100    1.088   1_565 S
C492   C493    1.426   .     S
C493   O547    1.274   .     A
C493   O541    1.278   .     A
C494   O542    1.265   .     A
C494   O548    1.276   .     A
C495   C500    1.403   .     A
C495   N535    1.436   .     S
C495   C506    1.398   .     A
C496   O539    1.281   .     A
C496   O537    1.275   .     A
C496   C499    1.457   .     S
C497   O538    1.283   .     A
C497   O540    1.291   .     A
C498   C1124   1.448   1_554 S
C498   C1132   1.421   1_554 S
C500   C505    1.450   .     S
C501   N528    1.158   .     T
C501   C559    1.451   .     S
C502   N529    1.158   .     T
C502   C78     1.450   1_565 S
C503   N531    1.157   .     T
C503   C1119   1.448   .     S
C504   N532    1.158   .     T
C505   N533    1.157   .     T
C506   C508    1.420   .     A
C506   N1155   1.438   .     S
C507   C513    1.452   .     S
C507   N526    1.158   .     T
C508   C509    1.418   .     A
C508   C1131   1.419   .     S
C509   C513    1.423   .     A
C510   C1129   1.419   1_554 S
C510   C1132   1.417   1_554 S
C511   C512    1.415   .     A
C511   C1131   1.417   .     S
C511   C1119   1.421   .     S
C512   C513    1.409   .     A
C512   N530    1.436   .     S
H515   N527    1.046   .     S
H516   N527    1.045   .     S
H517   N525    1.046   .     S
H518   N525    1.045   .     S
H519   N530    1.045   .     S
H520   N530    1.046   .     S
H521   N534    1.046   .     S
H522   N534    1.046   .     S
H523   N535    1.044   .     S
H524   N535    1.046   .     S
N534   C1127   1.438   1_554 S
O536   Zn552   1.927   .     S
O536   Zn549   1.968   .     S
O536   Zn551   1.946   .     S
O536   Zn550   1.945   .     S
O537   Zn550   1.928   .     S
O538   Zn552   1.938   .     S
O539   Zn551   1.927   .     S
O540   Zn549   1.917   .     S
O541   Zn549   1.935   .     S
O542   Zn552   1.944   .     S
O543   Zn550   1.934   .     S
O544   Zn551   1.946   .     S
O545   Zn552   1.944   .     S
O546   Zn549   1.936   .     S
O547   Zn550   1.947   .     S
O548   Zn551   1.934   .     S
C553   O614    1.262   .     A
C553   O612    1.266   .     A
C553   C559    1.430   .     S
C554   C568    1.400   .     A
C554   C573    1.455   .     S
C554   C579    1.411   .     A
C555   N594    1.437   .     S
C555   C567    1.404   .     A
C555   C568    1.407   .     A
C556   O615    1.277   .     A
C556   C558    1.466   .     S
C556   O613    1.292   .     A
C557   C566    1.485   .     S
C557   C578    1.425   .     A
C557   C569    1.421   .     A
C558   C421    1.356   1_655 S
C558   N458    1.438   1_655 S
C560   C563    1.453   .     S
C560   C147    1.345   1_565 S
C560   H169    1.088   1_565 S
C561   C562    1.426   .     S
C562   O616    1.274   .     A
C562   O610    1.278   .     A
C563   O611    1.265   .     A
C563   O617    1.276   .     A
C564   C569    1.403   .     A
C564   N604    1.436   .     S
C564   C575    1.398   .     A
C565   O608    1.281   .     A
C565   O606    1.275   .     A
C565   C568    1.457   .     S
C566   O607    1.283   .     A
C566   O609    1.291   .     A
C567   C1193   1.448   1_554 S
C567   C1201   1.421   1_554 S
C569   C574    1.450   .     S
C570   N597    1.158   .     T
C570   C421    1.451   1_655 S
C571   N598    1.158   .     T
C571   C147    1.450   1_565 S
C572   N600    1.157   .     T
C572   C1188   1.448   .     S
C573   N601    1.158   .     T
C574   N602    1.157   .     T
C575   C577    1.420   .     A
C575   N1224   1.438   .     S
C576   C582    1.452   .     S
C576   N595    1.158   .     T
C577   C578    1.418   .     A
C577   C1200   1.419   .     S
C578   C582    1.423   .     A
C579   C1198   1.419   1_554 S
C579   C1201   1.417   1_554 S
C580   C581    1.415   .     A
C580   C1200   1.417   .     S
C580   C1188   1.421   .     S
C581   C582    1.409   .     A
C581   N599    1.436   .     S
H584   N596    1.046   .     S
H585   N596    1.045   .     S
H586   N594    1.046   .     S
H587   N594    1.045   .     S
H588   N599    1.045   .     S
H589   N599    1.046   .     S
H590   N603    1.046   .     S
H591   N603    1.046   .     S
H592   N604    1.044   .     S
H593   N604    1.046   .     S
N603   C1196   1.438   1_554 S
O605   Zn621   1.927   .     S
O605   Zn618   1.968   .     S
O605   Zn620   1.946   .     S
O605   Zn619   1.945   .     S
O606   Zn619   1.928   .     S
O607   Zn621   1.938   .     S
O608   Zn620   1.927   .     S
O609   Zn618   1.917   .     S
O610   Zn618   1.935   .     S
O611   Zn621   1.944   .     S
O612   Zn619   1.934   .     S
O613   Zn620   1.946   .     S
O614   Zn621   1.944   .     S
O615   Zn618   1.936   .     S
O616   Zn619   1.947   .     S
O617   Zn620   1.934   .     S
C622   O683    1.262   .     A
C622   O681    1.266   .     A
C622   C628    1.430   .     S
C623   C637    1.400   .     A
C623   C642    1.455   .     S
C623   C648    1.411   .     A
C624   N663    1.437   .     S
C624   C636    1.404   .     A
C624   C637    1.407   .     A
C625   O684    1.277   .     A
C625   C627    1.466   .     S
C625   O682    1.292   .     A
C626   C635    1.485   .     S
C626   C647    1.425   .     A
C626   C638    1.421   .     A
C627   C697    1.356   .     S
C627   N734    1.438   .     S
C628   C765    1.356   1_455 S
C628   C777    1.451   1_455 S
C629   C632    1.453   .     S
C629   C837    1.345   .     S
C629   H859    1.088   .     S
C630   C631    1.426   .     S
C630   C1043   1.345   1_545 S
C630   C1054   1.450   1_545 S
C631   O685    1.274   .     A
C631   O679    1.278   .     A
C632   O680    1.265   .     A
C632   O686    1.276   .     A
C633   C638    1.403   .     A
C633   N673    1.436   .     S
C633   C644    1.398   .     A
C634   O677    1.281   .     A
C634   O675    1.275   .     A
C634   C637    1.457   .     S
C635   O676    1.283   .     A
C635   O678    1.291   .     A
C638   C643    1.450   .     S
C639   N666    1.158   .     T
C639   C697    1.451   .     S
C640   N667    1.158   .     T
C640   C837    1.450   .     S
C641   N669    1.157   .     T
C641   C15     1.448   1_556 S
C642   N670    1.158   .     T
C643   N671    1.157   .     T
C644   C646    1.420   .     A
C644   N51     1.438   1_556 S
C645   C651    1.452   .     S
C645   N664    1.158   .     T
C646   C647    1.418   .     A
C646   C27     1.419   1_556 S
C647   C651    1.423   .     A
C649   C650    1.415   .     A
C649   C27     1.417   1_556 S
C649   C15     1.421   1_556 S
C650   C651    1.409   .     A
C650   N668    1.436   .     S
H652   C1043   1.088   1_545 S
H653   N665    1.046   .     S
H654   N665    1.045   .     S
H655   N663    1.046   .     S
H656   N663    1.045   .     S
H657   N668    1.045   .     S
H658   N668    1.046   .     S
H659   N672    1.046   .     S
H660   N672    1.046   .     S
H661   N673    1.044   .     S
H662   N673    1.046   .     S
N665   C765    1.438   1_455 S
O674   Zn690   1.927   .     S
O674   Zn687   1.968   .     S
O674   Zn689   1.946   .     S
O674   Zn688   1.945   .     S
O675   Zn688   1.928   .     S
O676   Zn690   1.938   .     S
O677   Zn689   1.927   .     S
O678   Zn687   1.917   .     S
O679   Zn687   1.935   .     S
O680   Zn690   1.944   .     S
O681   Zn688   1.934   .     S
O682   Zn689   1.946   .     S
O683   Zn690   1.944   .     S
O684   Zn687   1.936   .     S
O685   Zn688   1.947   .     S
O686   Zn689   1.934   .     S
C691   O752    1.262   .     A
C691   O750    1.266   .     A
C691   C697    1.430   .     S
C692   C706    1.400   .     A
C692   C711    1.455   .     S
C692   C717    1.411   .     A
C693   N732    1.437   .     S
C693   C705    1.404   .     A
C693   C706    1.407   .     A
C694   O753    1.277   .     A
C694   C696    1.466   .     S
C694   O751    1.292   .     A
C695   C704    1.485   .     S
C695   C716    1.425   .     A
C695   C707    1.421   .     A
C696   C766    1.356   .     S
C696   N803    1.438   .     S
C698   C701    1.453   .     S
C698   C906    1.345   .     S
C698   H928    1.088   .     S
C699   C700    1.426   .     S
C699   C1112   1.345   1_545 S
C699   C1123   1.450   1_545 S
C700   O754    1.274   .     A
C700   O748    1.278   .     A
C701   O749    1.265   .     A
C701   O755    1.276   .     A
C702   C707    1.403   .     A
C702   N742    1.436   .     S
C702   C713    1.398   .     A
C703   O746    1.281   .     A
C703   O744    1.275   .     A
C703   C706    1.457   .     S
C704   O745    1.283   .     A
C704   O747    1.291   .     A
C707   C712    1.450   .     S
C708   N735    1.158   .     T
C708   C766    1.451   .     S
C709   N736    1.158   .     T
C709   C906    1.450   .     S
C710   N738    1.157   .     T
C710   C84     1.448   1_556 S
C711   N739    1.158   .     T
C712   N740    1.157   .     T
C713   C715    1.420   .     A
C713   N120    1.438   1_556 S
C714   C720    1.452   .     S
C714   N733    1.158   .     T
C715   C716    1.418   .     A
C715   C96     1.419   1_556 S
C716   C720    1.423   .     A
C718   C719    1.415   .     A
C718   C96     1.417   1_556 S
C718   C84     1.421   1_556 S
C719   C720    1.409   .     A
C719   N737    1.436   .     S
H721   C1112   1.088   1_545 S
H722   N734    1.046   .     S
H723   N734    1.045   .     S
H724   N732    1.046   .     S
H725   N732    1.045   .     S
H726   N737    1.045   .     S
H727   N737    1.046   .     S
H728   N741    1.046   .     S
H729   N741    1.046   .     S
H730   N742    1.044   .     S
H731   N742    1.046   .     S
O743   Zn759   1.927   .     S
O743   Zn756   1.968   .     S
O743   Zn758   1.946   .     S
O743   Zn757   1.945   .     S
O744   Zn757   1.928   .     S
O745   Zn759   1.938   .     S
O746   Zn758   1.927   .     S
O747   Zn756   1.917   .     S
O748   Zn756   1.935   .     S
O749   Zn759   1.944   .     S
O750   Zn757   1.934   .     S
O751   Zn758   1.946   .     S
O752   Zn759   1.944   .     S
O753   Zn756   1.936   .     S
O754   Zn757   1.947   .     S
O755   Zn758   1.934   .     S
C760   O821    1.262   .     A
C760   O819    1.266   .     A
C760   C766    1.430   .     S
C761   C775    1.400   .     A
C761   C780    1.455   .     S
C761   C786    1.411   .     A
C762   N801    1.437   .     S
C762   C774    1.404   .     A
C762   C775    1.407   .     A
C763   O822    1.277   .     A
C763   C765    1.466   .     S
C763   O820    1.292   .     A
C764   C773    1.485   .     S
C764   C785    1.425   .     A
C764   C776    1.421   .     A
C765   C628    1.356   1_655 S
C765   N665    1.438   1_655 S
C767   C770    1.453   .     S
C767   C975    1.345   .     S
C767   H997    1.088   .     S
C768   C769    1.426   .     S
C768   C1181   1.345   1_545 S
C768   C1192   1.450   1_545 S
C769   O823    1.274   .     A
C769   O817    1.278   .     A
C770   O818    1.265   .     A
C770   O824    1.276   .     A
C771   C776    1.403   .     A
C771   N811    1.436   .     S
C771   C782    1.398   .     A
C772   O815    1.281   .     A
C772   O813    1.275   .     A
C772   C775    1.457   .     S
C773   O814    1.283   .     A
C773   O816    1.291   .     A
C776   C781    1.450   .     S
C777   N804    1.158   .     T
C777   C628    1.451   1_655 S
C778   N805    1.158   .     T
C778   C975    1.450   .     S
C779   N807    1.157   .     T
C779   C153    1.448   1_556 S
C780   N808    1.158   .     T
C781   N809    1.157   .     T
C782   C784    1.420   .     A
C782   N189    1.438   1_556 S
C783   C789    1.452   .     S
C783   N802    1.158   .     T
C784   C785    1.418   .     A
C784   C165    1.419   1_556 S
C785   C789    1.423   .     A
C787   C788    1.415   .     A
C787   C165    1.417   1_556 S
C787   C153    1.421   1_556 S
C788   C789    1.409   .     A
C788   N806    1.436   .     S
H790   C1181   1.088   1_545 S
H791   N803    1.046   .     S
H792   N803    1.045   .     S
H793   N801    1.046   .     S
H794   N801    1.045   .     S
H795   N806    1.045   .     S
H796   N806    1.046   .     S
H797   N810    1.046   .     S
H798   N810    1.046   .     S
H799   N811    1.044   .     S
H800   N811    1.046   .     S
O812   Zn828   1.927   .     S
O812   Zn825   1.968   .     S
O812   Zn827   1.946   .     S
O812   Zn826   1.945   .     S
O813   Zn826   1.928   .     S
O814   Zn828   1.938   .     S
O815   Zn827   1.927   .     S
O816   Zn825   1.917   .     S
O817   Zn825   1.935   .     S
O818   Zn828   1.944   .     S
O819   Zn826   1.934   .     S
O820   Zn827   1.946   .     S
O821   Zn828   1.944   .     S
O822   Zn825   1.936   .     S
O823   Zn826   1.947   .     S
O824   Zn827   1.934   .     S
C829   O890    1.262   .     A
C829   O888    1.266   .     A
C829   C835    1.430   .     S
C830   C844    1.400   .     A
C830   C849    1.455   .     S
C830   C855    1.411   .     A
C831   N870    1.437   .     S
C831   C843    1.404   .     A
C831   C844    1.407   .     A
C832   O891    1.277   .     A
C832   C834    1.466   .     S
C832   O889    1.292   .     A
C833   C842    1.485   .     S
C833   C854    1.425   .     A
C833   C845    1.421   .     A
C834   C904    1.356   .     S
C834   N941    1.438   .     S
C835   C972    1.356   1_455 S
C835   C984    1.451   1_455 S
C836   C839    1.453   .     S
C836   C1044   1.345   .     S
C836   H1066   1.088   .     S
C837   C838    1.426   .     S
C838   O892    1.274   .     A
C838   O886    1.278   .     A
C839   O887    1.265   .     A
C839   O893    1.276   .     A
C840   C845    1.403   .     A
C840   N880    1.436   .     S
C840   C851    1.398   .     A
C841   O884    1.281   .     A
C841   O882    1.275   .     A
C841   C844    1.457   .     S
C842   O883    1.283   .     A
C842   O885    1.291   .     A
C845   C850    1.450   .     S
C846   N873    1.158   .     T
C846   C904    1.451   .     S
C847   N874    1.158   .     T
C847   C1044   1.450   .     S
C848   N876    1.157   .     T
C848   C222    1.448   1_556 S
C849   N877    1.158   .     T
C850   N878    1.157   .     T
C851   C853    1.420   .     A
C851   N258    1.438   1_556 S
C852   C858    1.452   .     S
C852   N871    1.158   .     T
C853   C854    1.418   .     A
C853   C234    1.419   1_556 S
C854   C858    1.423   .     A
C856   C857    1.415   .     A
C856   C234    1.417   1_556 S
C856   C222    1.421   1_556 S
C857   C858    1.409   .     A
C857   N875    1.436   .     S
H860   N872    1.046   .     S
H861   N872    1.045   .     S
H862   N870    1.046   .     S
H863   N870    1.045   .     S
H864   N875    1.045   .     S
H865   N875    1.046   .     S
H866   N879    1.046   .     S
H867   N879    1.046   .     S
H868   N880    1.044   .     S
H869   N880    1.046   .     S
N872   C972    1.438   1_455 S
O881   Zn897   1.927   .     S
O881   Zn894   1.968   .     S
O881   Zn896   1.946   .     S
O881   Zn895   1.945   .     S
O882   Zn895   1.928   .     S
O883   Zn897   1.938   .     S
O884   Zn896   1.927   .     S
O885   Zn894   1.917   .     S
O886   Zn894   1.935   .     S
O887   Zn897   1.944   .     S
O888   Zn895   1.934   .     S
O889   Zn896   1.946   .     S
O890   Zn897   1.944   .     S
O891   Zn894   1.936   .     S
O892   Zn895   1.947   .     S
O893   Zn896   1.934   .     S
C898   O959    1.262   .     A
C898   O957    1.266   .     A
C898   C904    1.430   .     S
C899   C913    1.400   .     A
C899   C918    1.455   .     S
C899   C924    1.411   .     A
C900   N939    1.437   .     S
C900   C912    1.404   .     A
C900   C913    1.407   .     A
C901   O960    1.277   .     A
C901   C903    1.466   .     S
C901   O958    1.292   .     A
C902   C911    1.485   .     S
C902   C923    1.425   .     A
C902   C914    1.421   .     A
C903   C973    1.356   .     S
C903   N1010   1.438   .     S
C905   C908    1.453   .     S
C905   C1113   1.345   .     S
C905   H1135   1.088   .     S
C906   C907    1.426   .     S
C907   O961    1.274   .     A
C907   O955    1.278   .     A
C908   O956    1.265   .     A
C908   O962    1.276   .     A
C909   C914    1.403   .     A
C909   N949    1.436   .     S
C909   C920    1.398   .     A
C910   O953    1.281   .     A
C910   O951    1.275   .     A
C910   C913    1.457   .     S
C911   O952    1.283   .     A
C911   O954    1.291   .     A
C914   C919    1.450   .     S
C915   N942    1.158   .     T
C915   C973    1.451   .     S
C916   N943    1.158   .     T
C916   C1113   1.450   .     S
C917   N945    1.157   .     T
C917   C291    1.448   1_556 S
C918   N946    1.158   .     T
C919   N947    1.157   .     T
C920   C922    1.420   .     A
C920   N327    1.438   1_556 S
C921   C927    1.452   .     S
C921   N940    1.158   .     T
C922   C923    1.418   .     A
C922   C303    1.419   1_556 S
C923   C927    1.423   .     A
C925   C926    1.415   .     A
C925   C303    1.417   1_556 S
C925   C291    1.421   1_556 S
C926   C927    1.409   .     A
C926   N944    1.436   .     S
H929   N941    1.046   .     S
H930   N941    1.045   .     S
H931   N939    1.046   .     S
H932   N939    1.045   .     S
H933   N944    1.045   .     S
H934   N944    1.046   .     S
H935   N948    1.046   .     S
H936   N948    1.046   .     S
H937   N949    1.044   .     S
H938   N949    1.046   .     S
O950   Zn966   1.927   .     S
O950   Zn963   1.968   .     S
O950   Zn965   1.946   .     S
O950   Zn964   1.945   .     S
O951   Zn964   1.928   .     S
O952   Zn966   1.938   .     S
O953   Zn965   1.927   .     S
O954   Zn963   1.917   .     S
O955   Zn963   1.935   .     S
O956   Zn966   1.944   .     S
O957   Zn964   1.934   .     S
O958   Zn965   1.946   .     S
O959   Zn966   1.944   .     S
O960   Zn963   1.936   .     S
O961   Zn964   1.947   .     S
O962   Zn965   1.934   .     S
C967   O1028   1.262   .     A
C967   O1026   1.266   .     A
C967   C973    1.430   .     S
C968   C982    1.400   .     A
C968   C987    1.455   .     S
C968   C993    1.411   .     A
C969   N1008   1.437   .     S
C969   C981    1.404   .     A
C969   C982    1.407   .     A
C970   O1029   1.277   .     A
C970   C972    1.466   .     S
C970   O1027   1.292   .     A
C971   C980    1.485   .     S
C971   C992    1.425   .     A
C971   C983    1.421   .     A
C972   C835    1.356   1_655 S
C972   N872    1.438   1_655 S
C974   C977    1.453   .     S
C974   C1182   1.345   .     S
C974   H1204   1.088   .     S
C975   C976    1.426   .     S
C976   O1030   1.274   .     A
C976   O1024   1.278   .     A
C977   O1025   1.265   .     A
C977   O1031   1.276   .     A
C978   C983    1.403   .     A
C978   N1018   1.436   .     S
C978   C989    1.398   .     A
C979   O1022   1.281   .     A
C979   O1020   1.275   .     A
C979   C982    1.457   .     S
C980   O1021   1.283   .     A
C980   O1023   1.291   .     A
C983   C988    1.450   .     S
C984   N1011   1.158   .     T
C984   C835    1.451   1_655 S
C985   N1012   1.158   .     T
C985   C1182   1.450   .     S
C986   N1014   1.157   .     T
C986   C360    1.448   1_556 S
C987   N1015   1.158   .     T
C988   N1016   1.157   .     T
C989   C991    1.420   .     A
C989   N396    1.438   1_556 S
C990   C996    1.452   .     S
C990   N1009   1.158   .     T
C991   C992    1.418   .     A
C991   C372    1.419   1_556 S
C992   C996    1.423   .     A
C994   C995    1.415   .     A
C994   C372    1.417   1_556 S
C994   C360    1.421   1_556 S
C995   C996    1.409   .     A
C995   N1013   1.436   .     S
H998   N1010   1.046   .     S
H999   N1010   1.045   .     S
H1000  N1008   1.046   .     S
H1001  N1008   1.045   .     S
H1002  N1013   1.045   .     S
H1003  N1013   1.046   .     S
H1004  N1017   1.046   .     S
H1005  N1017   1.046   .     S
H1006  N1018   1.044   .     S
H1007  N1018   1.046   .     S
O1019  Zn1035  1.927   .     S
O1019  Zn1032  1.968   .     S
O1019  Zn1034  1.946   .     S
O1019  Zn1033  1.945   .     S
O1020  Zn1033  1.928   .     S
O1021  Zn1035  1.938   .     S
O1022  Zn1034  1.927   .     S
O1023  Zn1032  1.917   .     S
O1024  Zn1032  1.935   .     S
O1025  Zn1035  1.944   .     S
O1026  Zn1033  1.934   .     S
O1027  Zn1034  1.946   .     S
O1028  Zn1035  1.944   .     S
O1029  Zn1032  1.936   .     S
O1030  Zn1033  1.947   .     S
O1031  Zn1034  1.934   .     S
C1036  O1097   1.262   .     A
C1036  O1095   1.266   .     A
C1036  C1042   1.430   .     S
C1037  C1051   1.400   .     A
C1037  C1056   1.455   .     S
C1037  C1062   1.411   .     A
C1038  N1077   1.437   .     S
C1038  C1050   1.404   .     A
C1038  C1051   1.407   .     A
C1039  O1098   1.277   .     A
C1039  C1041   1.466   .     S
C1039  O1096   1.292   .     A
C1040  C1049   1.485   .     S
C1040  C1061   1.425   .     A
C1040  C1052   1.421   .     A
C1041  C1111   1.356   .     S
C1041  N1148   1.438   .     S
C1042  C1179   1.356   1_455 S
C1042  C1191   1.451   1_455 S
C1043  C1046   1.453   .     S
C1043  C630    1.345   1_565 S
C1043  H652    1.088   1_565 S
C1044  C1045   1.426   .     S
C1045  O1099   1.274   .     A
C1045  O1093   1.278   .     A
C1046  O1094   1.265   .     A
C1046  O1100   1.276   .     A
C1047  C1052   1.403   .     A
C1047  N1087   1.436   .     S
C1047  C1058   1.398   .     A
C1048  O1091   1.281   .     A
C1048  O1089   1.275   .     A
C1048  C1051   1.457   .     S
C1049  O1090   1.283   .     A
C1049  O1092   1.291   .     A
C1052  C1057   1.450   .     S
C1053  N1080   1.158   .     T
C1053  C1111   1.451   .     S
C1054  N1081   1.158   .     T
C1054  C630    1.450   1_565 S
C1055  N1083   1.157   .     T
C1055  C429    1.448   1_556 S
C1056  N1084   1.158   .     T
C1057  N1085   1.157   .     T
C1058  C1060   1.420   .     A
C1058  N465    1.438   1_556 S
C1059  C1065   1.452   .     S
C1059  N1078   1.158   .     T
C1060  C1061   1.418   .     A
C1060  C441    1.419   1_556 S
C1061  C1065   1.423   .     A
C1063  C1064   1.415   .     A
C1063  C441    1.417   1_556 S
C1063  C429    1.421   1_556 S
C1064  C1065   1.409   .     A
C1064  N1082   1.436   .     S
H1067  N1079   1.046   .     S
H1068  N1079   1.045   .     S
H1069  N1077   1.046   .     S
H1070  N1077   1.045   .     S
H1071  N1082   1.045   .     S
H1072  N1082   1.046   .     S
H1073  N1086   1.046   .     S
H1074  N1086   1.046   .     S
H1075  N1087   1.044   .     S
H1076  N1087   1.046   .     S
N1079  C1179   1.438   1_455 S
O1088  Zn1104  1.927   .     S
O1088  Zn1101  1.968   .     S
O1088  Zn1103  1.946   .     S
O1088  Zn1102  1.945   .     S
O1089  Zn1102  1.928   .     S
O1090  Zn1104  1.938   .     S
O1091  Zn1103  1.927   .     S
O1092  Zn1101  1.917   .     S
O1093  Zn1101  1.935   .     S
O1094  Zn1104  1.944   .     S
O1095  Zn1102  1.934   .     S
O1096  Zn1103  1.946   .     S
O1097  Zn1104  1.944   .     S
O1098  Zn1101  1.936   .     S
O1099  Zn1102  1.947   .     S
O1100  Zn1103  1.934   .     S
C1105  O1166   1.262   .     A
C1105  O1164   1.266   .     A
C1105  C1111   1.430   .     S
C1106  C1120   1.400   .     A
C1106  C1125   1.455   .     S
C1106  C1131   1.411   .     A
C1107  N1146   1.437   .     S
C1107  C1119   1.404   .     A
C1107  C1120   1.407   .     A
C1108  O1167   1.277   .     A
C1108  C1110   1.466   .     S
C1108  O1165   1.292   .     A
C1109  C1118   1.485   .     S
C1109  C1130   1.425   .     A
C1109  C1121   1.421   .     A
C1110  C1180   1.356   .     S
C1110  N1217   1.438   .     S
C1112  C1115   1.453   .     S
C1112  C699    1.345   1_565 S
C1112  H721    1.088   1_565 S
C1113  C1114   1.426   .     S
C1114  O1168   1.274   .     A
C1114  O1162   1.278   .     A
C1115  O1163   1.265   .     A
C1115  O1169   1.276   .     A
C1116  C1121   1.403   .     A
C1116  N1156   1.436   .     S
C1116  C1127   1.398   .     A
C1117  O1160   1.281   .     A
C1117  O1158   1.275   .     A
C1117  C1120   1.457   .     S
C1118  O1159   1.283   .     A
C1118  O1161   1.291   .     A
C1121  C1126   1.450   .     S
C1122  N1149   1.158   .     T
C1122  C1180   1.451   .     S
C1123  N1150   1.158   .     T
C1123  C699    1.450   1_565 S
C1124  N1152   1.157   .     T
C1124  C498    1.448   1_556 S
C1125  N1153   1.158   .     T
C1126  N1154   1.157   .     T
C1127  C1129   1.420   .     A
C1127  N534    1.438   1_556 S
C1128  C1134   1.452   .     S
C1128  N1147   1.158   .     T
C1129  C1130   1.418   .     A
C1129  C510    1.419   1_556 S
C1130  C1134   1.423   .     A
C1132  C1133   1.415   .     A
C1132  C510    1.417   1_556 S
C1132  C498    1.421   1_556 S
C1133  C1134   1.409   .     A
C1133  N1151   1.436   .     S
H1136  N1148   1.046   .     S
H1137  N1148   1.045   .     S
H1138  N1146   1.046   .     S
H1139  N1146   1.045   .     S
H1140  N1151   1.045   .     S
H1141  N1151   1.046   .     S
H1142  N1155   1.046   .     S
H1143  N1155   1.046   .     S
H1144  N1156   1.044   .     S
H1145  N1156   1.046   .     S
O1157  Zn1173  1.927   .     S
O1157  Zn1170  1.968   .     S
O1157  Zn1172  1.946   .     S
O1157  Zn1171  1.945   .     S
O1158  Zn1171  1.928   .     S
O1159  Zn1173  1.938   .     S
O1160  Zn1172  1.927   .     S
O1161  Zn1170  1.917   .     S
O1162  Zn1170  1.935   .     S
O1163  Zn1173  1.944   .     S
O1164  Zn1171  1.934   .     S
O1165  Zn1172  1.946   .     S
O1166  Zn1173  1.944   .     S
O1167  Zn1170  1.936   .     S
O1168  Zn1171  1.947   .     S
O1169  Zn1172  1.934   .     S
C1174  O1235   1.262   .     A
C1174  O1233   1.266   .     A
C1174  C1180   1.430   .     S
C1175  C1189   1.400   .     A
C1175  C1194   1.455   .     S
C1175  C1200   1.411   .     A
C1176  N1215   1.437   .     S
C1176  C1188   1.404   .     A
C1176  C1189   1.407   .     A
C1177  O1236   1.277   .     A
C1177  C1179   1.466   .     S
C1177  O1234   1.292   .     A
C1178  C1187   1.485   .     S
C1178  C1199   1.425   .     A
C1178  C1190   1.421   .     A
C1179  C1042   1.356   1_655 S
C1179  N1079   1.438   1_655 S
C1181  C1184   1.453   .     S
C1181  C768    1.345   1_565 S
C1181  H790    1.088   1_565 S
C1182  C1183   1.426   .     S
C1183  O1237   1.274   .     A
C1183  O1231   1.278   .     A
C1184  O1232   1.265   .     A
C1184  O1238   1.276   .     A
C1185  C1190   1.403   .     A
C1185  N1225   1.436   .     S
C1185  C1196   1.398   .     A
C1186  O1229   1.281   .     A
C1186  O1227   1.275   .     A
C1186  C1189   1.457   .     S
C1187  O1228   1.283   .     A
C1187  O1230   1.291   .     A
C1190  C1195   1.450   .     S
C1191  N1218   1.158   .     T
C1191  C1042   1.451   1_655 S
C1192  N1219   1.158   .     T
C1192  C768    1.450   1_565 S
C1193  N1221   1.157   .     T
C1193  C567    1.448   1_556 S
C1194  N1222   1.158   .     T
C1195  N1223   1.157   .     T
C1196  C1198   1.420   .     A
C1196  N603    1.438   1_556 S
C1197  C1203   1.452   .     S
C1197  N1216   1.158   .     T
C1198  C1199   1.418   .     A
C1198  C579    1.419   1_556 S
C1199  C1203   1.423   .     A
C1201  C1202   1.415   .     A
C1201  C579    1.417   1_556 S
C1201  C567    1.421   1_556 S
C1202  C1203   1.409   .     A
C1202  N1220   1.436   .     S
H1205  N1217   1.046   .     S
H1206  N1217   1.045   .     S
H1207  N1215   1.046   .     S
H1208  N1215   1.045   .     S
H1209  N1220   1.045   .     S
H1210  N1220   1.046   .     S
H1211  N1224   1.046   .     S
H1212  N1224   1.046   .     S
H1213  N1225   1.044   .     S
H1214  N1225   1.046   .     S
O1226  Zn1242  1.927   .     S
O1226  Zn1239  1.968   .     S
O1226  Zn1241  1.946   .     S
O1226  Zn1240  1.945   .     S
O1227  Zn1240  1.928   .     S
O1228  Zn1242  1.938   .     S
O1229  Zn1241  1.927   .     S
O1230  Zn1239  1.917   .     S
O1231  Zn1239  1.935   .     S
O1232  Zn1242  1.944   .     S
O1233  Zn1240  1.934   .     S
O1234  Zn1241  1.946   .     S
O1235  Zn1242  1.944   .     S
O1236  Zn1239  1.936   .     S
O1237  Zn1240  1.947   .     S
O1238  Zn1241  1.934   .     S
